MODEL 1
REMARK VINA RESULT:      -8.5      0.000      0.000
REMARK  Name = 
REMARK  5 active torsions:
REMARK  status: ('A' for Active; 'I' for Inactive)
REMARK    1  A    between atoms: C_1  and  C_2
REMARK    2  A    between atoms: C_9  and  C_10
REMARK    3  A    between atoms: C_10  and  S_11
REMARK    4  A    between atoms: S_11  and  C_12
REMARK    5  A    between atoms: C_14  and  O_15
REMARK                            x       y       z     vdW  Elec       q    Type
REMARK                         _______ _______ _______ _____ _____    ______ ____
ROOT
ATOM      1  C   UNL     1       2.666   3.129  17.492  0.00  0.00    +0.000 C 
ENDROOT
BRANCH   1  10
ATOM      2  C   UNL     1       1.534   9.145  20.413  0.00  0.00    +0.000 C 
ATOM      3  C   UNL     1       1.817   7.730  19.996  0.00  0.00    +0.000 A 
ATOM      4  C   UNL     1       1.688   6.696  20.931  0.00  0.00    +0.000 A 
ATOM      5  C   UNL     1       1.867   5.368  20.533  0.00  0.00    +0.000 A 
ATOM      6  O   UNL     1       1.683   4.398  21.535  0.00  0.00    +0.000 OA
ATOM      7  C   UNL     1       1.772   3.049  21.249  0.00  0.00    +0.000 A 
ATOM      8  O   UNL     1       1.592   2.182  22.095  0.00  0.00    +0.000 OA
ATOM      9  C   UNL     1       2.108   2.687  19.865  0.00  0.00    +0.000 A 
ATOM     10  C   UNL     1       2.302   3.584  18.882  0.00  0.00    +0.000 A 
ATOM     11  C   UNL     1       2.185   5.015  19.221  0.00  0.00    +0.000 A 
ATOM     12  C   UNL     1       2.353   6.056  18.300  0.00  0.00    +0.000 A 
ATOM     13  C   UNL     1       2.168   7.395  18.680  0.00  0.00    +0.000 A 
ATOM     14 CL   UNL     1       2.366   8.609  17.467  0.00  0.00    +0.000 Cl
ENDBRANCH   1  10
BRANCH   1  15
ATOM     15  S   UNL     1       4.384   2.522  17.453  0.00  0.00    +0.000 S 
BRANCH  15  16
ATOM     16  C   UNL     1       5.246   4.070  17.310  0.00  0.00    +0.000 A 
ATOM     17  N   UNL     1       4.884   4.875  16.301  0.00  0.00    +0.000 NA
ATOM     18  C   UNL     1       5.526   6.046  16.257  0.00  0.00    +0.000 A 
ATOM     19  C   UNL     1       6.498   6.474  17.151  0.00  0.00    +0.000 A 
ATOM     20  C   UNL     1       7.158   7.725  17.111  0.00  0.00    +0.000 A 
ATOM     21  C   UNL     1       8.115   8.041  18.074  0.00  0.00    +0.000 A 
ATOM     22  C   UNL     1       8.419   7.114  19.063  0.00  0.00    +0.000 A 
ATOM     23  C   UNL     1       7.761   5.879  19.086  0.00  0.00    +0.000 A 
ATOM     24  C   UNL     1       6.797   5.545  18.145  0.00  0.00    +0.000 A 
ATOM     25  N   UNL     1       6.184   4.358  18.228  0.00  0.00    +0.000 NA
BRANCH  18  26
ATOM     26  O   UNL     1       5.130   6.838  15.221  0.00  0.00    +0.000 OA
ATOM     27  H   UNL     1       5.085   7.706  15.660  0.00  0.00    +0.000 HD
ENDBRANCH  18  26
ENDBRANCH  15  16
ENDBRANCH   1  15
TORSDOF 4
ENDMDL
MODEL 2
REMARK VINA RESULT:      -8.1      3.797      7.272
REMARK  Name = 
REMARK  5 active torsions:
REMARK  status: ('A' for Active; 'I' for Inactive)
REMARK    1  A    between atoms: C_1  and  C_2
REMARK    2  A    between atoms: C_9  and  C_10
REMARK    3  A    between atoms: C_10  and  S_11
REMARK    4  A    between atoms: S_11  and  C_12
REMARK    5  A    between atoms: C_14  and  O_15
REMARK                            x       y       z     vdW  Elec       q    Type
REMARK                         _______ _______ _______ _____ _____    ______ ____
ROOT
ATOM      1  C   UNL     1       2.322   6.785  19.942  0.00  0.00    +0.000 C 
ENDROOT
BRANCH   1  10
ATOM      2  C   UNL     1       6.986   4.534  15.562  0.00  0.00    +0.000 C 
ATOM      3  C   UNL     1       5.800   4.874  16.419  0.00  0.00    +0.000 A 
ATOM      4  C   UNL     1       4.724   3.982  16.495  0.00  0.00    +0.000 A 
ATOM      5  C   UNL     1       3.654   4.249  17.354  0.00  0.00    +0.000 A 
ATOM      6  O   UNL     1       2.637   3.278  17.386  0.00  0.00    +0.000 OA
ATOM      7  C   UNL     1       1.559   3.401  18.242  0.00  0.00    +0.000 A 
ATOM      8  O   UNL     1       0.672   2.559  18.309  0.00  0.00    +0.000 OA
ATOM      9  C   UNL     1       1.512   4.608  19.078  0.00  0.00    +0.000 A 
ATOM     10  C   UNL     1       2.458   5.564  19.068  0.00  0.00    +0.000 A 
ATOM     11  C   UNL     1       3.601   5.393  18.152  0.00  0.00    +0.000 A 
ATOM     12  C   UNL     1       4.662   6.301  18.042  0.00  0.00    +0.000 A 
ATOM     13  C   UNL     1       5.748   6.044  17.191  0.00  0.00    +0.000 A 
ATOM     14 CL   UNL     1       7.025   7.208  17.145  0.00  0.00    +0.000 Cl
ENDBRANCH   1  10
BRANCH   1  15
ATOM     15  S   UNL     1       1.921   8.246  18.931  0.00  0.00    +0.000 S 
BRANCH  15  16
ATOM     16  C   UNL     1       0.973   9.178  20.112  0.00  0.00    +0.000 A 
ATOM     17  N   UNL     1       1.245   8.968  21.408  0.00  0.00    +0.000 NA
ATOM     18  C   UNL     1       0.541   9.721  22.259  0.00  0.00    +0.000 A 
ATOM     19  C   UNL     1      -0.408  10.671  21.910  0.00  0.00    +0.000 A 
ATOM     20  C   UNL     1      -1.132  11.480  22.817  0.00  0.00    +0.000 A 
ATOM     21  C   UNL     1      -2.057  12.407  22.340  0.00  0.00    +0.000 A 
ATOM     22  C   UNL     1      -2.266  12.521  20.971  0.00  0.00    +0.000 A 
ATOM     23  C   UNL     1      -1.545  11.710  20.088  0.00  0.00    +0.000 A 
ATOM     24  C   UNL     1      -0.610  10.787  20.537  0.00  0.00    +0.000 A 
ATOM     25  N   UNL     1       0.066  10.052  19.646  0.00  0.00    +0.000 NA
BRANCH  18  26
ATOM     26  O   UNL     1       0.846   9.482  23.566  0.00  0.00    +0.000 OA
ATOM     27  H   UNL     1       0.435  10.254  23.995  0.00  0.00    +0.000 HD
ENDBRANCH  18  26
ENDBRANCH  15  16
ENDBRANCH   1  15
TORSDOF 4
ENDMDL
MODEL 3
REMARK VINA RESULT:      -8.0      4.285      6.147
REMARK  Name = 
REMARK  5 active torsions:
REMARK  status: ('A' for Active; 'I' for Inactive)
REMARK    1  A    between atoms: C_1  and  C_2
REMARK    2  A    between atoms: C_9  and  C_10
REMARK    3  A    between atoms: C_10  and  S_11
REMARK    4  A    between atoms: S_11  and  C_12
REMARK    5  A    between atoms: C_14  and  O_15
REMARK                            x       y       z     vdW  Elec       q    Type
REMARK                         _______ _______ _______ _____ _____    ______ ____
ROOT
ATOM      1  C   UNL     1       1.236   9.028  18.826  0.00  0.00    +0.000 C 
ENDROOT
BRANCH   1  10
ATOM      2  C   UNL     1      -4.678  11.694  16.845  0.00  0.00    +0.000 C 
ATOM      3  C   UNL     1      -3.357  11.295  17.439  0.00  0.00    +0.000 A 
ATOM      4  C   UNL     1      -2.972  11.816  18.679  0.00  0.00    +0.000 A 
ATOM      5  C   UNL     1      -1.785  11.388  19.280  0.00  0.00    +0.000 A 
ATOM      6  O   UNL     1      -1.501  11.942  20.541  0.00  0.00    +0.000 OA
ATOM      7  C   UNL     1      -0.388  11.550  21.260  0.00  0.00    +0.000 A 
ATOM      8  O   UNL     1      -0.129  11.997  22.371  0.00  0.00    +0.000 OA
ATOM      9  C   UNL     1       0.496  10.563  20.624  0.00  0.00    +0.000 A 
ATOM     10  C   UNL     1       0.265  10.018  19.417  0.00  0.00    +0.000 A 
ATOM     11  C   UNL     1      -0.939  10.451  18.684  0.00  0.00    +0.000 A 
ATOM     12  C   UNL     1      -1.309   9.964  17.424  0.00  0.00    +0.000 A 
ATOM     13  C   UNL     1      -2.503  10.376  16.811  0.00  0.00    +0.000 A 
ATOM     14 CL   UNL     1      -2.890   9.697  15.270  0.00  0.00    +0.000 Cl
ENDBRANCH   1  10
BRANCH   1  15
ATOM     15  S   UNL     1       1.852   7.898  20.116  0.00  0.00    +0.000 S 
BRANCH  15  16
ATOM     16  C   UNL     1       2.654   6.684  19.094  0.00  0.00    +0.000 A 
ATOM     17  N   UNL     1       2.334   5.400  19.314  0.00  0.00    +0.000 NA
ATOM     18  C   UNL     1       2.925   4.525  18.494  0.00  0.00    +0.000 A 
ATOM     19  C   UNL     1       3.806   4.839  17.469  0.00  0.00    +0.000 A 
ATOM     20  C   UNL     1       4.410   3.909  16.591  0.00  0.00    +0.000 A 
ATOM     21  C   UNL     1       5.276   4.351  15.593  0.00  0.00    +0.000 A 
ATOM     22  C   UNL     1       5.545   5.709  15.476  0.00  0.00    +0.000 A 
ATOM     23  C   UNL     1       4.943   6.616  16.354  0.00  0.00    +0.000 A 
ATOM     24  C   UNL     1       4.069   6.202  17.350  0.00  0.00    +0.000 A 
ATOM     25  N   UNL     1       3.505   7.116  18.149  0.00  0.00    +0.000 NA
BRANCH  18  26
ATOM     26  O   UNL     1       2.574   3.232  18.745  0.00  0.00    +0.000 OA
ATOM     27  H   UNL     1       2.371   3.278  19.697  0.00  0.00    +0.000 HD
ENDBRANCH  18  26
ENDBRANCH  15  16
ENDBRANCH   1  15
TORSDOF 4
ENDMDL
MODEL 4
REMARK VINA RESULT:      -8.0      3.161      6.289
REMARK  Name = 
REMARK  5 active torsions:
REMARK  status: ('A' for Active; 'I' for Inactive)
REMARK    1  A    between atoms: C_1  and  C_2
REMARK    2  A    between atoms: C_9  and  C_10
REMARK    3  A    between atoms: C_10  and  S_11
REMARK    4  A    between atoms: S_11  and  C_12
REMARK    5  A    between atoms: C_14  and  O_15
REMARK                            x       y       z     vdW  Elec       q    Type
REMARK                         _______ _______ _______ _____ _____    ______ ____
ROOT
ATOM      1  C   UNL     1       3.431   4.156  18.174  0.00  0.00    +0.000 C 
ENDROOT
BRANCH   1  10
ATOM      2  C   UNL     1       7.734   4.925  12.989  0.00  0.00    +0.000 C 
ATOM      3  C   UNL     1       6.984   4.742  14.278  0.00  0.00    +0.000 A 
ATOM      4  C   UNL     1       7.623   5.014  15.492  0.00  0.00    +0.000 A 
ATOM      5  C   UNL     1       6.910   4.928  16.692  0.00  0.00    +0.000 A 
ATOM      6  O   UNL     1       7.629   5.254  17.857  0.00  0.00    +0.000 OA
ATOM      7  C   UNL     1       7.015   5.266  19.095  0.00  0.00    +0.000 A 
ATOM      8  O   UNL     1       7.609   5.568  20.122  0.00  0.00    +0.000 OA
ATOM      9  C   UNL     1       5.596   4.884  19.133  0.00  0.00    +0.000 A 
ATOM     10  C   UNL     1       4.878   4.557  18.044  0.00  0.00    +0.000 A 
ATOM     11  C   UNL     1       5.562   4.568  16.738  0.00  0.00    +0.000 A 
ATOM     12  C   UNL     1       4.940   4.258  15.523  0.00  0.00    +0.000 A 
ATOM     13  C   UNL     1       5.639   4.348  14.309  0.00  0.00    +0.000 A 
ATOM     14 CL   UNL     1       4.778   3.975  12.857  0.00  0.00    +0.000 Cl
ENDBRANCH   1  10
BRANCH   1  15
ATOM     15  S   UNL     1       2.835   4.473  19.867  0.00  0.00    +0.000 S 
BRANCH  15  16
ATOM     16  C   UNL     1       2.358   6.179  19.702  0.00  0.00    +0.000 A 
ATOM     17  N   UNL     1       2.604   6.765  18.521  0.00  0.00    +0.000 NA
ATOM     18  C   UNL     1       2.189   8.032  18.427  0.00  0.00    +0.000 A 
ATOM     19  C   UNL     1       1.543   8.753  19.421  0.00  0.00    +0.000 A 
ATOM     20  C   UNL     1       1.088  10.087  19.306  0.00  0.00    +0.000 A 
ATOM     21  C   UNL     1       0.445  10.701  20.378  0.00  0.00    +0.000 A 
ATOM     22  C   UNL     1       0.265   9.995  21.561  0.00  0.00    +0.000 A 
ATOM     23  C   UNL     1       0.725   8.677  21.662  0.00  0.00    +0.000 A 
ATOM     24  C   UNL     1       1.359   8.040  20.604  0.00  0.00    +0.000 A 
ATOM     25  N   UNL     1       1.760   6.771  20.749  0.00  0.00    +0.000 NA
BRANCH  18  26
ATOM     26  O   UNL     1       2.452   8.594  17.213  0.00  0.00    +0.000 OA
ATOM     27  H   UNL     1       2.874   9.429  17.484  0.00  0.00    +0.000 HD
ENDBRANCH  18  26
ENDBRANCH  15  16
ENDBRANCH   1  15
TORSDOF 4
ENDMDL
MODEL 5
REMARK VINA RESULT:      -7.9      3.871      6.950
REMARK  Name = 
REMARK  5 active torsions:
REMARK  status: ('A' for Active; 'I' for Inactive)
REMARK    1  A    between atoms: C_1  and  C_2
REMARK    2  A    between atoms: C_9  and  C_10
REMARK    3  A    between atoms: C_10  and  S_11
REMARK    4  A    between atoms: S_11  and  C_12
REMARK    5  A    between atoms: C_14  and  O_15
REMARK                            x       y       z     vdW  Elec       q    Type
REMARK                         _______ _______ _______ _____ _____    ______ ____
ROOT
ATOM      1  C   UNL     1       2.369   7.064  19.421  0.00  0.00    +0.000 C 
ENDROOT
BRANCH   1  10
ATOM      2  C   UNL     1       7.306   4.362  15.634  0.00  0.00    +0.000 C 
ATOM      3  C   UNL     1       6.067   4.789  16.370  0.00  0.00    +0.000 A 
ATOM      4  C   UNL     1       4.990   3.903  16.479  0.00  0.00    +0.000 A 
ATOM      5  C   UNL     1       3.867   4.258  17.232  0.00  0.00    +0.000 A 
ATOM      6  O   UNL     1       2.851   3.289  17.313  0.00  0.00    +0.000 OA
ATOM      7  C   UNL     1       1.720   3.500  18.079  0.00  0.00    +0.000 A 
ATOM      8  O   UNL     1       0.831   2.665  18.186  0.00  0.00    +0.000 OA
ATOM      9  C   UNL     1       1.618   4.796  18.764  0.00  0.00    +0.000 A 
ATOM     10  C   UNL     1       2.562   5.752  18.704  0.00  0.00    +0.000 A 
ATOM     11  C   UNL     1       3.762   5.486  17.888  0.00  0.00    +0.000 A 
ATOM     12  C   UNL     1       4.826   6.384  17.741  0.00  0.00    +0.000 A 
ATOM     13  C   UNL     1       5.965   6.040  16.996  0.00  0.00    +0.000 A 
ATOM     14 CL   UNL     1       7.241   7.201  16.896  0.00  0.00    +0.000 Cl
ENDBRANCH   1  10
BRANCH   1  15
ATOM     15  S   UNL     1       2.151   8.416  18.219  0.00  0.00    +0.000 S 
BRANCH  15  16
ATOM     16  C   UNL     1       1.150   9.521  19.187  0.00  0.00    +0.000 A 
ATOM     17  N   UNL     1       0.685  10.617  18.570  0.00  0.00    +0.000 NA
ATOM     18  C   UNL     1      -0.099  11.395  19.321  0.00  0.00    +0.000 A 
ATOM     19  C   UNL     1      -0.458  11.156  20.640  0.00  0.00    +0.000 A 
ATOM     20  C   UNL     1      -1.307  11.974  21.422  0.00  0.00    +0.000 A 
ATOM     21  C   UNL     1      -1.598  11.622  22.739  0.00  0.00    +0.000 A 
ATOM     22  C   UNL     1      -1.039  10.469  23.275  0.00  0.00    +0.000 A 
ATOM     23  C   UNL     1      -0.198   9.672  22.491  0.00  0.00    +0.000 A 
ATOM     24  C   UNL     1       0.099   9.996  21.173  0.00  0.00    +0.000 A 
ATOM     25  N   UNL     1       0.893   9.187  20.463  0.00  0.00    +0.000 NA
BRANCH  18  26
ATOM     26  O   UNL     1      -0.555  12.496  18.660  0.00  0.00    +0.000 OA
ATOM     27  H   UNL     1      -0.831  12.102  17.813  0.00  0.00    +0.000 HD
ENDBRANCH  18  26
ENDBRANCH  15  16
ENDBRANCH   1  15
TORSDOF 4
ENDMDL
MODEL 6
REMARK VINA RESULT:      -7.9      4.345      6.667
REMARK  Name = 
REMARK  5 active torsions:
REMARK  status: ('A' for Active; 'I' for Inactive)
REMARK    1  A    between atoms: C_1  and  C_2
REMARK    2  A    between atoms: C_9  and  C_10
REMARK    3  A    between atoms: C_10  and  S_11
REMARK    4  A    between atoms: S_11  and  C_12
REMARK    5  A    between atoms: C_14  and  O_15
REMARK                            x       y       z     vdW  Elec       q    Type
REMARK                         _______ _______ _______ _____ _____    ______ ____
ROOT
ATOM      1  C   UNL     1       1.186   9.246  19.543  0.00  0.00    +0.000 C 
ENDROOT
BRANCH   1  10
ATOM      2  C   UNL     1      -4.603  11.745  17.044  0.00  0.00    +0.000 C 
ATOM      3  C   UNL     1      -3.323  11.390  17.745  0.00  0.00    +0.000 A 
ATOM      4  C   UNL     1      -3.034  11.965  18.987  0.00  0.00    +0.000 A 
ATOM      5  C   UNL     1      -1.887  11.579  19.687  0.00  0.00    +0.000 A 
ATOM      6  O   UNL     1      -1.700  12.186  20.942  0.00  0.00    +0.000 OA
ATOM      7  C   UNL     1      -0.636  11.839  21.752  0.00  0.00    +0.000 A 
ATOM      8  O   UNL     1      -0.462  12.333  22.859  0.00  0.00    +0.000 OA
ATOM      9  C   UNL     1       0.302  10.841  21.221  0.00  0.00    +0.000 A 
ATOM     10  C   UNL     1       0.164  10.245  20.023  0.00  0.00    +0.000 A 
ATOM     11  C   UNL     1      -0.990  10.630  19.191  0.00  0.00    +0.000 A 
ATOM     12  C   UNL     1      -1.265  10.088  17.929  0.00  0.00    +0.000 A 
ATOM     13  C   UNL     1      -2.416  10.459  17.218  0.00  0.00    +0.000 A 
ATOM     14 CL   UNL     1      -2.686   9.714  15.682  0.00  0.00    +0.000 Cl
ENDBRANCH   1  10
BRANCH   1  15
ATOM     15  S   UNL     1       1.522   8.011  20.839  0.00  0.00    +0.000 S 
BRANCH  15  16
ATOM     16  C   UNL     1       2.020   6.638  19.825  0.00  0.00    +0.000 A 
ATOM     17  N   UNL     1       2.864   6.904  18.817  0.00  0.00    +0.000 NA
ATOM     18  C   UNL     1       3.247   5.837  18.108  0.00  0.00    +0.000 A 
ATOM     19  C   UNL     1       2.853   4.526  18.336  0.00  0.00    +0.000 A 
ATOM     20  C   UNL     1       3.280   3.399  17.595  0.00  0.00    +0.000 A 
ATOM     21  C   UNL     1       2.816   2.128  17.927  0.00  0.00    +0.000 A 
ATOM     22  C   UNL     1       1.926   1.981  18.984  0.00  0.00    +0.000 A 
ATOM     23  C   UNL     1       1.509   3.106  19.704  0.00  0.00    +0.000 A 
ATOM     24  C   UNL     1       1.965   4.381  19.400  0.00  0.00    +0.000 A 
ATOM     25  N   UNL     1       1.550   5.419  20.136  0.00  0.00    +0.000 NA
BRANCH  18  26
ATOM     26  O   UNL     1       4.106   6.145  17.097  0.00  0.00    +0.000 OA
ATOM     27  H   UNL     1       4.486   5.269  16.905  0.00  0.00    +0.000 HD
ENDBRANCH  18  26
ENDBRANCH  15  16
ENDBRANCH   1  15
TORSDOF 4
ENDMDL
MODEL 7
REMARK VINA RESULT:      -7.9      4.144      7.601
REMARK  Name = 
REMARK  5 active torsions:
REMARK  status: ('A' for Active; 'I' for Inactive)
REMARK    1  A    between atoms: C_1  and  C_2
REMARK    2  A    between atoms: C_9  and  C_10
REMARK    3  A    between atoms: C_10  and  S_11
REMARK    4  A    between atoms: S_11  and  C_12
REMARK    5  A    between atoms: C_14  and  O_15
REMARK                            x       y       z     vdW  Elec       q    Type
REMARK                         _______ _______ _______ _____ _____    ______ ____
ROOT
ATOM      1  C   UNL     1       2.199   7.896  18.903  0.00  0.00    +0.000 C 
ENDROOT
BRANCH   1  10
ATOM      2  C   UNL     1       3.055   1.168  18.886  0.00  0.00    +0.000 C 
ATOM      3  C   UNL     1       3.086   2.666  18.780  0.00  0.00    +0.000 A 
ATOM      4  C   UNL     1       3.952   3.275  17.865  0.00  0.00    +0.000 A 
ATOM      5  C   UNL     1       3.930   4.663  17.698  0.00  0.00    +0.000 A 
ATOM      6  O   UNL     1       4.811   5.179  16.731  0.00  0.00    +0.000 OA
ATOM      7  C   UNL     1       4.835   6.528  16.434  0.00  0.00    +0.000 A 
ATOM      8  O   UNL     1       5.575   7.001  15.579  0.00  0.00    +0.000 OA
ATOM      9  C   UNL     1       3.930   7.391  17.203  0.00  0.00    +0.000 A 
ATOM     10  C   UNL     1       3.080   6.938  18.142  0.00  0.00    +0.000 A 
ATOM     11  C   UNL     1       3.072   5.491  18.424  0.00  0.00    +0.000 A 
ATOM     12  C   UNL     1       2.237   4.879  19.367  0.00  0.00    +0.000 A 
ATOM     13  C   UNL     1       2.240   3.486  19.540  0.00  0.00    +0.000 A 
ATOM     14 CL   UNL     1       1.153   2.819  20.706  0.00  0.00    +0.000 Cl
ENDBRANCH   1  10
BRANCH   1  15
ATOM     15  S   UNL     1       1.729   9.302  17.844  0.00  0.00    +0.000 S 
BRANCH  15  16
ATOM     16  C   UNL     1       0.700  10.204  18.980  0.00  0.00    +0.000 A 
ATOM     17  N   UNL     1       0.036  11.261  18.489  0.00  0.00    +0.000 NA
ATOM     18  C   UNL     1      -0.758  11.882  19.366  0.00  0.00    +0.000 A 
ATOM     19  C   UNL     1      -0.943  11.521  20.693  0.00  0.00    +0.000 A 
ATOM     20  C   UNL     1      -1.804  12.171  21.609  0.00  0.00    +0.000 A 
ATOM     21  C   UNL     1      -1.908  11.707  22.919  0.00  0.00    +0.000 A 
ATOM     22  C   UNL     1      -1.153  10.611  23.316  0.00  0.00    +0.000 A 
ATOM     23  C   UNL     1      -0.302   9.982  22.400  0.00  0.00    +0.000 A 
ATOM     24  C   UNL     1      -0.190  10.418  21.087  0.00  0.00    +0.000 A 
ATOM     25  N   UNL     1       0.623   9.765  20.247  0.00  0.00    +0.000 NA
BRANCH  18  26
ATOM     26  O   UNL     1      -1.418  12.948  18.831  0.00  0.00    +0.000 OA
ATOM     27  H   UNL     1      -1.368  12.738  17.881  0.00  0.00    +0.000 HD
ENDBRANCH  18  26
ENDBRANCH  15  16
ENDBRANCH   1  15
TORSDOF 4
ENDMDL
MODEL 8
REMARK VINA RESULT:      -7.8      4.237      6.499
REMARK  Name = 
REMARK  5 active torsions:
REMARK  status: ('A' for Active; 'I' for Inactive)
REMARK    1  A    between atoms: C_1  and  C_2
REMARK    2  A    between atoms: C_9  and  C_10
REMARK    3  A    between atoms: C_10  and  S_11
REMARK    4  A    between atoms: S_11  and  C_12
REMARK    5  A    between atoms: C_14  and  O_15
REMARK                            x       y       z     vdW  Elec       q    Type
REMARK                         _______ _______ _______ _____ _____    ______ ____
ROOT
ATOM      1  C   UNL     1       1.127   8.871  17.531  0.00  0.00    +0.000 C 
ENDROOT
BRANCH   1  10
ATOM      2  C   UNL     1      -4.969  11.841  17.365  0.00  0.00    +0.000 C 
ATOM      3  C   UNL     1      -3.565  11.350  17.577  0.00  0.00    +0.000 A 
ATOM      4  C   UNL     1      -2.891  11.674  18.759  0.00  0.00    +0.000 A 
ATOM      5  C   UNL     1      -1.617  11.153  19.003  0.00  0.00    +0.000 A 
ATOM      6  O   UNL     1      -1.035  11.508  20.234  0.00  0.00    +0.000 OA
ATOM      7  C   UNL     1       0.194  11.004  20.614  0.00  0.00    +0.000 A 
ATOM      8  O   UNL     1       0.714  11.277  21.689  0.00  0.00    +0.000 OA
ATOM      9  C   UNL     1       0.872  10.121  19.656  0.00  0.00    +0.000 A 
ATOM     10  C   UNL     1       0.354   9.767  18.467  0.00  0.00    +0.000 A 
ATOM     11  C   UNL     1      -0.966  10.312  18.100  0.00  0.00    +0.000 A 
ATOM     12  C   UNL     1      -1.629  10.024  16.901  0.00  0.00    +0.000 A 
ATOM     13  C   UNL     1      -2.912  10.531  16.644  0.00  0.00    +0.000 A 
ATOM     14 CL   UNL     1      -3.664  10.096  15.150  0.00  0.00    +0.000 Cl
ENDBRANCH   1  10
BRANCH   1  15
ATOM     15  S   UNL     1       2.798   8.562  18.187  0.00  0.00    +0.000 S 
BRANCH  15  16
ATOM     16  C   UNL     1       2.728   6.794  18.368  0.00  0.00    +0.000 A 
ATOM     17  N   UNL     1       3.438   6.067  17.494  0.00  0.00    +0.000 NA
ATOM     18  C   UNL     1       3.393   4.746  17.693  0.00  0.00    +0.000 A 
ATOM     19  C   UNL     1       2.695   4.101  18.705  0.00  0.00    +0.000 A 
ATOM     20  C   UNL     1       2.670   2.704  18.923  0.00  0.00    +0.000 A 
ATOM     21  C   UNL     1       1.933   2.175  19.982  0.00  0.00    +0.000 A 
ATOM     22  C   UNL     1       1.220   3.031  20.811  0.00  0.00    +0.000 A 
ATOM     23  C   UNL     1       1.251   4.411  20.579  0.00  0.00    +0.000 A 
ATOM     24  C   UNL     1       1.986   4.963  19.538  0.00  0.00    +0.000 A 
ATOM     25  N   UNL     1       1.997   6.291  19.376  0.00  0.00    +0.000 NA
BRANCH  18  26
ATOM     26  O   UNL     1       4.128   4.040  16.789  0.00  0.00    +0.000 OA
ATOM     27  H   UNL     1       4.955   3.908  17.288  0.00  0.00    +0.000 HD
ENDBRANCH  18  26
ENDBRANCH  15  16
ENDBRANCH   1  15
TORSDOF 4
ENDMDL
MODEL 9
REMARK VINA RESULT:      -7.7      4.355      6.394
REMARK  Name = 
REMARK  5 active torsions:
REMARK  status: ('A' for Active; 'I' for Inactive)
REMARK    1  A    between atoms: C_1  and  C_2
REMARK    2  A    between atoms: C_9  and  C_10
REMARK    3  A    between atoms: C_10  and  S_11
REMARK    4  A    between atoms: S_11  and  C_12
REMARK    5  A    between atoms: C_14  and  O_15
REMARK                            x       y       z     vdW  Elec       q    Type
REMARK                         _______ _______ _______ _____ _____    ______ ____
ROOT
ATOM      1  C   UNL     1       0.862   8.890  17.629  0.00  0.00    +0.000 C 
ENDROOT
BRANCH   1  10
ATOM      2  C   UNL     1      -5.176  11.957  17.259  0.00  0.00    +0.000 C 
ATOM      3  C   UNL     1      -3.787  11.447  17.514  0.00  0.00    +0.000 A 
ATOM      4  C   UNL     1      -3.135  11.785  18.705  0.00  0.00    +0.000 A 
ATOM      5  C   UNL     1      -1.876  11.248  18.990  0.00  0.00    +0.000 A 
ATOM      6  O   UNL     1      -1.317  11.618  20.226  0.00  0.00    +0.000 OA
ATOM      7  C   UNL     1      -0.105  11.102  20.645  0.00  0.00    +0.000 A 
ATOM      8  O   UNL     1       0.394  11.388  21.727  0.00  0.00    +0.000 OA
ATOM      9  C   UNL     1       0.580  10.188  19.722  0.00  0.00    +0.000 A 
ATOM     10  C   UNL     1       0.083   9.818  18.528  0.00  0.00    +0.000 A 
ATOM     11  C   UNL     1      -1.218  10.377  18.119  0.00  0.00    +0.000 A 
ATOM     12  C   UNL     1      -1.858  10.075  16.911  0.00  0.00    +0.000 A 
ATOM     13  C   UNL     1      -3.126  10.598  16.613  0.00  0.00    +0.000 A 
ATOM     14 CL   UNL     1      -3.850  10.144  15.111  0.00  0.00    +0.000 Cl
ENDBRANCH   1  10
BRANCH   1  15
ATOM     15  S   UNL     1       2.632   8.927  18.062  0.00  0.00    +0.000 S 
BRANCH  15  16
ATOM     16  C   UNL     1       3.036   7.212  17.822  0.00  0.00    +0.000 A 
ATOM     17  N   UNL     1       4.260   6.939  17.348  0.00  0.00    +0.000 NA
ATOM     18  C   UNL     1       4.537   5.637  17.225  0.00  0.00    +0.000 A 
ATOM     19  C   UNL     1       3.684   4.591  17.547  0.00  0.00    +0.000 A 
ATOM     20  C   UNL     1       3.993   3.215  17.436  0.00  0.00    +0.000 A 
ATOM     21  C   UNL     1       3.050   2.255  17.799  0.00  0.00    +0.000 A 
ATOM     22  C   UNL     1       1.805   2.663  18.260  0.00  0.00    +0.000 A 
ATOM     23  C   UNL     1       1.512   4.028  18.361  0.00  0.00    +0.000 A 
ATOM     24  C   UNL     1       2.439   5.003  18.016  0.00  0.00    +0.000 A 
ATOM     25  N   UNL     1       2.113   6.294  18.152  0.00  0.00    +0.000 NA
BRANCH  18  26
ATOM     26  O   UNL     1       5.789   5.397  16.744  0.00  0.00    +0.000 OA
ATOM     27  H   UNL     1       5.790   4.424  16.709  0.00  0.00    +0.000 HD
ENDBRANCH  18  26
ENDBRANCH  15  16
ENDBRANCH   1  15
TORSDOF 4
ENDMDL
