MODEL 1
REMARK VINA RESULT:      -7.9      0.000      0.000
REMARK  Name = 
REMARK  11 active torsions:
REMARK  status: ('A' for Active; 'I' for Inactive)
REMARK    1  A    between atoms: C_1  and  O_2
REMARK    2  A    between atoms: O_2  and  C_3
REMARK    3  A    between atoms: C_5  and  C_6
REMARK    4  A    between atoms: C_6  and  N_7
REMARK    5  A    between atoms: C_14  and  C_15
REMARK    6  A    between atoms: C_20  and  O_21
REMARK    7  A    between atoms: O_21  and  C_22
REMARK    8  A    between atoms: C_22  and  C_23
REMARK    9  A    between atoms: C_23  and  C_24
REMARK   10  A    between atoms: C_24  and  C_25
REMARK   11  A    between atoms: C_24  and  C_26
REMARK                            x       y       z     vdW  Elec       q    Type
REMARK                         _______ _______ _______ _____ _____    ______ ____
ROOT
ATOM      1  C   UNL     1       1.488   8.228  20.490  0.00  0.00    +0.000 A 
ATOM      2  C   UNL     1       1.998   6.921  20.287  0.00  0.00    +0.000 A 
ATOM      3  C   UNL     1       2.519   6.459  19.040  0.00  0.00    +0.000 A 
ATOM      4  C   UNL     1       2.343   7.316  17.953  0.00  0.00    +0.000 A 
ATOM      5  C   UNL     1       1.814   8.613  18.138  0.00  0.00    +0.000 A 
ATOM      6  C   UNL     1       1.454   9.108  19.405  0.00  0.00    +0.000 A 
ENDROOT
BRANCH   1   8
ATOM      7  C   UNL     1      -0.429   8.509  21.934  0.00  0.00    +0.000 C 
ATOM      8  O   UNL     1       0.955   8.674  21.670  0.00  0.00    +0.000 OA
ENDBRANCH   1   8
BRANCH   3   9
ATOM      9  C   UNL     1       2.814   4.969  18.884  0.00  0.00    +0.000 C 
BRANCH   9  10
ATOM     10  N   UNL     1       3.832   4.214  18.113  0.00  0.00    +0.000 N 
ATOM     11  C   UNL     1       4.653   3.675  19.161  0.00  0.00    +0.000 A 
ATOM     12  O   UNL     1       4.251   3.039  20.118  0.00  0.00    +0.000 OA
ATOM     13  O   UNL     1       5.971   4.126  19.121  0.00  0.00    +0.000 OA
ATOM     14  C   UNL     1       6.052   4.589  17.832  0.00  0.00    +0.000 A 
ATOM     15  C   UNL     1       7.301   4.571  17.216  0.00  0.00    +0.000 A 
ATOM     16  C   UNL     1       7.331   4.444  15.847  0.00  0.00    +0.000 A 
ATOM     17  C   UNL     1       6.129   4.345  15.124  0.00  0.00    +0.000 A 
ATOM     18  C   UNL     1       6.262   3.960  13.674  0.00  0.00    +0.000 C 
ATOM     19  C   UNL     1       4.859   4.499  15.797  0.00  0.00    +0.000 A 
ATOM     20  C   UNL     1       4.820   4.676  17.190  0.00  0.00    +0.000 A 
ENDBRANCH   9  10
ENDBRANCH   3   9
BRANCH   6  21
ATOM     21  O   UNL     1       1.066  10.424  19.382  0.00  0.00    +0.000 OA
BRANCH  21  22
ATOM     22  C   UNL     1      -0.091  10.864  18.649  0.00  0.00    +0.000 C 
BRANCH  22  23
ATOM     23  C   UNL     1      -1.287   9.906  18.752  0.00  0.00    +0.000 C 
BRANCH  23  24
ATOM     24  C   UNL     1      -2.527  10.321  17.927  0.00  0.00    +0.000 C 
ATOM     25  C   UNL     1      -2.857  11.810  18.044  0.00  0.00    +0.000 C 
ATOM     26  C   UNL     1      -2.312   9.969  16.449  0.00  0.00    +0.000 C 
ENDBRANCH  23  24
ENDBRANCH  22  23
ENDBRANCH  21  22
ENDBRANCH   6  21
TORSDOF 7
ENDMDL
MODEL 2
REMARK VINA RESULT:      -7.8      1.595      2.720
REMARK  Name = 
REMARK  11 active torsions:
REMARK  status: ('A' for Active; 'I' for Inactive)
REMARK    1  A    between atoms: C_1  and  O_2
REMARK    2  A    between atoms: O_2  and  C_3
REMARK    3  A    between atoms: C_5  and  C_6
REMARK    4  A    between atoms: C_6  and  N_7
REMARK    5  A    between atoms: C_14  and  C_15
REMARK    6  A    between atoms: C_20  and  O_21
REMARK    7  A    between atoms: O_21  and  C_22
REMARK    8  A    between atoms: C_22  and  C_23
REMARK    9  A    between atoms: C_23  and  C_24
REMARK   10  A    between atoms: C_24  and  C_25
REMARK   11  A    between atoms: C_24  and  C_26
REMARK                            x       y       z     vdW  Elec       q    Type
REMARK                         _______ _______ _______ _____ _____    ______ ____
ROOT
ATOM      1  C   UNL     1       2.270   7.732  18.911  0.00  0.00    +0.000 A 
ATOM      2  C   UNL     1       2.503   6.421  18.422  0.00  0.00    +0.000 A 
ATOM      3  C   UNL     1       2.216   5.235  19.166  0.00  0.00    +0.000 A 
ATOM      4  C   UNL     1       1.848   5.429  20.498  0.00  0.00    +0.000 A 
ATOM      5  C   UNL     1       1.636   6.730  21.004  0.00  0.00    +0.000 A 
ATOM      6  C   UNL     1       1.769   7.882  20.206  0.00  0.00    +0.000 A 
ENDROOT
BRANCH   1   8
ATOM      7  C   UNL     1       1.529   9.726  17.765  0.00  0.00    +0.000 C 
ATOM      8  O   UNL     1       2.570   8.876  18.222  0.00  0.00    +0.000 OA
ENDBRANCH   1   8
BRANCH   3   9
ATOM      9  C   UNL     1       2.729   3.901  18.632  0.00  0.00    +0.000 C 
BRANCH   9  10
ATOM     10  N   UNL     1       3.963   3.506  17.909  0.00  0.00    +0.000 N 
ATOM     11  C   UNL     1       4.884   3.300  18.993  0.00  0.00    +0.000 A 
ATOM     12  O   UNL     1       4.687   2.593  19.964  0.00  0.00    +0.000 OA
ATOM     13  O   UNL     1       5.978   4.163  18.962  0.00  0.00    +0.000 OA
ATOM     14  C   UNL     1       5.940   4.590  17.658  0.00  0.00    +0.000 A 
ATOM     15  C   UNL     1       7.142   4.972  17.068  0.00  0.00    +0.000 A 
ATOM     16  C   UNL     1       7.255   4.824  15.706  0.00  0.00    +0.000 A 
ATOM     17  C   UNL     1       6.177   4.311  14.963  0.00  0.00    +0.000 A 
ATOM     18  C   UNL     1       6.474   3.951  13.531  0.00  0.00    +0.000 C 
ATOM     19  C   UNL     1       4.908   4.052  15.606  0.00  0.00    +0.000 A 
ATOM     20  C   UNL     1       4.770   4.245  16.990  0.00  0.00    +0.000 A 
ENDBRANCH   9  10
ENDBRANCH   3   9
BRANCH   6  21
ATOM     21  O   UNL     1       1.413   9.036  20.858  0.00  0.00    +0.000 OA
BRANCH  21  22
ATOM     22  C   UNL     1       1.003   9.037  22.236  0.00  0.00    +0.000 C 
BRANCH  22  23
ATOM     23  C   UNL     1      -0.434   9.534  22.452  0.00  0.00    +0.000 C 
BRANCH  23  24
ATOM     24  C   UNL     1      -0.638  11.052  22.242  0.00  0.00    +0.000 C 
ATOM     25  C   UNL     1      -1.016  11.415  20.806  0.00  0.00    +0.000 C 
ATOM     26  C   UNL     1      -1.723  11.569  23.194  0.00  0.00    +0.000 C 
ENDBRANCH  23  24
ENDBRANCH  22  23
ENDBRANCH  21  22
ENDBRANCH   6  21
TORSDOF 7
ENDMDL
MODEL 3
REMARK VINA RESULT:      -7.7      2.294      8.462
REMARK  Name = 
REMARK  11 active torsions:
REMARK  status: ('A' for Active; 'I' for Inactive)
REMARK    1  A    between atoms: C_1  and  O_2
REMARK    2  A    between atoms: O_2  and  C_3
REMARK    3  A    between atoms: C_5  and  C_6
REMARK    4  A    between atoms: C_6  and  N_7
REMARK    5  A    between atoms: C_14  and  C_15
REMARK    6  A    between atoms: C_20  and  O_21
REMARK    7  A    between atoms: O_21  and  C_22
REMARK    8  A    between atoms: C_22  and  C_23
REMARK    9  A    between atoms: C_23  and  C_24
REMARK   10  A    between atoms: C_24  and  C_25
REMARK   11  A    between atoms: C_24  and  C_26
REMARK                            x       y       z     vdW  Elec       q    Type
REMARK                         _______ _______ _______ _____ _____    ______ ____
ROOT
ATOM      1  C   UNL     1       2.684   5.928  19.762  0.00  0.00    +0.000 A 
ATOM      2  C   UNL     1       1.972   7.150  19.862  0.00  0.00    +0.000 A 
ATOM      3  C   UNL     1       1.982   8.159  18.850  0.00  0.00    +0.000 A 
ATOM      4  C   UNL     1       2.883   7.960  17.804  0.00  0.00    +0.000 A 
ATOM      5  C   UNL     1       3.616   6.756  17.704  0.00  0.00    +0.000 A 
ATOM      6  C   UNL     1       3.472   5.706  18.629  0.00  0.00    +0.000 A 
ENDROOT
BRANCH   1   8
ATOM      7  C   UNL     1       1.642   4.042  20.854  0.00  0.00    +0.000 C 
ATOM      8  O   UNL     1       2.711   4.968  20.737  0.00  0.00    +0.000 OA
ENDBRANCH   1   8
BRANCH   3   9
ATOM      9  C   UNL     1       1.375   9.521  19.176  0.00  0.00    +0.000 C 
BRANCH   9  10
ATOM     10  N   UNL     1       0.440  10.414  18.448  0.00  0.00    +0.000 N 
ATOM     11  C   UNL     1       0.544  11.629  19.209  0.00  0.00    +0.000 A 
ATOM     12  O   UNL     1       1.581  12.199  19.491  0.00  0.00    +0.000 OA
ATOM     13  O   UNL     1      -0.655  12.014  19.804  0.00  0.00    +0.000 OA
ATOM     14  C   UNL     1      -1.559  11.286  19.073  0.00  0.00    +0.000 A 
ATOM     15  C   UNL     1      -2.847  11.799  18.940  0.00  0.00    +0.000 A 
ATOM     16  C   UNL     1      -3.550  11.464  17.807  0.00  0.00    +0.000 A 
ATOM     17  C   UNL     1      -2.965  10.625  16.840  0.00  0.00    +0.000 A 
ATOM     18  C   UNL     1      -3.700  10.517  15.531  0.00  0.00    +0.000 C 
ATOM     19  C   UNL     1      -1.678  10.015  17.088  0.00  0.00    +0.000 A 
ATOM     20  C   UNL     1      -0.973  10.316  18.265  0.00  0.00    +0.000 A 
ENDBRANCH   9  10
ENDBRANCH   3   9
BRANCH   6  21
ATOM     21  O   UNL     1       4.190   4.586  18.292  0.00  0.00    +0.000 OA
BRANCH  21  22
ATOM     22  C   UNL     1       5.400   4.222  18.978  0.00  0.00    +0.000 C 
BRANCH  22  23
ATOM     23  C   UNL     1       6.338   5.409  19.246  0.00  0.00    +0.000 C 
BRANCH  23  24
ATOM     24  C   UNL     1       7.502   5.560  18.240  0.00  0.00    +0.000 C 
ATOM     25  C   UNL     1       7.382   4.625  17.036  0.00  0.00    +0.000 C 
ATOM     26  C   UNL     1       7.577   7.010  17.744  0.00  0.00    +0.000 C 
ENDBRANCH  23  24
ENDBRANCH  22  23
ENDBRANCH  21  22
ENDBRANCH   6  21
TORSDOF 7
ENDMDL
MODEL 4
REMARK VINA RESULT:      -7.7      1.120      1.223
REMARK  Name = 
REMARK  11 active torsions:
REMARK  status: ('A' for Active; 'I' for Inactive)
REMARK    1  A    between atoms: C_1  and  O_2
REMARK    2  A    between atoms: O_2  and  C_3
REMARK    3  A    between atoms: C_5  and  C_6
REMARK    4  A    between atoms: C_6  and  N_7
REMARK    5  A    between atoms: C_14  and  C_15
REMARK    6  A    between atoms: C_20  and  O_21
REMARK    7  A    between atoms: O_21  and  C_22
REMARK    8  A    between atoms: C_22  and  C_23
REMARK    9  A    between atoms: C_23  and  C_24
REMARK   10  A    between atoms: C_24  and  C_25
REMARK   11  A    between atoms: C_24  and  C_26
REMARK                            x       y       z     vdW  Elec       q    Type
REMARK                         _______ _______ _______ _____ _____    ______ ____
ROOT
ATOM      1  C   UNL     1       0.673   9.230  20.052  0.00  0.00    +0.000 A 
ATOM      2  C   UNL     1       1.488   8.081  20.212  0.00  0.00    +0.000 A 
ATOM      3  C   UNL     1       2.334   7.559  19.185  0.00  0.00    +0.000 A 
ATOM      4  C   UNL     1       2.190   8.143  17.926  0.00  0.00    +0.000 A 
ATOM      5  C   UNL     1       1.363   9.274  17.747  0.00  0.00    +0.000 A 
ATOM      6  C   UNL     1       0.661   9.871  18.810  0.00  0.00    +0.000 A 
ENDROOT
BRANCH   1   8
ATOM      7  C   UNL     1       0.245  10.810  21.829  0.00  0.00    +0.000 C 
ATOM      8  O   UNL     1      -0.165   9.721  21.015  0.00  0.00    +0.000 OA
ENDBRANCH   1   8
BRANCH   3   9
ATOM      9  C   UNL     1       2.974   6.190  19.397  0.00  0.00    +0.000 C 
BRANCH   9  10
ATOM     10  N   UNL     1       3.725   5.273  18.505  0.00  0.00    +0.000 N 
ATOM     11  C   UNL     1       4.211   4.291  19.435  0.00  0.00    +0.000 A 
ATOM     12  O   UNL     1       3.530   3.679  20.236  0.00  0.00    +0.000 OA
ATOM     13  O   UNL     1       5.602   4.236  19.507  0.00  0.00    +0.000 OA
ATOM     14  C   UNL     1       5.951   4.866  18.339  0.00  0.00    +0.000 A 
ATOM     15  C   UNL     1       7.163   4.513  17.751  0.00  0.00    +0.000 A 
ATOM     16  C   UNL     1       7.267   4.637  16.386  0.00  0.00    +0.000 A 
ATOM     17  C   UNL     1       6.173   5.114  15.640  0.00  0.00    +0.000 A 
ATOM     18  C   UNL     1       6.289   4.980  14.144  0.00  0.00    +0.000 C 
ATOM     19  C   UNL     1       4.985   5.589  16.311  0.00  0.00    +0.000 A 
ATOM     20  C   UNL     1       4.889   5.508  17.710  0.00  0.00    +0.000 A 
ENDBRANCH   9  10
ENDBRANCH   3   9
BRANCH   6  21
ATOM     21  O   UNL     1       0.005  11.021  18.448  0.00  0.00    +0.000 OA
BRANCH  21  22
ATOM     22  C   UNL     1      -1.430  11.099  18.406  0.00  0.00    +0.000 C 
BRANCH  22  23
ATOM     23  C   UNL     1      -2.095   9.884  17.741  0.00  0.00    +0.000 C 
BRANCH  23  24
ATOM     24  C   UNL     1      -3.287  10.220  16.816  0.00  0.00    +0.000 C 
ATOM     25  C   UNL     1      -4.222  11.279  17.401  0.00  0.00    +0.000 C 
ATOM     26  C   UNL     1      -2.772  10.700  15.453  0.00  0.00    +0.000 C 
ENDBRANCH  23  24
ENDBRANCH  22  23
ENDBRANCH  21  22
ENDBRANCH   6  21
TORSDOF 7
ENDMDL
MODEL 5
REMARK VINA RESULT:      -7.5      2.653      8.369
REMARK  Name = 
REMARK  11 active torsions:
REMARK  status: ('A' for Active; 'I' for Inactive)
REMARK    1  A    between atoms: C_1  and  O_2
REMARK    2  A    between atoms: O_2  and  C_3
REMARK    3  A    between atoms: C_5  and  C_6
REMARK    4  A    between atoms: C_6  and  N_7
REMARK    5  A    between atoms: C_14  and  C_15
REMARK    6  A    between atoms: C_20  and  O_21
REMARK    7  A    between atoms: O_21  and  C_22
REMARK    8  A    between atoms: C_22  and  C_23
REMARK    9  A    between atoms: C_23  and  C_24
REMARK   10  A    between atoms: C_24  and  C_25
REMARK   11  A    between atoms: C_24  and  C_26
REMARK                            x       y       z     vdW  Elec       q    Type
REMARK                         _______ _______ _______ _____ _____    ______ ____
ROOT
ATOM      1  C   UNL     1       2.976   7.102  18.314  0.00  0.00    +0.000 A 
ATOM      2  C   UNL     1       2.228   8.281  18.559  0.00  0.00    +0.000 A 
ATOM      3  C   UNL     1       1.517   8.531  19.774  0.00  0.00    +0.000 A 
ATOM      4  C   UNL     1       1.448   7.461  20.667  0.00  0.00    +0.000 A 
ATOM      5  C   UNL     1       2.170   6.272  20.423  0.00  0.00    +0.000 A 
ATOM      6  C   UNL     1       2.994   6.107  19.295  0.00  0.00    +0.000 A 
ENDROOT
BRANCH   1   8
ATOM      7  C   UNL     1       5.047   6.956  17.077  0.00  0.00    +0.000 C 
ATOM      8  O   UNL     1       3.634   6.835  17.144  0.00  0.00    +0.000 OA
ENDBRANCH   1   8
BRANCH   3   9
ATOM      9  C   UNL     1       0.561   9.719  19.824  0.00  0.00    +0.000 C 
BRANCH   9  10
ATOM     10  N   UNL     1      -0.156  10.488  18.777  0.00  0.00    +0.000 N 
ATOM     11  C   UNL     1      -0.357  11.752  19.428  0.00  0.00    +0.000 A 
ATOM     12  O   UNL     1       0.511  12.420  19.959  0.00  0.00    +0.000 OA
ATOM     13  O   UNL     1      -1.701  12.079  19.603  0.00  0.00    +0.000 OA
ATOM     14  C   UNL     1      -2.297  11.236  18.699  0.00  0.00    +0.000 A 
ATOM     15  C   UNL     1      -3.509  11.637  18.143  0.00  0.00    +0.000 A 
ATOM     16  C   UNL     1      -3.814  11.176  16.885  0.00  0.00    +0.000 A 
ATOM     17  C   UNL     1      -2.917  10.326  16.212  0.00  0.00    +0.000 A 
ATOM     18  C   UNL     1      -3.211  10.077  14.756  0.00  0.00    +0.000 C 
ATOM     19  C   UNL     1      -1.734   9.837  16.884  0.00  0.00    +0.000 A 
ATOM     20  C   UNL     1      -1.439  10.267  18.188  0.00  0.00    +0.000 A 
ENDBRANCH   9  10
ENDBRANCH   3   9
BRANCH   6  21
ATOM     21  O   UNL     1       3.692   4.925  19.302  0.00  0.00    +0.000 OA
BRANCH  21  22
ATOM     22  C   UNL     1       3.214   3.755  18.616  0.00  0.00    +0.000 C 
BRANCH  22  23
ATOM     23  C   UNL     1       3.114   2.512  19.513  0.00  0.00    +0.000 C 
BRANCH  23  24
ATOM     24  C   UNL     1       1.740   2.305  20.191  0.00  0.00    +0.000 C 
ATOM     25  C   UNL     1       1.694   2.828  21.627  0.00  0.00    +0.000 C 
ATOM     26  C   UNL     1       0.644   2.994  19.369  0.00  0.00    +0.000 C 
ENDBRANCH  23  24
ENDBRANCH  22  23
ENDBRANCH  21  22
ENDBRANCH   6  21
TORSDOF 7
ENDMDL
MODEL 6
REMARK VINA RESULT:      -7.5      2.469      4.226
REMARK  Name = 
REMARK  11 active torsions:
REMARK  status: ('A' for Active; 'I' for Inactive)
REMARK    1  A    between atoms: C_1  and  O_2
REMARK    2  A    between atoms: O_2  and  C_3
REMARK    3  A    between atoms: C_5  and  C_6
REMARK    4  A    between atoms: C_6  and  N_7
REMARK    5  A    between atoms: C_14  and  C_15
REMARK    6  A    between atoms: C_20  and  O_21
REMARK    7  A    between atoms: O_21  and  C_22
REMARK    8  A    between atoms: C_22  and  C_23
REMARK    9  A    between atoms: C_23  and  C_24
REMARK   10  A    between atoms: C_24  and  C_25
REMARK   11  A    between atoms: C_24  and  C_26
REMARK                            x       y       z     vdW  Elec       q    Type
REMARK                         _______ _______ _______ _____ _____    ______ ____
ROOT
ATOM      1  C   UNL     1       1.458  11.343  18.564  0.00  0.00    +0.000 A 
ATOM      2  C   UNL     1       2.086  10.176  18.060  0.00  0.00    +0.000 A 
ATOM      3  C   UNL     1       1.863   8.866  18.586  0.00  0.00    +0.000 A 
ATOM      4  C   UNL     1       1.111   8.803  19.759  0.00  0.00    +0.000 A 
ATOM      5  C   UNL     1       0.498   9.962  20.285  0.00  0.00    +0.000 A 
ATOM      6  C   UNL     1       0.600  11.219  19.660  0.00  0.00    +0.000 A 
ENDROOT
BRANCH   1   8
ATOM      7  C   UNL     1       2.725  13.398  18.651  0.00  0.00    +0.000 C 
ATOM      8  O   UNL     1       1.687  12.607  18.093  0.00  0.00    +0.000 OA
ENDBRANCH   1   8
BRANCH   3   9
ATOM      9  C   UNL     1       2.772   7.732  18.120  0.00  0.00    +0.000 C 
BRANCH   9  10
ATOM     10  N   UNL     1       3.093   6.396  18.678  0.00  0.00    +0.000 N 
ATOM     11  C   UNL     1       3.987   5.869  17.684  0.00  0.00    +0.000 A 
ATOM     12  O   UNL     1       4.981   6.429  17.261  0.00  0.00    +0.000 OA
ATOM     13  O   UNL     1       3.506   4.721  17.058  0.00  0.00    +0.000 OA
ATOM     14  C   UNL     1       2.543   4.319  17.948  0.00  0.00    +0.000 A 
ATOM     15  C   UNL     1       2.248   2.959  18.013  0.00  0.00    +0.000 A 
ATOM     16  C   UNL     1       1.788   2.465  19.210  0.00  0.00    +0.000 A 
ATOM     17  C   UNL     1       1.625   3.328  20.309  0.00  0.00    +0.000 A 
ATOM     18  C   UNL     1       1.361   2.663  21.635  0.00  0.00    +0.000 C 
ATOM     19  C   UNL     1       1.820   4.752  20.153  0.00  0.00    +0.000 A 
ATOM     20  C   UNL     1       2.246   5.270  18.919  0.00  0.00    +0.000 A 
ENDBRANCH   9  10
ENDBRANCH   3   9
BRANCH   6  21
ATOM     21  O   UNL     1      -0.156  12.189  20.269  0.00  0.00    +0.000 OA
BRANCH  21  22
ATOM     22  C   UNL     1      -1.559  12.345  19.994  0.00  0.00    +0.000 C 
BRANCH  22  23
ATOM     23  C   UNL     1      -1.930  12.101  18.523  0.00  0.00    +0.000 C 
BRANCH  23  24
ATOM     24  C   UNL     1      -2.601  10.738  18.238  0.00  0.00    +0.000 C 
ATOM     25  C   UNL     1      -4.061  10.867  17.799  0.00  0.00    +0.000 C 
ATOM     26  C   UNL     1      -1.815   9.986  17.156  0.00  0.00    +0.000 C 
ENDBRANCH  23  24
ENDBRANCH  22  23
ENDBRANCH  21  22
ENDBRANCH   6  21
TORSDOF 7
ENDMDL
MODEL 7
REMARK VINA RESULT:      -7.4      1.473      2.070
REMARK  Name = 
REMARK  11 active torsions:
REMARK  status: ('A' for Active; 'I' for Inactive)
REMARK    1  A    between atoms: C_1  and  O_2
REMARK    2  A    between atoms: O_2  and  C_3
REMARK    3  A    between atoms: C_5  and  C_6
REMARK    4  A    between atoms: C_6  and  N_7
REMARK    5  A    between atoms: C_14  and  C_15
REMARK    6  A    between atoms: C_20  and  O_21
REMARK    7  A    between atoms: O_21  and  C_22
REMARK    8  A    between atoms: C_22  and  C_23
REMARK    9  A    between atoms: C_23  and  C_24
REMARK   10  A    between atoms: C_24  and  C_25
REMARK   11  A    between atoms: C_24  and  C_26
REMARK                            x       y       z     vdW  Elec       q    Type
REMARK                         _______ _______ _______ _____ _____    ______ ____
ROOT
ATOM      1  C   UNL     1       1.459   8.225  20.672  0.00  0.00    +0.000 A 
ATOM      2  C   UNL     1       1.938   6.914  20.423  0.00  0.00    +0.000 A 
ATOM      3  C   UNL     1       2.479   6.492  19.169  0.00  0.00    +0.000 A 
ATOM      4  C   UNL     1       2.355   7.402  18.119  0.00  0.00    +0.000 A 
ATOM      5  C   UNL     1       1.858   8.704  18.348  0.00  0.00    +0.000 A 
ATOM      6  C   UNL     1       1.478   9.152  19.627  0.00  0.00    +0.000 A 
ENDROOT
BRANCH   1   8
ATOM      7  C   UNL     1      -0.499   8.594  22.039  0.00  0.00    +0.000 C 
ATOM      8  O   UNL     1       0.908   8.633  21.857  0.00  0.00    +0.000 OA
ENDBRANCH   1   8
BRANCH   3   9
ATOM      9  C   UNL     1       2.737   5.004  18.953  0.00  0.00    +0.000 C 
BRANCH   9  10
ATOM     10  N   UNL     1       3.755   4.254  18.177  0.00  0.00    +0.000 N 
ATOM     11  C   UNL     1       4.548   3.668  19.221  0.00  0.00    +0.000 A 
ATOM     12  O   UNL     1       4.118   3.010  20.150  0.00  0.00    +0.000 OA
ATOM     13  O   UNL     1       5.874   4.096  19.217  0.00  0.00    +0.000 OA
ATOM     14  C   UNL     1       5.985   4.597  17.944  0.00  0.00    +0.000 A 
ATOM     15  C   UNL     1       7.244   4.576  17.348  0.00  0.00    +0.000 A 
ATOM     16  C   UNL     1       7.296   4.491  15.977  0.00  0.00    +0.000 A 
ATOM     17  C   UNL     1       6.104   4.436  15.232  0.00  0.00    +0.000 A 
ATOM     18  C   UNL     1       6.255   4.094  13.773  0.00  0.00    +0.000 C 
ATOM     19  C   UNL     1       4.826   4.593  15.888  0.00  0.00    +0.000 A 
ATOM     20  C   UNL     1       4.767   4.726  17.286  0.00  0.00    +0.000 A 
ENDBRANCH   9  10
ENDBRANCH   3   9
BRANCH   6  21
ATOM     21  O   UNL     1       1.128  10.479  19.653  0.00  0.00    +0.000 OA
BRANCH  21  22
ATOM     22  C   UNL     1       1.192  11.306  18.480  0.00  0.00    +0.000 C 
BRANCH  22  23
ATOM     23  C   UNL     1       2.127  12.516  18.627  0.00  0.00    +0.000 C 
BRANCH  23  24
ATOM     24  C   UNL     1       1.442  13.815  19.109  0.00  0.00    +0.000 C 
ATOM     25  C   UNL     1       2.145  15.082  18.622  0.00  0.00    +0.000 C 
ATOM     26  C   UNL     1      -0.019  13.839  18.642  0.00  0.00    +0.000 C 
ENDBRANCH  23  24
ENDBRANCH  22  23
ENDBRANCH  21  22
ENDBRANCH   6  21
TORSDOF 7
ENDMDL
MODEL 8
REMARK VINA RESULT:      -7.4      1.933      2.644
REMARK  Name = 
REMARK  11 active torsions:
REMARK  status: ('A' for Active; 'I' for Inactive)
REMARK    1  A    between atoms: C_1  and  O_2
REMARK    2  A    between atoms: O_2  and  C_3
REMARK    3  A    between atoms: C_5  and  C_6
REMARK    4  A    between atoms: C_6  and  N_7
REMARK    5  A    between atoms: C_14  and  C_15
REMARK    6  A    between atoms: C_20  and  O_21
REMARK    7  A    between atoms: O_21  and  C_22
REMARK    8  A    between atoms: C_22  and  C_23
REMARK    9  A    between atoms: C_23  and  C_24
REMARK   10  A    between atoms: C_24  and  C_25
REMARK   11  A    between atoms: C_24  and  C_26
REMARK                            x       y       z     vdW  Elec       q    Type
REMARK                         _______ _______ _______ _____ _____    ______ ____
ROOT
ATOM      1  C   UNL     1       1.219   8.864  20.171  0.00  0.00    +0.000 A 
ATOM      2  C   UNL     1       1.800   7.571  20.160  0.00  0.00    +0.000 A 
ATOM      3  C   UNL     1       2.474   7.014  19.030  0.00  0.00    +0.000 A 
ATOM      4  C   UNL     1       2.385   7.750  17.848  0.00  0.00    +0.000 A 
ATOM      5  C   UNL     1       1.787   9.030  17.839  0.00  0.00    +0.000 A 
ATOM      6  C   UNL     1       1.270   9.629  19.003  0.00  0.00    +0.000 A 
ENDROOT
BRANCH   1   8
ATOM      7  C   UNL     1       1.094   9.319  22.541  0.00  0.00    +0.000 C 
ATOM      8  O   UNL     1       0.543   9.397  21.235  0.00  0.00    +0.000 OA
ENDBRANCH   1   8
BRANCH   3   9
ATOM      9  C   UNL     1       2.844   5.534  19.061  0.00  0.00    +0.000 C 
BRANCH   9  10
ATOM     10  N   UNL     1       3.795   4.710  18.275  0.00  0.00    +0.000 N 
ATOM     11  C   UNL     1       4.421   3.925  19.302  0.00  0.00    +0.000 A 
ATOM     12  O   UNL     1       3.838   3.261  20.139  0.00  0.00    +0.000 OA
ATOM     13  O   UNL     1       5.792   4.149  19.413  0.00  0.00    +0.000 OA
ATOM     14  C   UNL     1       6.062   4.735  18.203  0.00  0.00    +0.000 A 
ATOM     15  C   UNL     1       7.343   4.578  17.679  0.00  0.00    +0.000 A 
ATOM     16  C   UNL     1       7.478   4.604  16.312  0.00  0.00    +0.000 A 
ATOM     17  C   UNL     1       6.346   4.792  15.498  0.00  0.00    +0.000 A 
ATOM     18  C   UNL     1       6.547   4.558  14.024  0.00  0.00    +0.000 C 
ATOM     19  C   UNL     1       5.061   5.080  16.094  0.00  0.00    +0.000 A 
ATOM     20  C   UNL     1       4.924   5.101  17.492  0.00  0.00    +0.000 A 
ENDBRANCH   9  10
ENDBRANCH   3   9
BRANCH   6  21
ATOM     21  O   UNL     1       0.835  10.915  18.802  0.00  0.00    +0.000 OA
BRANCH  21  22
ATOM     22  C   UNL     1       1.578  12.052  19.272  0.00  0.00    +0.000 C 
BRANCH  22  23
ATOM     23  C   UNL     1       2.085  12.967  18.147  0.00  0.00    +0.000 C 
BRANCH  23  24
ATOM     24  C   UNL     1       2.452  14.402  18.589  0.00  0.00    +0.000 C 
ATOM     25  C   UNL     1       2.457  14.581  20.108  0.00  0.00    +0.000 C 
ATOM     26  C   UNL     1       3.831  14.782  18.034  0.00  0.00    +0.000 C 
ENDBRANCH  23  24
ENDBRANCH  22  23
ENDBRANCH  21  22
ENDBRANCH   6  21
TORSDOF 7
ENDMDL
MODEL 9
REMARK VINA RESULT:      -7.3      1.857      3.217
REMARK  Name = 
REMARK  11 active torsions:
REMARK  status: ('A' for Active; 'I' for Inactive)
REMARK    1  A    between atoms: C_1  and  O_2
REMARK    2  A    between atoms: O_2  and  C_3
REMARK    3  A    between atoms: C_5  and  C_6
REMARK    4  A    between atoms: C_6  and  N_7
REMARK    5  A    between atoms: C_14  and  C_15
REMARK    6  A    between atoms: C_20  and  O_21
REMARK    7  A    between atoms: O_21  and  C_22
REMARK    8  A    between atoms: C_22  and  C_23
REMARK    9  A    between atoms: C_23  and  C_24
REMARK   10  A    between atoms: C_24  and  C_25
REMARK   11  A    between atoms: C_24  and  C_26
REMARK                            x       y       z     vdW  Elec       q    Type
REMARK                         _______ _______ _______ _____ _____    ______ ____
ROOT
ATOM      1  C   UNL     1       2.734   6.005  19.267  0.00  0.00    +0.000 A 
ATOM      2  C   UNL     1       3.628   4.990  18.841  0.00  0.00    +0.000 A 
ATOM      3  C   UNL     1       4.573   5.159  17.783  0.00  0.00    +0.000 A 
ATOM      4  C   UNL     1       4.460   6.342  17.051  0.00  0.00    +0.000 A 
ATOM      5  C   UNL     1       3.557   7.352  17.451  0.00  0.00    +0.000 A 
ATOM      6  C   UNL     1       2.746   7.230  18.594  0.00  0.00    +0.000 A 
ENDROOT
BRANCH   1   8
ATOM      7  C   UNL     1       1.587   4.569  20.835  0.00  0.00    +0.000 C 
ATOM      8  O   UNL     1       1.802   5.847  20.257  0.00  0.00    +0.000 OA
ENDBRANCH   1   8
BRANCH   3   9
ATOM      9  C   UNL     1       5.308   3.927  17.262  0.00  0.00    +0.000 C 
BRANCH   9  10
ATOM     10  N   UNL     1       6.261   3.712  16.146  0.00  0.00    +0.000 N 
ATOM     11  C   UNL     1       7.376   4.521  16.552  0.00  0.00    +0.000 A 
ATOM     12  O   UNL     1       7.932   4.467  17.634  0.00  0.00    +0.000 OA
ATOM     13  O   UNL     1       7.658   5.561  15.669  0.00  0.00    +0.000 OA
ATOM     14  C   UNL     1       7.003   5.134  14.541  0.00  0.00    +0.000 A 
ATOM     15  C   UNL     1       7.499   5.551  13.308  0.00  0.00    +0.000 A 
ATOM     16  C   UNL     1       7.288   4.727  12.228  0.00  0.00    +0.000 A 
ATOM     17  C   UNL     1       6.587   3.518  12.393  0.00  0.00    +0.000 A 
ATOM     18  C   UNL     1       6.622   2.572  11.222  0.00  0.00    +0.000 C 
ATOM     19  C   UNL     1       5.982   3.195  13.665  0.00  0.00    +0.000 A 
ATOM     20  C   UNL     1       6.154   4.055  14.763  0.00  0.00    +0.000 A 
ENDBRANCH   9  10
ENDBRANCH   3   9
BRANCH   6  21
ATOM     21  O   UNL     1       2.023   8.364  18.868  0.00  0.00    +0.000 OA
BRANCH  21  22
ATOM     22  C   UNL     1       1.763   9.362  17.866  0.00  0.00    +0.000 C 
BRANCH  22  23
ATOM     23  C   UNL     1       1.341  10.721  18.443  0.00  0.00    +0.000 C 
BRANCH  23  24
ATOM     24  C   UNL     1      -0.177  10.881  18.692  0.00  0.00    +0.000 C 
ATOM     25  C   UNL     1      -1.033  10.037  17.748  0.00  0.00    +0.000 C 
ATOM     26  C   UNL     1      -0.510  10.508  20.142  0.00  0.00    +0.000 C 
ENDBRANCH  23  24
ENDBRANCH  22  23
ENDBRANCH  21  22
ENDBRANCH   6  21
TORSDOF 7
ENDMDL
