MODEL 1
REMARK VINA RESULT:      -6.5      0.000      0.000
REMARK  Name = 
REMARK  6 active torsions:
REMARK  status: ('A' for Active; 'I' for Inactive)
REMARK    1  A    between atoms: C_1  and  N_2
REMARK    2  A    between atoms: C_4  and  C_5
REMARK    3  A    between atoms: C_12  and  O_13
REMARK    4  A    between atoms: C_18  and  N_19
REMARK    5  A    between atoms: C_22  and  C_23
REMARK    6  A    between atoms: C_23  and  N_24
REMARK                            x       y       z     vdW  Elec       q    Type
REMARK                         _______ _______ _______ _____ _____    ______ ____
ROOT
ATOM      1  C   UNL     1       0.632  11.697  19.036  0.00  0.00    +0.000 C 
ATOM      2  N   UNL     1       1.299  10.426  18.878  0.00  0.00    +0.000 N 
ATOM      3  C   UNL     1       2.157  10.099  17.868  0.00  0.00    +0.000 A 
ATOM      4  C   UNL     1       2.522   8.779  18.043  0.00  0.00    +0.000 A 
ATOM      5  C   UNL     1       1.836   8.259  19.202  0.00  0.00    +0.000 A 
ATOM      6  C   UNL     1       1.703   7.018  19.903  0.00  0.00    +0.000 A 
ATOM      7  C   UNL     1       0.882   7.058  21.053  0.00  0.00    +0.000 A 
ATOM      8  C   UNL     1       0.226   8.217  21.429  0.00  0.00    +0.000 A 
ATOM      9  N   UNL     1       0.306   9.390  20.787  0.00  0.00    +0.000 NA
ATOM     10  C   UNL     1       1.110   9.351  19.704  0.00  0.00    +0.000 A 
ENDROOT
BRANCH   4  11
ATOM     11  C   UNL     1       3.314   8.109  17.071  0.00  0.00    +0.000 C 
ATOM     12  C   UNL     1       4.373   7.313  17.259  0.00  0.00    +0.000 C 
ATOM     13  O   UNL     1       4.992   6.954  18.442  0.00  0.00    +0.000 OA
ATOM     14  C   UNL     1       6.013   6.094  18.081  0.00  0.00    +0.000 A 
ATOM     15  C   UNL     1       6.915   5.505  18.945  0.00  0.00    +0.000 A 
ATOM     16  C   UNL     1       7.886   4.656  18.398  0.00  0.00    +0.000 A 
ATOM     17  C   UNL     1       7.937   4.404  17.011  0.00  0.00    +0.000 A 
ATOM     18  C   UNL     1       7.019   5.012  16.156  0.00  0.00    +0.000 A 
ATOM     19  C   UNL     1       6.079   5.858  16.708  0.00  0.00    +0.000 A 
ATOM     20  C   UNL     1       5.023   6.648  16.091  0.00  0.00    +0.000 C 
ATOM     21  O   UNL     1       4.727   6.755  14.921  0.00  0.00    +0.000 OA
BRANCH  18  22
ATOM     22  O   UNL     1       7.046   4.778  14.816  0.00  0.00    +0.000 OA
ATOM     23  H   UNL     1       6.253   5.147  14.396  0.00  0.00    +0.000 HD
ENDBRANCH  18  22
ENDBRANCH   4  11
BRANCH   6  24
ATOM     24  N   UNL     1       2.199   5.758  19.540  0.00  0.00    +0.000 N 
ATOM     25  C   UNL     1       2.721   4.857  20.558  0.00  0.00    +0.000 C 
ATOM     26  C   UNL     1       3.873   4.056  19.965  0.00  0.00    +0.000 C 
ATOM     27  C   UNL     1       3.435   3.281  18.709  0.00  0.00    +0.000 C 
ATOM     28  C   UNL     1       2.807   4.265  17.701  0.00  0.00    +0.000 C 
ATOM     29  C   UNL     1       1.697   5.129  18.316  0.00  0.00    +0.000 C 
BRANCH  27  30
ATOM     30  C   UNL     1       2.471   2.119  19.020  0.00  0.00    +0.000 C 
BRANCH  30  31
ATOM     31  N   UNL     1       1.747   1.695  17.830  0.00  0.00    +0.000 NA
ATOM     32  H   UNL     1       2.240   0.933  17.367  0.00  0.00    +0.000 HD
ATOM     33  H   UNL     1       1.687   2.461  17.162  0.00  0.00    +0.000 HD
ENDBRANCH  30  31
ENDBRANCH  27  30
ENDBRANCH   6  24
TORSDOF 5
ENDMDL
MODEL 2
REMARK VINA RESULT:      -6.5      7.423      9.589
REMARK  Name = 
REMARK  6 active torsions:
REMARK  status: ('A' for Active; 'I' for Inactive)
REMARK    1  A    between atoms: C_1  and  N_2
REMARK    2  A    between atoms: C_4  and  C_5
REMARK    3  A    between atoms: C_12  and  O_13
REMARK    4  A    between atoms: C_18  and  N_19
REMARK    5  A    between atoms: C_22  and  C_23
REMARK    6  A    between atoms: C_23  and  N_24
REMARK                            x       y       z     vdW  Elec       q    Type
REMARK                         _______ _______ _______ _____ _____    ______ ____
ROOT
ATOM      1  C   UNL     1      -3.268   9.726  15.633  0.00  0.00    +0.000 C 
ATOM      2  N   UNL     1      -2.906  10.475  16.813  0.00  0.00    +0.000 N 
ATOM      3  C   UNL     1      -1.662  10.525  17.373  0.00  0.00    +0.000 A 
ATOM      4  C   UNL     1      -1.751  11.292  18.517  0.00  0.00    +0.000 A 
ATOM      5  C   UNL     1      -3.121  11.715  18.686  0.00  0.00    +0.000 A 
ATOM      6  C   UNL     1      -3.909  12.448  19.630  0.00  0.00    +0.000 A 
ATOM      7  C   UNL     1      -5.273  12.601  19.289  0.00  0.00    +0.000 A 
ATOM      8  C   UNL     1      -5.796  12.033  18.140  0.00  0.00    +0.000 A 
ATOM      9  N   UNL     1      -5.097  11.321  17.247  0.00  0.00    +0.000 NA
ATOM     10  C   UNL     1      -3.792  11.200  17.565  0.00  0.00    +0.000 A 
ENDROOT
BRANCH   4  11
ATOM     11  C   UNL     1      -0.638  11.424  19.392  0.00  0.00    +0.000 C 
ATOM     12  C   UNL     1       0.306  12.373  19.408  0.00  0.00    +0.000 C 
ATOM     13  O   UNL     1       0.463  13.458  18.566  0.00  0.00    +0.000 OA
ATOM     14  C   UNL     1       1.573  14.135  19.035  0.00  0.00    +0.000 A 
ATOM     15  C   UNL     1       2.117  15.276  18.480  0.00  0.00    +0.000 A 
ATOM     16  C   UNL     1       3.248  15.828  19.095  0.00  0.00    +0.000 A 
ATOM     17  C   UNL     1       3.808  15.245  20.250  0.00  0.00    +0.000 A 
ATOM     18  C   UNL     1       3.245  14.091  20.794  0.00  0.00    +0.000 A 
ATOM     19  C   UNL     1       2.141  13.550  20.167  0.00  0.00    +0.000 A 
ATOM     20  C   UNL     1       1.357  12.361  20.468  0.00  0.00    +0.000 C 
ATOM     21  O   UNL     1       1.504  11.547  21.354  0.00  0.00    +0.000 OA
BRANCH  18  22
ATOM     22  O   UNL     1       3.765  13.515  21.911  0.00  0.00    +0.000 OA
ATOM     23  H   UNL     1       3.970  14.193  22.574  0.00  0.00    +0.000 HD
ENDBRANCH  18  22
ENDBRANCH   4  11
BRANCH   6  24
ATOM     24  N   UNL     1      -3.525  12.943  20.884  0.00  0.00    +0.000 N 
ATOM     25  C   UNL     1      -2.596  14.060  20.977  0.00  0.00    +0.000 C 
ATOM     26  C   UNL     1      -1.727  13.878  22.214  0.00  0.00    +0.000 C 
ATOM     27  C   UNL     1      -2.579  13.756  23.491  0.00  0.00    +0.000 C 
ATOM     28  C   UNL     1      -3.605  12.620  23.306  0.00  0.00    +0.000 C 
ATOM     29  C   UNL     1      -4.431  12.758  22.021  0.00  0.00    +0.000 C 
BRANCH  27  30
ATOM     30  C   UNL     1      -3.277  15.073  23.881  0.00  0.00    +0.000 C 
BRANCH  30  31
ATOM     31  N   UNL     1      -4.204  14.876  24.986  0.00  0.00    +0.000 NA
ATOM     32  H   UNL     1      -5.069  14.454  24.652  0.00  0.00    +0.000 HD
ATOM     33  H   UNL     1      -4.452  15.772  25.403  0.00  0.00    +0.000 HD
ENDBRANCH  30  31
ENDBRANCH  27  30
ENDBRANCH   6  24
TORSDOF 5
ENDMDL
MODEL 3
REMARK VINA RESULT:      -6.5      2.739      6.608
REMARK  Name = 
REMARK  6 active torsions:
REMARK  status: ('A' for Active; 'I' for Inactive)
REMARK    1  A    between atoms: C_1  and  N_2
REMARK    2  A    between atoms: C_4  and  C_5
REMARK    3  A    between atoms: C_12  and  O_13
REMARK    4  A    between atoms: C_18  and  N_19
REMARK    5  A    between atoms: C_22  and  C_23
REMARK    6  A    between atoms: C_23  and  N_24
REMARK                            x       y       z     vdW  Elec       q    Type
REMARK                         _______ _______ _______ _____ _____    ______ ____
ROOT
ATOM      1  C   UNL     1       1.082   2.835  22.201  0.00  0.00    +0.000 C 
ATOM      2  N   UNL     1       1.861   3.627  21.278  0.00  0.00    +0.000 N 
ATOM      3  C   UNL     1       1.530   4.869  20.821  0.00  0.00    +0.000 A 
ATOM      4  C   UNL     1       2.497   5.249  19.912  0.00  0.00    +0.000 A 
ATOM      5  C   UNL     1       3.458   4.180  19.783  0.00  0.00    +0.000 A 
ATOM      6  C   UNL     1       4.630   3.877  19.019  0.00  0.00    +0.000 A 
ATOM      7  C   UNL     1       5.237   2.634  19.312  0.00  0.00    +0.000 A 
ATOM      8  C   UNL     1       4.692   1.768  20.243  0.00  0.00    +0.000 A 
ATOM      9  N   UNL     1       3.585   2.004  20.958  0.00  0.00    +0.000 NA
ATOM     10  C   UNL     1       3.024   3.202  20.692  0.00  0.00    +0.000 A 
ENDROOT
BRANCH   4  11
ATOM     11  C   UNL     1       2.359   6.451  19.164  0.00  0.00    +0.000 C 
ATOM     12  C   UNL     1       1.849   7.626  19.555  0.00  0.00    +0.000 C 
ATOM     13  O   UNL     1       1.300   7.973  20.775  0.00  0.00    +0.000 OA
ATOM     14  C   UNL     1       0.956   9.307  20.661  0.00  0.00    +0.000 A 
ATOM     15  C   UNL     1       0.348  10.070  21.638  0.00  0.00    +0.000 A 
ATOM     16  C   UNL     1       0.075  11.412  21.346  0.00  0.00    +0.000 A 
ATOM     17  C   UNL     1       0.417  11.970  20.097  0.00  0.00    +0.000 A 
ATOM     18  C   UNL     1       1.028  11.182  19.122  0.00  0.00    +0.000 A 
ATOM     19  C   UNL     1       1.276   9.857  19.421  0.00  0.00    +0.000 A 
ATOM     20  C   UNL     1       1.864   8.792  18.623  0.00  0.00    +0.000 C 
ATOM     21  O   UNL     1       2.271   8.820  17.482  0.00  0.00    +0.000 OA
BRANCH  18  22
ATOM     22  O   UNL     1       1.372  11.701  17.913  0.00  0.00    +0.000 OA
ATOM     23  H   UNL     1       1.919  11.069  17.421  0.00  0.00    +0.000 HD
ENDBRANCH  18  22
ENDBRANCH   4  11
BRANCH   6  24
ATOM     24  N   UNL     1       5.189   4.605  17.960  0.00  0.00    +0.000 N 
ATOM     25  C   UNL     1       6.606   4.472  17.650  0.00  0.00    +0.000 C 
ATOM     26  C   UNL     1       7.130   5.814  17.153  0.00  0.00    +0.000 C 
ATOM     27  C   UNL     1       6.337   6.313  15.932  0.00  0.00    +0.000 C 
ATOM     28  C   UNL     1       4.836   6.349  16.283  0.00  0.00    +0.000 C 
ATOM     29  C   UNL     1       4.321   5.022  16.856  0.00  0.00    +0.000 C 
BRANCH  27  30
ATOM     30  C   UNL     1       6.588   5.475  14.663  0.00  0.00    +0.000 C 
BRANCH  30  31
ATOM     31  N   UNL     1       7.985   5.528  14.258  0.00  0.00    +0.000 NA
ATOM     32  H   UNL     1       8.348   4.587  14.111  0.00  0.00    +0.000 HD
ATOM     33  H   UNL     1       8.549   5.954  14.990  0.00  0.00    +0.000 HD
ENDBRANCH  30  31
ENDBRANCH  27  30
ENDBRANCH   6  24
TORSDOF 5
ENDMDL
MODEL 4
REMARK VINA RESULT:      -6.4      4.049      7.062
REMARK  Name = 
REMARK  6 active torsions:
REMARK  status: ('A' for Active; 'I' for Inactive)
REMARK    1  A    between atoms: C_1  and  N_2
REMARK    2  A    between atoms: C_4  and  C_5
REMARK    3  A    between atoms: C_12  and  O_13
REMARK    4  A    between atoms: C_18  and  N_19
REMARK    5  A    between atoms: C_22  and  C_23
REMARK    6  A    between atoms: C_23  and  N_24
REMARK                            x       y       z     vdW  Elec       q    Type
REMARK                         _______ _______ _______ _____ _____    ______ ____
ROOT
ATOM      1  C   UNL     1      -1.199  14.392  23.770  0.00  0.00    +0.000 C 
ATOM      2  N   UNL     1      -1.263  13.527  22.616  0.00  0.00    +0.000 N 
ATOM      3  C   UNL     1      -0.197  12.920  22.017  0.00  0.00    +0.000 A 
ATOM      4  C   UNL     1      -0.672  12.238  20.914  0.00  0.00    +0.000 A 
ATOM      5  C   UNL     1      -2.095  12.456  20.813  0.00  0.00    +0.000 A 
ATOM      6  C   UNL     1      -3.172  12.118  19.932  0.00  0.00    +0.000 A 
ATOM      7  C   UNL     1      -4.445  12.589  20.326  0.00  0.00    +0.000 A 
ATOM      8  C   UNL     1      -4.607  13.360  21.464  0.00  0.00    +0.000 A 
ATOM      9  N   UNL     1      -3.622  13.718  22.298  0.00  0.00    +0.000 NA
ATOM     10  C   UNL     1      -2.414  13.245  21.929  0.00  0.00    +0.000 A 
ENDROOT
BRANCH   4  11
ATOM     11  C   UNL     1       0.225  11.607  20.009  0.00  0.00    +0.000 C 
ATOM     12  C   UNL     1       0.685  10.350  20.028  0.00  0.00    +0.000 C 
ATOM     13  O   UNL     1       0.434   9.345  20.944  0.00  0.00    +0.000 OA
ATOM     14  C   UNL     1       1.128   8.242  20.483  0.00  0.00    +0.000 A 
ATOM     15  C   UNL     1       1.185   7.009  21.102  0.00  0.00    +0.000 A 
ATOM     16  C   UNL     1       1.940   6.002  20.487  0.00  0.00    +0.000 A 
ATOM     17  C   UNL     1       2.613   6.235  19.270  0.00  0.00    +0.000 A 
ATOM     18  C   UNL     1       2.546   7.488  18.663  0.00  0.00    +0.000 A 
ATOM     19  C   UNL     1       1.811   8.475  19.290  0.00  0.00    +0.000 A 
ATOM     20  C   UNL     1       1.574   9.865  18.930  0.00  0.00    +0.000 C 
ATOM     21  O   UNL     1       1.985  10.495  17.980  0.00  0.00    +0.000 OA
BRANCH  18  22
ATOM     22  O   UNL     1       3.182   7.735  17.486  0.00  0.00    +0.000 OA
ATOM     23  H   UNL     1       2.572   8.150  16.856  0.00  0.00    +0.000 HD
ENDBRANCH  18  22
ENDBRANCH   4  11
BRANCH   6  24
ATOM     24  N   UNL     1      -3.109  11.470  18.691  0.00  0.00    +0.000 N 
ATOM     25  C   UNL     1      -4.321  10.943  18.078  0.00  0.00    +0.000 C 
ATOM     26  C   UNL     1      -3.975   9.672  17.313  0.00  0.00    +0.000 C 
ATOM     27  C   UNL     1      -2.884   9.928  16.257  0.00  0.00    +0.000 C 
ATOM     28  C   UNL     1      -1.659  10.568  16.941  0.00  0.00    +0.000 C 
ATOM     29  C   UNL     1      -2.014  11.804  17.776  0.00  0.00    +0.000 C 
BRANCH  27  30
ATOM     30  C   UNL     1      -3.372  10.791  15.078  0.00  0.00    +0.000 C 
BRANCH  30  31
ATOM     31  N   UNL     1      -4.170  10.012  14.142  0.00  0.00    +0.000 NA
ATOM     32  H   UNL     1      -4.105   9.019  14.361  0.00  0.00    +0.000 HD
ATOM     33  H   UNL     1      -3.820  10.131  13.194  0.00  0.00    +0.000 HD
ENDBRANCH  30  31
ENDBRANCH  27  30
ENDBRANCH   6  24
TORSDOF 5
ENDMDL
MODEL 5
REMARK VINA RESULT:      -6.1      5.978      9.619
REMARK  Name = 
REMARK  6 active torsions:
REMARK  status: ('A' for Active; 'I' for Inactive)
REMARK    1  A    between atoms: C_1  and  N_2
REMARK    2  A    between atoms: C_4  and  C_5
REMARK    3  A    between atoms: C_12  and  O_13
REMARK    4  A    between atoms: C_18  and  N_19
REMARK    5  A    between atoms: C_22  and  C_23
REMARK    6  A    between atoms: C_23  and  N_24
REMARK                            x       y       z     vdW  Elec       q    Type
REMARK                         _______ _______ _______ _____ _____    ______ ____
ROOT
ATOM      1  C   UNL     1      -6.353  14.659  23.584  0.00  0.00    +0.000 C 
ATOM      2  N   UNL     1      -5.077  14.305  23.007  0.00  0.00    +0.000 N 
ATOM      3  C   UNL     1      -4.379  13.161  23.264  0.00  0.00    +0.000 A 
ATOM      4  C   UNL     1      -3.188  13.236  22.570  0.00  0.00    +0.000 A 
ATOM      5  C   UNL     1      -3.137  14.499  21.873  0.00  0.00    +0.000 A 
ATOM      6  C   UNL     1      -2.226  15.233  21.049  0.00  0.00    +0.000 A 
ATOM      7  C   UNL     1      -2.703  16.480  20.583  0.00  0.00    +0.000 A 
ATOM      8  C   UNL     1      -3.949  16.956  20.949  0.00  0.00    +0.000 A 
ATOM      9  N   UNL     1      -4.819  16.311  21.737  0.00  0.00    +0.000 NA
ATOM     10  C   UNL     1      -4.367  15.111  22.158  0.00  0.00    +0.000 A 
ENDROOT
BRANCH   4  11
ATOM     11  C   UNL     1      -2.185  12.242  22.739  0.00  0.00    +0.000 C 
ATOM     12  C   UNL     1      -1.500  11.576  21.801  0.00  0.00    +0.000 C 
ATOM     13  O   UNL     1      -1.605  11.659  20.425  0.00  0.00    +0.000 OA
ATOM     14  C   UNL     1      -0.655  10.787  19.927  0.00  0.00    +0.000 A 
ATOM     15  C   UNL     1      -0.420  10.525  18.592  0.00  0.00    +0.000 A 
ATOM     16  C   UNL     1       0.590   9.609  18.272  0.00  0.00    +0.000 A 
ATOM     17  C   UNL     1       1.350   8.980  19.280  0.00  0.00    +0.000 A 
ATOM     18  C   UNL     1       1.095   9.255  20.622  0.00  0.00    +0.000 A 
ATOM     19  C   UNL     1       0.085  10.148  20.922  0.00  0.00    +0.000 A 
ATOM     20  C   UNL     1      -0.431  10.615  22.200  0.00  0.00    +0.000 C 
ATOM     21  O   UNL     1      -0.091  10.311  23.323  0.00  0.00    +0.000 OA
BRANCH  18  22
ATOM     22  O   UNL     1       1.820   8.665  21.611  0.00  0.00    +0.000 OA
ATOM     23  H   UNL     1       1.251   8.085  22.142  0.00  0.00    +0.000 HD
ENDBRANCH  18  22
ENDBRANCH   4  11
BRANCH   6  24
ATOM     24  N   UNL     1      -0.897  14.921  20.730  0.00  0.00    +0.000 N 
ATOM     25  C   UNL     1      -0.406  15.114  19.373  0.00  0.00    +0.000 C 
ATOM     26  C   UNL     1       0.615  14.027  19.057  0.00  0.00    +0.000 C 
ATOM     27  C   UNL     1       1.772  14.026  20.073  0.00  0.00    +0.000 C 
ATOM     28  C   UNL     1       1.194  13.911  21.498  0.00  0.00    +0.000 C 
ATOM     29  C   UNL     1       0.110  14.956  21.794  0.00  0.00    +0.000 C 
BRANCH  27  30
ATOM     30  C   UNL     1       2.689  15.258  19.947  0.00  0.00    +0.000 C 
BRANCH  30  31
ATOM     31  N   UNL     1       3.758  15.230  20.935  0.00  0.00    +0.000 NA
ATOM     32  H   UNL     1       4.584  14.775  20.551  0.00  0.00    +0.000 HD
ATOM     33  H   UNL     1       3.472  14.689  21.749  0.00  0.00    +0.000 HD
ENDBRANCH  30  31
ENDBRANCH  27  30
ENDBRANCH   6  24
TORSDOF 5
ENDMDL
MODEL 6
REMARK VINA RESULT:      -6.1      7.828     10.070
REMARK  Name = 
REMARK  6 active torsions:
REMARK  status: ('A' for Active; 'I' for Inactive)
REMARK    1  A    between atoms: C_1  and  N_2
REMARK    2  A    between atoms: C_4  and  C_5
REMARK    3  A    between atoms: C_12  and  O_13
REMARK    4  A    between atoms: C_18  and  N_19
REMARK    5  A    between atoms: C_22  and  C_23
REMARK    6  A    between atoms: C_23  and  N_24
REMARK                            x       y       z     vdW  Elec       q    Type
REMARK                         _______ _______ _______ _____ _____    ______ ____
ROOT
ATOM      1  C   UNL     1      -3.040   9.988  15.925  0.00  0.00    +0.000 C 
ATOM      2  N   UNL     1      -2.963  10.821  17.102  0.00  0.00    +0.000 N 
ATOM      3  C   UNL     1      -1.826  11.108  17.800  0.00  0.00    +0.000 A 
ATOM      4  C   UNL     1      -2.188  11.875  18.889  0.00  0.00    +0.000 A 
ATOM      5  C   UNL     1      -3.620  12.049  18.877  0.00  0.00    +0.000 A 
ATOM      6  C   UNL     1      -4.634  12.653  19.687  0.00  0.00    +0.000 A 
ATOM      7  C   UNL     1      -5.951  12.550  19.183  0.00  0.00    +0.000 A 
ATOM      8  C   UNL     1      -6.222  11.868  18.009  0.00  0.00    +0.000 A 
ATOM      9  N   UNL     1      -5.305  11.270  17.238  0.00  0.00    +0.000 NA
ATOM     10  C   UNL     1      -4.048  11.393  17.711  0.00  0.00    +0.000 A 
ENDROOT
BRANCH   4  11
ATOM     11  C   UNL     1      -1.231  12.227  19.880  0.00  0.00    +0.000 C 
ATOM     12  C   UNL     1      -0.025  12.785  19.718  0.00  0.00    +0.000 C 
ATOM     13  O   UNL     1       0.619  13.142  18.547  0.00  0.00    +0.000 OA
ATOM     14  C   UNL     1       1.820  13.701  18.940  0.00  0.00    +0.000 A 
ATOM     15  C   UNL     1       2.803  14.178  18.095  0.00  0.00    +0.000 A 
ATOM     16  C   UNL     1       3.959  14.716  18.673  0.00  0.00    +0.000 A 
ATOM     17  C   UNL     1       4.114  14.777  20.074  0.00  0.00    +0.000 A 
ATOM     18  C   UNL     1       3.112  14.287  20.910  0.00  0.00    +0.000 A 
ATOM     19  C   UNL     1       1.985  13.745  20.324  0.00  0.00    +0.000 A 
ATOM     20  C   UNL     1       0.799  13.139  20.911  0.00  0.00    +0.000 C 
ATOM     21  O   UNL     1       0.527  12.957  22.078  0.00  0.00    +0.000 OA
BRANCH  18  22
ATOM     22  O   UNL     1       3.237  14.341  22.264  0.00  0.00    +0.000 OA
ATOM     23  H   UNL     1       2.738  13.618  22.675  0.00  0.00    +0.000 HD
ENDBRANCH  18  22
ENDBRANCH   4  11
BRANCH   6  24
ATOM     24  N   UNL     1      -4.501  13.241  20.953  0.00  0.00    +0.000 N 
ATOM     25  C   UNL     1      -3.903  14.562  21.086  0.00  0.00    +0.000 C 
ATOM     26  C   UNL     1      -3.125  14.622  22.394  0.00  0.00    +0.000 C 
ATOM     27  C   UNL     1      -4.023  14.293  23.601  0.00  0.00    +0.000 C 
ATOM     28  C   UNL     1      -4.701  12.928  23.369  0.00  0.00    +0.000 C 
ATOM     29  C   UNL     1      -5.421  12.836  22.018  0.00  0.00    +0.000 C 
BRANCH  27  30
ATOM     30  C   UNL     1      -5.068  15.387  23.895  0.00  0.00    +0.000 C 
BRANCH  30  31
ATOM     31  N   UNL     1      -4.649  16.242  24.995  0.00  0.00    +0.000 NA
ATOM     32  H   UNL     1      -4.561  17.207  24.681  0.00  0.00    +0.000 HD
ATOM     33  H   UNL     1      -3.733  15.956  25.336  0.00  0.00    +0.000 HD
ENDBRANCH  30  31
ENDBRANCH  27  30
ENDBRANCH   6  24
TORSDOF 5
ENDMDL
MODEL 7
REMARK VINA RESULT:      -6.0      8.706      9.956
REMARK  Name = 
REMARK  6 active torsions:
REMARK  status: ('A' for Active; 'I' for Inactive)
REMARK    1  A    between atoms: C_1  and  N_2
REMARK    2  A    between atoms: C_4  and  C_5
REMARK    3  A    between atoms: C_12  and  O_13
REMARK    4  A    between atoms: C_18  and  N_19
REMARK    5  A    between atoms: C_22  and  C_23
REMARK    6  A    between atoms: C_23  and  N_24
REMARK                            x       y       z     vdW  Elec       q    Type
REMARK                         _______ _______ _______ _____ _____    ______ ____
ROOT
ATOM      1  C   UNL     1       2.354  17.041  17.603  0.00  0.00    +0.000 C 
ATOM      2  N   UNL     1       3.617  16.533  18.083  0.00  0.00    +0.000 N 
ATOM      3  C   UNL     1       4.366  15.565  17.480  0.00  0.00    +0.000 A 
ATOM      4  C   UNL     1       5.460  15.322  18.286  0.00  0.00    +0.000 A 
ATOM      5  C   UNL     1       5.368  16.162  19.456  0.00  0.00    +0.000 A 
ATOM      6  C   UNL     1       6.086  16.386  20.674  0.00  0.00    +0.000 A 
ATOM      7  C   UNL     1       5.553  17.392  21.513  0.00  0.00    +0.000 A 
ATOM      8  C   UNL     1       4.393  18.068  21.179  0.00  0.00    +0.000 A 
ATOM      9  N   UNL     1       3.681  17.869  20.062  0.00  0.00    +0.000 NA
ATOM     10  C   UNL     1       4.207  16.925  19.255  0.00  0.00    +0.000 A 
ENDROOT
BRANCH   4  11
ATOM     11  C   UNL     1       6.365  14.267  17.985  0.00  0.00    +0.000 C 
ATOM     12  C   UNL     1       7.696  14.318  17.853  0.00  0.00    +0.000 C 
ATOM     13  O   UNL     1       8.538  15.410  17.950  0.00  0.00    +0.000 OA
ATOM     14  C   UNL     1       9.814  14.913  17.763  0.00  0.00    +0.000 A 
ATOM     15  C   UNL     1      10.977  15.657  17.752  0.00  0.00    +0.000 A 
ATOM     16  C   UNL     1      12.186  14.979  17.549  0.00  0.00    +0.000 A 
ATOM     17  C   UNL     1      12.217  13.581  17.370  0.00  0.00    +0.000 A 
ATOM     18  C   UNL     1      11.032  12.847  17.382  0.00  0.00    +0.000 A 
ATOM     19  C   UNL     1       9.847  13.532  17.567  0.00  0.00    +0.000 A 
ATOM     20  C   UNL     1       8.469  13.066  17.601  0.00  0.00    +0.000 C 
ATOM     21  O   UNL     1       8.033  11.944  17.461  0.00  0.00    +0.000 OA
BRANCH  18  22
ATOM     22  O   UNL     1      11.038  11.497  17.218  0.00  0.00    +0.000 OA
ATOM     23  H   UNL     1      10.624  11.065  17.981  0.00  0.00    +0.000 HD
ENDBRANCH  18  22
ENDBRANCH   4  11
BRANCH   6  24
ATOM     24  N   UNL     1       7.181  15.673  21.182  0.00  0.00    +0.000 N 
ATOM     25  C   UNL     1       7.079  14.238  21.406  0.00  0.00    +0.000 C 
ATOM     26  C   UNL     1       7.912  13.868  22.627  0.00  0.00    +0.000 C 
ATOM     27  C   UNL     1       9.379  14.303  22.463  0.00  0.00    +0.000 C 
ATOM     28  C   UNL     1       9.427  15.809  22.139  0.00  0.00    +0.000 C 
ATOM     29  C   UNL     1       8.529  16.199  20.957  0.00  0.00    +0.000 C 
BRANCH  27  30
ATOM     30  C   UNL     1      10.139  13.485  21.400  0.00  0.00    +0.000 C 
BRANCH  30  31
ATOM     31  N   UNL     1       9.953  12.054  21.597  0.00  0.00    +0.000 NA
ATOM     32  H   UNL     1      10.141  11.549  20.733  0.00  0.00    +0.000 HD
ATOM     33  H   UNL     1       8.988  11.855  21.854  0.00  0.00    +0.000 HD
ENDBRANCH  30  31
ENDBRANCH  27  30
ENDBRANCH   6  24
TORSDOF 5
ENDMDL
MODEL 8
REMARK VINA RESULT:      -6.0      8.302     11.955
REMARK  Name = 
REMARK  6 active torsions:
REMARK  status: ('A' for Active; 'I' for Inactive)
REMARK    1  A    between atoms: C_1  and  N_2
REMARK    2  A    between atoms: C_4  and  C_5
REMARK    3  A    between atoms: C_12  and  O_13
REMARK    4  A    between atoms: C_18  and  N_19
REMARK    5  A    between atoms: C_22  and  C_23
REMARK    6  A    between atoms: C_23  and  N_24
REMARK                            x       y       z     vdW  Elec       q    Type
REMARK                         _______ _______ _______ _____ _____    ______ ____
ROOT
ATOM      1  C   UNL     1      -2.337  10.073  16.441  0.00  0.00    +0.000 C 
ATOM      2  N   UNL     1      -2.665  10.919  17.563  0.00  0.00    +0.000 N 
ATOM      3  C   UNL     1      -1.845  11.195  18.618  0.00  0.00    +0.000 A 
ATOM      4  C   UNL     1      -2.554  11.983  19.502  0.00  0.00    +0.000 A 
ATOM      5  C   UNL     1      -3.884  12.183  18.980  0.00  0.00    +0.000 A 
ATOM      6  C   UNL     1      -5.107  12.815  19.372  0.00  0.00    +0.000 A 
ATOM      7  C   UNL     1      -6.160  12.729  18.433  0.00  0.00    +0.000 A 
ATOM      8  C   UNL     1      -6.010  12.038  17.244  0.00  0.00    +0.000 A 
ATOM      9  N   UNL     1      -4.892  11.413  16.853  0.00  0.00    +0.000 NA
ATOM     10  C   UNL     1      -3.883  11.519  17.743  0.00  0.00    +0.000 A 
ENDROOT
BRANCH   4  11
ATOM     11  C   UNL     1      -2.005  12.330  20.768  0.00  0.00    +0.000 C 
ATOM     12  C   UNL     1      -1.901  13.540  21.331  0.00  0.00    +0.000 C 
ATOM     13  O   UNL     1      -2.273  14.771  20.823  0.00  0.00    +0.000 OA
ATOM     14  C   UNL     1      -1.977  15.687  21.815  0.00  0.00    +0.000 A 
ATOM     15  C   UNL     1      -2.161  17.053  21.733  0.00  0.00    +0.000 A 
ATOM     16  C   UNL     1      -1.804  17.829  22.843  0.00  0.00    +0.000 A 
ATOM     17  C   UNL     1      -1.283  17.235  24.011  0.00  0.00    +0.000 A 
ATOM     18  C   UNL     1      -1.102  15.854  24.073  0.00  0.00    +0.000 A 
ATOM     19  C   UNL     1      -1.443  15.105  22.964  0.00  0.00    +0.000 A 
ATOM     20  C   UNL     1      -1.349  13.675  22.711  0.00  0.00    +0.000 C 
ATOM     21  O   UNL     1      -0.930  12.793  23.429  0.00  0.00    +0.000 OA
BRANCH  18  22
ATOM     22  O   UNL     1      -0.606  15.259  25.191  0.00  0.00    +0.000 OA
ATOM     23  H   UNL     1      -0.684  14.295  25.120  0.00  0.00    +0.000 HD
ENDBRANCH  18  22
ENDBRANCH   4  11
BRANCH   6  24
ATOM     24  N   UNL     1      -5.420  13.417  20.599  0.00  0.00    +0.000 N 
ATOM     25  C   UNL     1      -6.081  14.714  20.630  0.00  0.00    +0.000 C 
ATOM     26  C   UNL     1      -5.580  15.495  21.839  0.00  0.00    +0.000 C 
ATOM     27  C   UNL     1      -5.813  14.720  23.148  0.00  0.00    +0.000 C 
ATOM     28  C   UNL     1      -5.173  13.323  23.030  0.00  0.00    +0.000 C 
ATOM     29  C   UNL     1      -5.616  12.563  21.773  0.00  0.00    +0.000 C 
BRANCH  27  30
ATOM     30  C   UNL     1      -7.302  14.616  23.533  0.00  0.00    +0.000 C 
BRANCH  30  31
ATOM     31  N   UNL     1      -7.496  13.731  24.673  0.00  0.00    +0.000 NA
ATOM     32  H   UNL     1      -7.054  12.829  24.502  0.00  0.00    +0.000 HD
ATOM     33  H   UNL     1      -8.488  13.554  24.818  0.00  0.00    +0.000 HD
ENDBRANCH  30  31
ENDBRANCH  27  30
ENDBRANCH   6  24
TORSDOF 5
ENDMDL
MODEL 9
REMARK VINA RESULT:      -6.0      7.750     10.289
REMARK  Name = 
REMARK  6 active torsions:
REMARK  status: ('A' for Active; 'I' for Inactive)
REMARK    1  A    between atoms: C_1  and  N_2
REMARK    2  A    between atoms: C_4  and  C_5
REMARK    3  A    between atoms: C_12  and  O_13
REMARK    4  A    between atoms: C_18  and  N_19
REMARK    5  A    between atoms: C_22  and  C_23
REMARK    6  A    between atoms: C_23  and  N_24
REMARK                            x       y       z     vdW  Elec       q    Type
REMARK                         _______ _______ _______ _____ _____    ______ ____
ROOT
ATOM      1  C   UNL     1      -3.414   9.634  15.914  0.00  0.00    +0.000 C 
ATOM      2  N   UNL     1      -3.058  10.499  17.014  0.00  0.00    +0.000 N 
ATOM      3  C   UNL     1      -1.801  10.668  17.518  0.00  0.00    +0.000 A 
ATOM      4  C   UNL     1      -1.898  11.520  18.600  0.00  0.00    +0.000 A 
ATOM      5  C   UNL     1      -3.285  11.873  18.789  0.00  0.00    +0.000 A 
ATOM      6  C   UNL     1      -4.083  12.633  19.702  0.00  0.00    +0.000 A 
ATOM      7  C   UNL     1      -5.465  12.676  19.405  0.00  0.00    +0.000 A 
ATOM      8  C   UNL     1      -5.991  11.987  18.327  0.00  0.00    +0.000 A 
ATOM      9  N   UNL     1      -5.281  11.246  17.466  0.00  0.00    +0.000 NA
ATOM     10  C   UNL     1      -3.961  11.228  17.741  0.00  0.00    +0.000 A 
ENDROOT
BRANCH   4  11
ATOM     11  C   UNL     1      -0.765  11.789  19.417  0.00  0.00    +0.000 C 
ATOM     12  C   UNL     1      -0.220  12.971  19.729  0.00  0.00    +0.000 C 
ATOM     13  O   UNL     1      -0.596  14.237  19.320  0.00  0.00    +0.000 OA
ATOM     14  C   UNL     1       0.275  15.105  19.952  0.00  0.00    +0.000 A 
ATOM     15  C   UNL     1       0.287  16.478  19.814  0.00  0.00    +0.000 A 
ATOM     16  C   UNL     1       1.245  17.200  20.537  0.00  0.00    +0.000 A 
ATOM     17  C   UNL     1       2.163  16.548  21.385  0.00  0.00    +0.000 A 
ATOM     18  C   UNL     1       2.137  15.160  21.508  0.00  0.00    +0.000 A 
ATOM     19  C   UNL     1       1.197  14.461  20.777  0.00  0.00    +0.000 A 
ATOM     20  C   UNL     1       0.937  13.033  20.669  0.00  0.00    +0.000 C 
ATOM     21  O   UNL     1       1.507  12.106  21.202  0.00  0.00    +0.000 OA
BRANCH  18  22
ATOM     22  O   UNL     1       3.009  14.509  22.325  0.00  0.00    +0.000 OA
ATOM     23  H   UNL     1       3.240  13.646  21.949  0.00  0.00    +0.000 HD
ENDBRANCH  18  22
ENDBRANCH   4  11
BRANCH   6  24
ATOM     24  N   UNL     1      -3.688  13.251  20.897  0.00  0.00    +0.000 N 
ATOM     25  C   UNL     1      -4.038  14.642  21.151  0.00  0.00    +0.000 C 
ATOM     26  C   UNL     1      -2.913  15.296  21.943  0.00  0.00    +0.000 C 
ATOM     27  C   UNL     1      -2.634  14.543  23.257  0.00  0.00    +0.000 C 
ATOM     28  C   UNL     1      -2.360  13.059  22.941  0.00  0.00    +0.000 C 
ATOM     29  C   UNL     1      -3.453  12.416  22.077  0.00  0.00    +0.000 C 
BRANCH  27  30
ATOM     30  C   UNL     1      -3.769  14.687  24.290  0.00  0.00    +0.000 C 
BRANCH  30  31
ATOM     31  N   UNL     1      -3.272  14.543  25.651  0.00  0.00    +0.000 NA
ATOM     32  H   UNL     1      -3.866  15.054  26.302  0.00  0.00    +0.000 HD
ATOM     33  H   UNL     1      -2.336  14.938  25.729  0.00  0.00    +0.000 HD
ENDBRANCH  30  31
ENDBRANCH  27  30
ENDBRANCH   6  24
TORSDOF 5
ENDMDL
