MODEL 1
REMARK VINA RESULT:      -7.7      0.000      0.000
REMARK  Name = 
REMARK  4 active torsions:
REMARK  status: ('A' for Active; 'I' for Inactive)
REMARK    1  A    between atoms: C_7  and  C_8
REMARK    2  A    between atoms: C_8  and  C_9
REMARK    3  A    between atoms: C_9  and  C_10
REMARK    4  A    between atoms: C_10  and  C_11
REMARK                            x       y       z     vdW  Elec       q    Type
REMARK                         _______ _______ _______ _____ _____    ______ ____
ROOT
ATOM      1  O   UNL     1       7.778   4.441  16.359  0.00  0.00    +0.000 OA
ATOM      2  C   UNL     1       6.811   4.725  17.055  0.00  0.00    +0.000 A 
ATOM      3  N   UNL     1       6.457   3.993  18.149  0.00  0.00    +0.000 N 
ATOM      4  C   UNL     1       5.272   4.125  18.823  0.00  0.00    +0.000 A 
ATOM      5  O   UNL     1       4.875   3.229  19.558  0.00  0.00    +0.000 OA
ATOM      6  C   UNL     1       4.495   5.378  18.572  0.00  0.00    +0.000 A 
ATOM      7  C   UNL     1       3.326   5.824  19.324  0.00  0.00    +0.000 A 
ATOM      8  C   UNL     1       2.683   6.924  18.888  0.00  0.00    +0.000 A 
ATOM      9  C   UNL     1       3.126   7.695  17.715  0.00  0.00    +0.000 A 
ATOM     10  O   UNL     1       2.496   8.678  17.347  0.00  0.00    +0.000 OA
ATOM     11  O   UNL     1       4.251   7.268  17.078  0.00  0.00    +0.000 OA
ATOM     12  C   UNL     1       4.905   6.109  17.522  0.00  0.00    +0.000 A 
ATOM     13  N   UNL     1       5.999   5.779  16.776  0.00  0.00    +0.000 N 
ATOM     14  H   UNL     1       6.985   3.148  18.307  0.00  0.00    +0.000 HD
ATOM     15  H   UNL     1       6.241   6.346  15.973  0.00  0.00    +0.000 HD
ENDROOT
BRANCH   7  16
ATOM     16  C   UNL     1       2.755   5.070  20.508  0.00  0.00    +0.000 C 
BRANCH  16  17
ATOM     17  C   UNL     1       1.508   4.201  20.299  0.00  0.00    +0.000 C 
BRANCH  17  18
ATOM     18  C   UNL     1       1.240   3.742  18.868  0.00  0.00    +0.000 C 
BRANCH  18  19
ATOM     19  C   UNL     1       1.521   2.251  18.750  0.00  0.00    +0.000 C 
ATOM     20  F   UNL     1       0.377   1.595  18.440  0.00  0.00    +0.000 F 
ATOM     21  F   UNL     1       2.389   2.026  17.733  0.00  0.00    +0.000 F 
ENDBRANCH  18  19
ENDBRANCH  17  18
ENDBRANCH  16  17
ENDBRANCH   7  16
TORSDOF 4
ENDMDL
MODEL 2
REMARK VINA RESULT:      -7.4      1.573      1.835
REMARK  Name = 
REMARK  4 active torsions:
REMARK  status: ('A' for Active; 'I' for Inactive)
REMARK    1  A    between atoms: C_7  and  C_8
REMARK    2  A    between atoms: C_8  and  C_9
REMARK    3  A    between atoms: C_9  and  C_10
REMARK    4  A    between atoms: C_10  and  C_11
REMARK                            x       y       z     vdW  Elec       q    Type
REMARK                         _______ _______ _______ _____ _____    ______ ____
ROOT
ATOM      1  O   UNL     1       7.791   4.596  16.724  0.00  0.00    +0.000 OA
ATOM      2  C   UNL     1       6.618   4.714  17.058  0.00  0.00    +0.000 A 
ATOM      3  N   UNL     1       5.836   3.644  17.372  0.00  0.00    +0.000 N 
ATOM      4  C   UNL     1       4.476   3.693  17.528  0.00  0.00    +0.000 A 
ATOM      5  O   UNL     1       3.809   2.668  17.466  0.00  0.00    +0.000 OA
ATOM      6  C   UNL     1       3.874   5.048  17.727  0.00  0.00    +0.000 A 
ATOM      7  C   UNL     1       2.494   5.321  18.117  0.00  0.00    +0.000 A 
ATOM      8  C   UNL     1       2.093   6.606  18.141  0.00  0.00    +0.000 A 
ATOM      9  C   UNL     1       2.989   7.728  17.818  0.00  0.00    +0.000 A 
ATOM     10  O   UNL     1       2.570   8.878  17.836  0.00  0.00    +0.000 OA
ATOM     11  O   UNL     1       4.280   7.424  17.511  0.00  0.00    +0.000 OA
ATOM     12  C   UNL     1       4.689   6.083  17.465  0.00  0.00    +0.000 A 
ATOM     13  N   UNL     1       5.998   5.922  17.115  0.00  0.00    +0.000 N 
ATOM     14  H   UNL     1       6.251   2.734  17.232  0.00  0.00    +0.000 HD
ATOM     15  H   UNL     1       6.556   6.737  16.894  0.00  0.00    +0.000 HD
ENDROOT
BRANCH   7  16
ATOM     16  C   UNL     1       1.477   4.236  18.411  0.00  0.00    +0.000 C 
BRANCH  16  17
ATOM     17  C   UNL     1       1.020   4.025  19.860  0.00  0.00    +0.000 C 
BRANCH  17  18
ATOM     18  C   UNL     1       2.035   4.379  20.944  0.00  0.00    +0.000 C 
BRANCH  18  19
ATOM     19  C   UNL     1       2.334   3.146  21.784  0.00  0.00    +0.000 C 
ATOM     20  F   UNL     1       1.261   2.317  21.774  0.00  0.00    +0.000 F 
ATOM     21  F   UNL     1       3.365   2.456  21.236  0.00  0.00    +0.000 F 
ENDBRANCH  18  19
ENDBRANCH  17  18
ENDBRANCH  16  17
ENDBRANCH   7  16
TORSDOF 4
ENDMDL
MODEL 3
REMARK VINA RESULT:      -7.3      3.463      5.492
REMARK  Name = 
REMARK  4 active torsions:
REMARK  status: ('A' for Active; 'I' for Inactive)
REMARK    1  A    between atoms: C_7  and  C_8
REMARK    2  A    between atoms: C_8  and  C_9
REMARK    3  A    between atoms: C_9  and  C_10
REMARK    4  A    between atoms: C_10  and  C_11
REMARK                            x       y       z     vdW  Elec       q    Type
REMARK                         _______ _______ _______ _____ _____    ______ ____
ROOT
ATOM      1  O   UNL     1       1.475   5.617  20.688  0.00  0.00    +0.000 OA
ATOM      2  C   UNL     1       2.320   5.335  19.848  0.00  0.00    +0.000 A 
ATOM      3  N   UNL     1       1.995   4.814  18.631  0.00  0.00    +0.000 N 
ATOM      4  C   UNL     1       2.895   4.273  17.751  0.00  0.00    +0.000 A 
ATOM      5  O   UNL     1       2.515   3.527  16.858  0.00  0.00    +0.000 OA
ATOM      6  C   UNL     1       4.335   4.608  17.978  0.00  0.00    +0.000 A 
ATOM      7  C   UNL     1       5.434   4.321  17.060  0.00  0.00    +0.000 A 
ATOM      8  C   UNL     1       6.685   4.593  17.476  0.00  0.00    +0.000 A 
ATOM      9  C   UNL     1       6.978   5.184  18.792  0.00  0.00    +0.000 A 
ATOM     10  O   UNL     1       8.135   5.396  19.131  0.00  0.00    +0.000 OA
ATOM     11  O   UNL     1       5.916   5.481  19.591  0.00  0.00    +0.000 OA
ATOM     12  C   UNL     1       4.615   5.175  19.163  0.00  0.00    +0.000 A 
ATOM     13  N   UNL     1       3.651   5.497  20.072  0.00  0.00    +0.000 N 
ATOM     14  H   UNL     1       1.021   4.588  18.491  0.00  0.00    +0.000 HD
ATOM     15  H   UNL     1       3.922   5.890  20.965  0.00  0.00    +0.000 HD
ENDROOT
BRANCH   7  16
ATOM     16  C   UNL     1       5.245   3.660  15.709  0.00  0.00    +0.000 C 
BRANCH  16  17
ATOM     17  C   UNL     1       5.553   4.468  14.442  0.00  0.00    +0.000 C 
BRANCH  17  18
ATOM     18  C   UNL     1       6.451   3.789  13.411  0.00  0.00    +0.000 C 
BRANCH  18  19
ATOM     19  C   UNL     1       5.637   3.453  12.171  0.00  0.00    +0.000 C 
ATOM     20  F   UNL     1       5.762   2.133  11.888  0.00  0.00    +0.000 F 
ATOM     21  F   UNL     1       4.322   3.679  12.409  0.00  0.00    +0.000 F 
ENDBRANCH  18  19
ENDBRANCH  17  18
ENDBRANCH  16  17
ENDBRANCH   7  16
TORSDOF 4
ENDMDL
MODEL 4
REMARK VINA RESULT:      -7.3      1.103      1.190
REMARK  Name = 
REMARK  4 active torsions:
REMARK  status: ('A' for Active; 'I' for Inactive)
REMARK    1  A    between atoms: C_7  and  C_8
REMARK    2  A    between atoms: C_8  and  C_9
REMARK    3  A    between atoms: C_9  and  C_10
REMARK    4  A    between atoms: C_10  and  C_11
REMARK                            x       y       z     vdW  Elec       q    Type
REMARK                         _______ _______ _______ _____ _____    ______ ____
ROOT
ATOM      1  O   UNL     1       7.679   5.099  15.596  0.00  0.00    +0.000 OA
ATOM      2  C   UNL     1       6.773   5.266  16.403  0.00  0.00    +0.000 A 
ATOM      3  N   UNL     1       6.592   4.448  17.478  0.00  0.00    +0.000 N 
ATOM      4  C   UNL     1       5.477   4.446  18.275  0.00  0.00    +0.000 A 
ATOM      5  O   UNL     1       5.228   3.482  18.987  0.00  0.00    +0.000 OA
ATOM      6  C   UNL     1       4.588   5.646  18.184  0.00  0.00    +0.000 A 
ATOM      7  C   UNL     1       3.475   5.953  19.076  0.00  0.00    +0.000 A 
ATOM      8  C   UNL     1       2.710   7.021  18.779  0.00  0.00    +0.000 A 
ATOM      9  C   UNL     1       2.968   7.889  17.618  0.00  0.00    +0.000 A 
ATOM     10  O   UNL     1       2.232   8.837  17.380  0.00  0.00    +0.000 OA
ATOM     11  O   UNL     1       4.049   7.589  16.846  0.00  0.00    +0.000 OA
ATOM     12  C   UNL     1       4.830   6.464  17.146  0.00  0.00    +0.000 A 
ATOM     13  N   UNL     1       5.860   6.265  16.275  0.00  0.00    +0.000 N 
ATOM     14  H   UNL     1       7.195   3.640  17.527  0.00  0.00    +0.000 HD
ATOM     15  H   UNL     1       5.974   6.894  15.489  0.00  0.00    +0.000 HD
ENDROOT
BRANCH   7  16
ATOM     16  C   UNL     1       3.089   5.091  20.261  0.00  0.00    +0.000 C 
BRANCH  16  17
ATOM     17  C   UNL     1       1.610   5.000  20.659  0.00  0.00    +0.000 C 
BRANCH  17  18
ATOM     18  C   UNL     1       0.857   3.764  20.174  0.00  0.00    +0.000 C 
BRANCH  18  19
ATOM     19  C   UNL     1       1.727   2.531  20.367  0.00  0.00    +0.000 C 
ATOM     20  F   UNL     1       1.579   2.063  21.631  0.00  0.00    +0.000 F 
ATOM     21  F   UNL     1       1.315   1.543  19.535  0.00  0.00    +0.000 F 
ENDBRANCH  18  19
ENDBRANCH  17  18
ENDBRANCH  16  17
ENDBRANCH   7  16
TORSDOF 4
ENDMDL
MODEL 5
REMARK VINA RESULT:      -7.2      3.311      4.989
REMARK  Name = 
REMARK  4 active torsions:
REMARK  status: ('A' for Active; 'I' for Inactive)
REMARK    1  A    between atoms: C_7  and  C_8
REMARK    2  A    between atoms: C_8  and  C_9
REMARK    3  A    between atoms: C_9  and  C_10
REMARK    4  A    between atoms: C_10  and  C_11
REMARK                            x       y       z     vdW  Elec       q    Type
REMARK                         _______ _______ _______ _____ _____    ______ ____
ROOT
ATOM      1  O   UNL     1       1.808   2.778  22.321  0.00  0.00    +0.000 OA
ATOM      2  C   UNL     1       2.297   3.376  21.371  0.00  0.00    +0.000 A 
ATOM      3  N   UNL     1       3.257   2.824  20.576  0.00  0.00    +0.000 N 
ATOM      4  C   UNL     1       3.995   3.516  19.652  0.00  0.00    +0.000 A 
ATOM      5  O   UNL     1       5.049   3.056  19.232  0.00  0.00    +0.000 OA
ATOM      6  C   UNL     1       3.465   4.852  19.239  0.00  0.00    +0.000 A 
ATOM      7  C   UNL     1       3.963   5.664  18.132  0.00  0.00    +0.000 A 
ATOM      8  C   UNL     1       3.439   6.894  17.972  0.00  0.00    +0.000 A 
ATOM      9  C   UNL     1       2.382   7.431  18.844  0.00  0.00    +0.000 A 
ATOM     10  O   UNL     1       1.952   8.563  18.669  0.00  0.00    +0.000 OA
ATOM     11  O   UNL     1       1.915   6.616  19.830  0.00  0.00    +0.000 OA
ATOM     12  C   UNL     1       2.479   5.343  20.007  0.00  0.00    +0.000 A 
ATOM     13  N   UNL     1       1.939   4.647  21.049  0.00  0.00    +0.000 N 
ATOM     14  H   UNL     1       3.610   1.924  20.866  0.00  0.00    +0.000 HD
ATOM     15  H   UNL     1       1.222   5.080  21.617  0.00  0.00    +0.000 HD
ENDROOT
BRANCH   7  16
ATOM     16  C   UNL     1       5.088   5.228  17.215  0.00  0.00    +0.000 C 
BRANCH  16  17
ATOM     17  C   UNL     1       6.124   6.270  16.771  0.00  0.00    +0.000 C 
BRANCH  17  18
ATOM     18  C   UNL     1       7.237   6.580  17.769  0.00  0.00    +0.000 C 
BRANCH  18  19
ATOM     19  C   UNL     1       7.577   5.325  18.559  0.00  0.00    +0.000 C 
ATOM     20  F   UNL     1       8.056   4.375  17.719  0.00  0.00    +0.000 F 
ATOM     21  F   UNL     1       8.564   5.595  19.448  0.00  0.00    +0.000 F 
ENDBRANCH  18  19
ENDBRANCH  17  18
ENDBRANCH  16  17
ENDBRANCH   7  16
TORSDOF 4
ENDMDL
MODEL 6
REMARK VINA RESULT:      -7.0      3.743      5.486
REMARK  Name = 
REMARK  4 active torsions:
REMARK  status: ('A' for Active; 'I' for Inactive)
REMARK    1  A    between atoms: C_7  and  C_8
REMARK    2  A    between atoms: C_8  and  C_9
REMARK    3  A    between atoms: C_9  and  C_10
REMARK    4  A    between atoms: C_10  and  C_11
REMARK                            x       y       z     vdW  Elec       q    Type
REMARK                         _______ _______ _______ _____ _____    ______ ____
ROOT
ATOM      1  O   UNL     1       7.912   5.566  20.629  0.00  0.00    +0.000 OA
ATOM      2  C   UNL     1       7.360   5.315  19.565  0.00  0.00    +0.000 A 
ATOM      3  N   UNL     1       7.873   5.706  18.365  0.00  0.00    +0.000 N 
ATOM      4  C   UNL     1       7.196   5.656  17.175  0.00  0.00    +0.000 A 
ATOM      5  O   UNL     1       7.570   6.326  16.221  0.00  0.00    +0.000 OA
ATOM      6  C   UNL     1       5.977   4.790  17.136  0.00  0.00    +0.000 A 
ATOM      7  C   UNL     1       5.227   4.425  15.938  0.00  0.00    +0.000 A 
ATOM      8  C   UNL     1       4.086   3.727  16.102  0.00  0.00    +0.000 A 
ATOM      9  C   UNL     1       3.591   3.305  17.422  0.00  0.00    +0.000 A 
ATOM     10  O   UNL     1       2.539   2.688  17.520  0.00  0.00    +0.000 OA
ATOM     11  O   UNL     1       4.353   3.627  18.504  0.00  0.00    +0.000 OA
ATOM     12  C   UNL     1       5.528   4.373  18.332  0.00  0.00    +0.000 A 
ATOM     13  N   UNL     1       6.176   4.650  19.500  0.00  0.00    +0.000 N 
ATOM     14  H   UNL     1       8.694   6.293  18.403  0.00  0.00    +0.000 HD
ATOM     15  H   UNL     1       5.774   4.340  20.376  0.00  0.00    +0.000 HD
ENDROOT
BRANCH   7  16
ATOM     16  C   UNL     1       5.618   4.859  14.540  0.00  0.00    +0.000 C 
BRANCH  16  17
ATOM     17  C   UNL     1       5.186   3.993  13.349  0.00  0.00    +0.000 C 
BRANCH  17  18
ATOM     18  C   UNL     1       6.308   3.446  12.472  0.00  0.00    +0.000 C 
BRANCH  18  19
ATOM     19  C   UNL     1       5.850   2.158  11.804  0.00  0.00    +0.000 C 
ATOM     20  F   UNL     1       4.707   2.386  11.112  0.00  0.00    +0.000 F 
ATOM     21  F   UNL     1       6.778   1.753  10.902  0.00  0.00    +0.000 F 
ENDBRANCH  18  19
ENDBRANCH  17  18
ENDBRANCH  16  17
ENDBRANCH   7  16
TORSDOF 4
ENDMDL
MODEL 7
REMARK VINA RESULT:      -7.0      2.960      4.444
REMARK  Name = 
REMARK  4 active torsions:
REMARK  status: ('A' for Active; 'I' for Inactive)
REMARK    1  A    between atoms: C_7  and  C_8
REMARK    2  A    between atoms: C_8  and  C_9
REMARK    3  A    between atoms: C_9  and  C_10
REMARK    4  A    between atoms: C_10  and  C_11
REMARK                            x       y       z     vdW  Elec       q    Type
REMARK                         _______ _______ _______ _____ _____    ______ ____
ROOT
ATOM      1  O   UNL     1       8.588   4.008  17.710  0.00  0.00    +0.000 OA
ATOM      2  C   UNL     1       7.506   4.581  17.756  0.00  0.00    +0.000 A 
ATOM      3  N   UNL     1       7.284   5.773  17.132  0.00  0.00    +0.000 N 
ATOM      4  C   UNL     1       6.183   6.563  17.334  0.00  0.00    +0.000 A 
ATOM      5  O   UNL     1       6.206   7.746  17.022  0.00  0.00    +0.000 OA
ATOM      6  C   UNL     1       5.003   5.912  17.983  0.00  0.00    +0.000 A 
ATOM      7  C   UNL     1       3.669   6.491  18.106  0.00  0.00    +0.000 A 
ATOM      8  C   UNL     1       2.754   5.810  18.822  0.00  0.00    +0.000 A 
ATOM      9  C   UNL     1       3.040   4.511  19.452  0.00  0.00    +0.000 A 
ATOM     10  O   UNL     1       2.179   3.939  20.108  0.00  0.00    +0.000 OA
ATOM     11  O   UNL     1       4.283   3.989  19.265  0.00  0.00    +0.000 OA
ATOM     12  C   UNL     1       5.240   4.712  18.538  0.00  0.00    +0.000 A 
ATOM     13  N   UNL     1       6.450   4.087  18.454  0.00  0.00    +0.000 N 
ATOM     14  H   UNL     1       8.088   6.204  16.700  0.00  0.00    +0.000 HD
ATOM     15  H   UNL     1       6.583   3.199  18.922  0.00  0.00    +0.000 HD
ENDROOT
BRANCH   7  16
ATOM     16  C   UNL     1       3.290   7.848  17.547  0.00  0.00    +0.000 C 
BRANCH  16  17
ATOM     17  C   UNL     1       1.841   8.331  17.698  0.00  0.00    +0.000 C 
BRANCH  17  18
ATOM     18  C   UNL     1       1.658   9.783  18.130  0.00  0.00    +0.000 C 
BRANCH  18  19
ATOM     19  C   UNL     1       1.000   9.827  19.501  0.00  0.00    +0.000 C 
ATOM     20  F   UNL     1      -0.349   9.818  19.360  0.00  0.00    +0.000 F 
ATOM     21  F   UNL     1       1.326   8.714  20.203  0.00  0.00    +0.000 F 
ENDBRANCH  18  19
ENDBRANCH  17  18
ENDBRANCH  16  17
ENDBRANCH   7  16
TORSDOF 4
ENDMDL
MODEL 8
REMARK VINA RESULT:      -7.0      2.502      3.488
REMARK  Name = 
REMARK  4 active torsions:
REMARK  status: ('A' for Active; 'I' for Inactive)
REMARK    1  A    between atoms: C_7  and  C_8
REMARK    2  A    between atoms: C_8  and  C_9
REMARK    3  A    between atoms: C_9  and  C_10
REMARK    4  A    between atoms: C_10  and  C_11
REMARK                            x       y       z     vdW  Elec       q    Type
REMARK                         _______ _______ _______ _____ _____    ______ ____
ROOT
ATOM      1  O   UNL     1       8.543   7.381  18.914  0.00  0.00    +0.000 OA
ATOM      2  C   UNL     1       7.747   6.595  18.416  0.00  0.00    +0.000 A 
ATOM      3  N   UNL     1       6.783   5.969  19.148  0.00  0.00    +0.000 N 
ATOM      4  C   UNL     1       6.022   4.922  18.699  0.00  0.00    +0.000 A 
ATOM      5  O   UNL     1       5.437   4.197  19.493  0.00  0.00    +0.000 OA
ATOM      6  C   UNL     1       5.992   4.704  17.220  0.00  0.00    +0.000 A 
ATOM      7  C   UNL     1       5.098   3.795  16.508  0.00  0.00    +0.000 A 
ATOM      8  C   UNL     1       5.286   3.640  15.184  0.00  0.00    +0.000 A 
ATOM      9  C   UNL     1       6.327   4.365  14.436  0.00  0.00    +0.000 A 
ATOM     10  O   UNL     1       6.469   4.176  13.235  0.00  0.00    +0.000 OA
ATOM     11  O   UNL     1       7.101   5.239  15.135  0.00  0.00    +0.000 OA
ATOM     12  C   UNL     1       6.917   5.381  16.519  0.00  0.00    +0.000 A 
ATOM     13  N   UNL     1       7.778   6.266  17.097  0.00  0.00    +0.000 N 
ATOM     14  H   UNL     1       6.814   6.121  20.146  0.00  0.00    +0.000 HD
ATOM     15  H   UNL     1       8.479   6.721  16.526  0.00  0.00    +0.000 HD
ENDROOT
BRANCH   7  16
ATOM     16  C   UNL     1       4.036   2.959  17.193  0.00  0.00    +0.000 C 
BRANCH  16  17
ATOM     17  C   UNL     1       2.587   3.465  17.198  0.00  0.00    +0.000 C 
BRANCH  17  18
ATOM     18  C   UNL     1       1.997   3.808  18.563  0.00  0.00    +0.000 C 
BRANCH  18  19
ATOM     19  C   UNL     1       1.411   2.554  19.193  0.00  0.00    +0.000 C 
ATOM     20  F   UNL     1       1.045   2.815  20.472  0.00  0.00    +0.000 F 
ATOM     21  F   UNL     1       0.285   2.190  18.531  0.00  0.00    +0.000 F 
ENDBRANCH  18  19
ENDBRANCH  17  18
ENDBRANCH  16  17
ENDBRANCH   7  16
TORSDOF 4
ENDMDL
MODEL 9
REMARK VINA RESULT:      -7.0      3.568      5.239
REMARK  Name = 
REMARK  4 active torsions:
REMARK  status: ('A' for Active; 'I' for Inactive)
REMARK    1  A    between atoms: C_7  and  C_8
REMARK    2  A    between atoms: C_8  and  C_9
REMARK    3  A    between atoms: C_9  and  C_10
REMARK    4  A    between atoms: C_10  and  C_11
REMARK                            x       y       z     vdW  Elec       q    Type
REMARK                         _______ _______ _______ _____ _____    ______ ____
ROOT
ATOM      1  O   UNL     1       1.455   2.701  22.409  0.00  0.00    +0.000 OA
ATOM      2  C   UNL     1       2.047   3.205  21.463  0.00  0.00    +0.000 A 
ATOM      3  N   UNL     1       2.999   2.534  20.756  0.00  0.00    +0.000 N 
ATOM      4  C   UNL     1       3.845   3.112  19.847  0.00  0.00    +0.000 A 
ATOM      5  O   UNL     1       4.878   2.545  19.514  0.00  0.00    +0.000 OA
ATOM      6  C   UNL     1       3.456   4.464  19.338  0.00  0.00    +0.000 A 
ATOM      7  C   UNL     1       4.084   5.172  18.227  0.00  0.00    +0.000 A 
ATOM      8  C   UNL     1       3.679   6.431  17.976  0.00  0.00    +0.000 A 
ATOM      9  C   UNL     1       2.624   7.099  18.755  0.00  0.00    +0.000 A 
ATOM     10  O   UNL     1       2.303   8.253  18.500  0.00  0.00    +0.000 OA
ATOM     11  O   UNL     1       2.033   6.379  19.749  0.00  0.00    +0.000 OA
ATOM     12  C   UNL     1       2.474   5.076  20.021  0.00  0.00    +0.000 A 
ATOM     13  N   UNL     1       1.818   4.482  21.059  0.00  0.00    +0.000 N 
ATOM     14  H   UNL     1       3.256   1.624  21.109  0.00  0.00    +0.000 HD
ATOM     15  H   UNL     1       1.110   5.003  21.561  0.00  0.00    +0.000 HD
ENDROOT
BRANCH   7  16
ATOM     16  C   UNL     1       5.218   4.597  17.402  0.00  0.00    +0.000 C 
BRANCH  16  17
ATOM     17  C   UNL     1       6.657   5.025  17.723  0.00  0.00    +0.000 C 
BRANCH  17  18
ATOM     18  C   UNL     1       7.307   5.993  16.738  0.00  0.00    +0.000 C 
BRANCH  18  19
ATOM     19  C   UNL     1       7.616   7.305  17.443  0.00  0.00    +0.000 C 
ATOM     20  F   UNL     1       6.480   8.034  17.569  0.00  0.00    +0.000 F 
ATOM     21  F   UNL     1       8.062   7.057  18.699  0.00  0.00    +0.000 F 
ENDBRANCH  18  19
ENDBRANCH  17  18
ENDBRANCH  16  17
ENDBRANCH   7  16
TORSDOF 4
ENDMDL
