MODEL 1
REMARK VINA RESULT:      -6.8      0.000      0.000
REMARK  Name = 
REMARK  11 active torsions:
REMARK  status: ('A' for Active; 'I' for Inactive)
REMARK    1  A    between atoms: C_1  and  C_2
REMARK    2  A    between atoms: C_2  and  O_3
REMARK    3  A    between atoms: O_3  and  C_4
REMARK    4  A    between atoms: C_9  and  C_10
REMARK    5  A    between atoms: C_10  and  N_11
REMARK    6  A    between atoms: N_11  and  C_12
REMARK    7  A    between atoms: C_13  and  C_15
REMARK    8  A    between atoms: C_15  and  N_16
REMARK    9  A    between atoms: C_21  and  C_22
REMARK   10  A    between atoms: C_22  and  C_23
REMARK   11  A    between atoms: C_22  and  C_24
REMARK                            x       y       z     vdW  Elec       q    Type
REMARK                         _______ _______ _______ _____ _____    ______ ____
ROOT
ATOM      1  N   UNL     1       2.212   7.679  18.946  0.00  0.00    +0.000 N 
ATOM      2  C   UNL     1       2.028   7.266  20.326  0.00  0.00    +0.000 C 
ATOM      3  C   UNL     1       1.725   8.892  18.455  0.00  0.00    +0.000 C 
ATOM      4  O   UNL     1       2.028   9.332  17.340  0.00  0.00    +0.000 OA
ENDROOT
BRANCH   1   5
ATOM      5  C   UNL     1       3.247   6.968  18.184  0.00  0.00    +0.000 C 
BRANCH   5  11
ATOM      6  C   UNL     1       4.252   4.671  18.820  0.00  0.00    +0.000 A 
ATOM      7  C   UNL     1       4.131   3.269  18.789  0.00  0.00    +0.000 A 
ATOM      8  C   UNL     1       2.995   2.645  18.272  0.00  0.00    +0.000 A 
ATOM      9  C   UNL     1       1.945   3.413  17.796  0.00  0.00    +0.000 A 
ATOM     10  C   UNL     1       2.045   4.802  17.823  0.00  0.00    +0.000 A 
ATOM     11  C   UNL     1       3.195   5.457  18.316  0.00  0.00    +0.000 A 
BRANCH   6  12
ATOM     12  O   UNL     1       5.367   5.316  19.313  0.00  0.00    +0.000 OA
BRANCH  12  14
ATOM     13  C   UNL     1       7.745   5.823  19.207  0.00  0.00    +0.000 C 
ATOM     14  C   UNL     1       6.543   5.234  18.492  0.00  0.00    +0.000 C 
ENDBRANCH  12  14
ENDBRANCH   6  12
ENDBRANCH   5  11
ENDBRANCH   1   5
BRANCH   3  15
ATOM     15  C   UNL     1       0.805   9.742  19.361  0.00  0.00    +0.000 C 
BRANCH  15  16
ATOM     16  N   UNL     1       0.167  10.934  18.793  0.00  0.00    +0.000 N 
ATOM     17  C   UNL     1      -1.036  10.913  18.114  0.00  0.00    +0.000 C 
ATOM     18  O   UNL     1      -1.617   9.944  17.664  0.00  0.00    +0.000 OA
ATOM     19  O   UNL     1      -1.523  12.188  17.992  0.00  0.00    +0.000 OA
ATOM     20  C   UNL     1      -0.506  13.094  18.429  0.00  0.00    +0.000 C 
ATOM     21  C   UNL     1       0.372  12.256  19.338  0.00  0.00    +0.000 C 
BRANCH  21  22
ATOM     22  C   UNL     1       1.828  12.742  19.479  0.00  0.00    +0.000 C 
ATOM     23  C   UNL     1       2.558  12.919  18.144  0.00  0.00    +0.000 C 
ATOM     24  C   UNL     1       1.895  14.057  20.269  0.00  0.00    +0.000 C 
ENDBRANCH  21  22
ENDBRANCH  15  16
ENDBRANCH   3  15
TORSDOF 7
ENDMDL
MODEL 2
REMARK VINA RESULT:      -6.5      1.634      8.287
REMARK  Name = 
REMARK  11 active torsions:
REMARK  status: ('A' for Active; 'I' for Inactive)
REMARK    1  A    between atoms: C_1  and  C_2
REMARK    2  A    between atoms: C_2  and  O_3
REMARK    3  A    between atoms: O_3  and  C_4
REMARK    4  A    between atoms: C_9  and  C_10
REMARK    5  A    between atoms: C_10  and  N_11
REMARK    6  A    between atoms: N_11  and  C_12
REMARK    7  A    between atoms: C_13  and  C_15
REMARK    8  A    between atoms: C_15  and  N_16
REMARK    9  A    between atoms: C_21  and  C_22
REMARK   10  A    between atoms: C_22  and  C_23
REMARK   11  A    between atoms: C_22  and  C_24
REMARK                            x       y       z     vdW  Elec       q    Type
REMARK                         _______ _______ _______ _____ _____    ______ ____
ROOT
ATOM      1  N   UNL     1       1.836   8.367  19.129  0.00  0.00    +0.000 N 
ATOM      2  C   UNL     1       1.320   8.588  20.468  0.00  0.00    +0.000 C 
ATOM      3  C   UNL     1       2.588   7.239  18.791  0.00  0.00    +0.000 C 
ATOM      4  O   UNL     1       2.878   6.954  17.624  0.00  0.00    +0.000 OA
ENDROOT
BRANCH   1   5
ATOM      5  C   UNL     1       1.229   9.164  18.055  0.00  0.00    +0.000 C 
BRANCH   5  11
ATOM      6  C   UNL     1      -0.048  11.306  18.743  0.00  0.00    +0.000 A 
ATOM      7  C   UNL     1      -0.036  12.707  18.881  0.00  0.00    +0.000 A 
ATOM      8  C   UNL     1       1.117  13.454  18.642  0.00  0.00    +0.000 A 
ATOM      9  C   UNL     1       2.290  12.812  18.281  0.00  0.00    +0.000 A 
ATOM     10  C   UNL     1       2.299  11.426  18.142  0.00  0.00    +0.000 A 
ATOM     11  C   UNL     1       1.138  10.650  18.353  0.00  0.00    +0.000 A 
BRANCH   6  12
ATOM     12  O   UNL     1      -1.176  10.541  18.960  0.00  0.00    +0.000 OA
BRANCH  12  14
ATOM     13  C   UNL     1      -2.199   9.971  16.827  0.00  0.00    +0.000 C 
ATOM     14  C   UNL     1      -2.284  10.811  18.088  0.00  0.00    +0.000 C 
ENDBRANCH  12  14
ENDBRANCH   6  12
ENDBRANCH   5  11
ENDBRANCH   1   5
BRANCH   3  15
ATOM     15  C   UNL     1       3.037   6.283  19.920  0.00  0.00    +0.000 C 
BRANCH  15  16
ATOM     16  N   UNL     1       3.658   5.007  19.553  0.00  0.00    +0.000 N 
ATOM     17  C   UNL     1       4.982   4.875  19.179  0.00  0.00    +0.000 C 
ATOM     18  O   UNL     1       5.752   5.758  18.853  0.00  0.00    +0.000 OA
ATOM     19  O   UNL     1       5.343   3.553  19.212  0.00  0.00    +0.000 OA
ATOM     20  C   UNL     1       4.162   2.776  19.419  0.00  0.00    +0.000 C 
ATOM     21  C   UNL     1       3.191   3.742  20.071  0.00  0.00    +0.000 C 
BRANCH  21  22
ATOM     22  C   UNL     1       1.699   3.408  19.876  0.00  0.00    +0.000 C 
ATOM     23  C   UNL     1       1.415   2.502  18.674  0.00  0.00    +0.000 C 
ATOM     24  C   UNL     1       1.108   2.769  21.141  0.00  0.00    +0.000 C 
ENDBRANCH  21  22
ENDBRANCH  15  16
ENDBRANCH   3  15
TORSDOF 7
ENDMDL
MODEL 3
REMARK VINA RESULT:      -6.5      1.326      2.497
REMARK  Name = 
REMARK  11 active torsions:
REMARK  status: ('A' for Active; 'I' for Inactive)
REMARK    1  A    between atoms: C_1  and  C_2
REMARK    2  A    between atoms: C_2  and  O_3
REMARK    3  A    between atoms: O_3  and  C_4
REMARK    4  A    between atoms: C_9  and  C_10
REMARK    5  A    between atoms: C_10  and  N_11
REMARK    6  A    between atoms: N_11  and  C_12
REMARK    7  A    between atoms: C_13  and  C_15
REMARK    8  A    between atoms: C_15  and  N_16
REMARK    9  A    between atoms: C_21  and  C_22
REMARK   10  A    between atoms: C_22  and  C_23
REMARK   11  A    between atoms: C_22  and  C_24
REMARK                            x       y       z     vdW  Elec       q    Type
REMARK                         _______ _______ _______ _____ _____    ______ ____
ROOT
ATOM      1  N   UNL     1       2.035   7.739  19.228  0.00  0.00    +0.000 N 
ATOM      2  C   UNL     1       1.888   7.123  20.534  0.00  0.00    +0.000 C 
ATOM      3  C   UNL     1       1.543   9.014  18.939  0.00  0.00    +0.000 C 
ATOM      4  O   UNL     1       1.817   9.615  17.895  0.00  0.00    +0.000 OA
ENDROOT
BRANCH   1   5
ATOM      5  C   UNL     1       3.043   7.148  18.338  0.00  0.00    +0.000 C 
BRANCH   5  11
ATOM      6  C   UNL     1       4.196   4.898  18.886  0.00  0.00    +0.000 A 
ATOM      7  C   UNL     1       4.186   3.495  18.768  0.00  0.00    +0.000 A 
ATOM      8  C   UNL     1       3.125   2.821  18.164  0.00  0.00    +0.000 A 
ATOM      9  C   UNL     1       2.039   3.534  17.686  0.00  0.00    +0.000 A 
ATOM     10  C   UNL     1       2.029   4.923  17.797  0.00  0.00    +0.000 A 
ATOM     11  C   UNL     1       3.103   5.631  18.379  0.00  0.00    +0.000 A 
BRANCH   6  12
ATOM     12  O   UNL     1       5.237   5.594  19.465  0.00  0.00    +0.000 OA
BRANCH  12  14
ATOM     13  C   UNL     1       6.777   6.231  17.692  0.00  0.00    +0.000 C 
ATOM     14  C   UNL     1       6.535   5.349  18.903  0.00  0.00    +0.000 C 
ENDBRANCH  12  14
ENDBRANCH   6  12
ENDBRANCH   5  11
ENDBRANCH   1   5
BRANCH   3  15
ATOM     15  C   UNL     1       0.656   9.720  19.990  0.00  0.00    +0.000 C 
BRANCH  15  16
ATOM     16  N   UNL     1       0.208  11.090  19.723  0.00  0.00    +0.000 N 
ATOM     17  C   UNL     1       0.883  12.218  20.152  0.00  0.00    +0.000 C 
ATOM     18  O   UNL     1       1.761  12.282  20.991  0.00  0.00    +0.000 OA
ATOM     19  O   UNL     1       0.413  13.321  19.489  0.00  0.00    +0.000 OA
ATOM     20  C   UNL     1      -0.746  12.931  18.748  0.00  0.00    +0.000 C 
ATOM     21  C   UNL     1      -0.585  11.434  18.566  0.00  0.00    +0.000 C 
BRANCH  21  22
ATOM     22  C   UNL     1      -1.895  10.651  18.352  0.00  0.00    +0.000 C 
ATOM     23  C   UNL     1      -3.155  11.521  18.400  0.00  0.00    +0.000 C 
ATOM     24  C   UNL     1      -1.865   9.879  17.025  0.00  0.00    +0.000 C 
ENDBRANCH  21  22
ENDBRANCH  15  16
ENDBRANCH   3  15
TORSDOF 7
ENDMDL
MODEL 4
REMARK VINA RESULT:      -6.4      2.298      4.055
REMARK  Name = 
REMARK  11 active torsions:
REMARK  status: ('A' for Active; 'I' for Inactive)
REMARK    1  A    between atoms: C_1  and  C_2
REMARK    2  A    between atoms: C_2  and  O_3
REMARK    3  A    between atoms: O_3  and  C_4
REMARK    4  A    between atoms: C_9  and  C_10
REMARK    5  A    between atoms: C_10  and  N_11
REMARK    6  A    between atoms: N_11  and  C_12
REMARK    7  A    between atoms: C_13  and  C_15
REMARK    8  A    between atoms: C_15  and  N_16
REMARK    9  A    between atoms: C_21  and  C_22
REMARK   10  A    between atoms: C_22  and  C_23
REMARK   11  A    between atoms: C_22  and  C_24
REMARK                            x       y       z     vdW  Elec       q    Type
REMARK                         _______ _______ _______ _____ _____    ______ ____
ROOT
ATOM      1  N   UNL     1       3.294   4.639  18.311  0.00  0.00    +0.000 N 
ATOM      2  C   UNL     1       1.969   4.319  17.813  0.00  0.00    +0.000 C 
ATOM      3  C   UNL     1       3.517   5.627  19.273  0.00  0.00    +0.000 C 
ATOM      4  O   UNL     1       4.609   5.784  19.831  0.00  0.00    +0.000 OA
ENDROOT
BRANCH   1   5
ATOM      5  C   UNL     1       4.344   3.643  18.060  0.00  0.00    +0.000 C 
BRANCH   5  11
ATOM      6  C   UNL     1       6.621   4.443  17.129  0.00  0.00    +0.000 A 
ATOM      7  C   UNL     1       7.371   4.860  16.013  0.00  0.00    +0.000 A 
ATOM      8  C   UNL     1       6.833   4.849  14.726  0.00  0.00    +0.000 A 
ATOM      9  C   UNL     1       5.539   4.399  14.526  0.00  0.00    +0.000 A 
ATOM     10  C   UNL     1       4.782   3.979  15.618  0.00  0.00    +0.000 A 
ATOM     11  C   UNL     1       5.295   4.006  16.933  0.00  0.00    +0.000 A 
BRANCH   6  12
ATOM     12  O   UNL     1       7.121   4.455  18.415  0.00  0.00    +0.000 OA
BRANCH  12  14
ATOM     13  C   UNL     1       7.400   6.857  18.146  0.00  0.00    +0.000 C 
ATOM     14  C   UNL     1       7.953   5.578  18.746  0.00  0.00    +0.000 C 
ENDBRANCH  12  14
ENDBRANCH   6  12
ENDBRANCH   5  11
ENDBRANCH   1   5
BRANCH   3  15
ATOM     15  C   UNL     1       2.335   6.532  19.691  0.00  0.00    +0.000 C 
BRANCH  15  16
ATOM     16  N   UNL     1       2.229   7.867  19.096  0.00  0.00    +0.000 N 
ATOM     17  C   UNL     1       2.714   8.191  17.842  0.00  0.00    +0.000 C 
ATOM     18  O   UNL     1       3.492   7.553  17.161  0.00  0.00    +0.000 OA
ATOM     19  O   UNL     1       2.191   9.392  17.439  0.00  0.00    +0.000 OA
ATOM     20  C   UNL     1       1.499   9.969  18.549  0.00  0.00    +0.000 C 
ATOM     21  C   UNL     1       1.167   8.785  19.437  0.00  0.00    +0.000 C 
BRANCH  21  22
ATOM     22  C   UNL     1       0.973   9.115  20.930  0.00  0.00    +0.000 C 
ATOM     23  C   UNL     1       0.900  10.615  21.232  0.00  0.00    +0.000 C 
ATOM     24  C   UNL     1      -0.282   8.426  21.486  0.00  0.00    +0.000 C 
ENDBRANCH  21  22
ENDBRANCH  15  16
ENDBRANCH   3  15
TORSDOF 7
ENDMDL
MODEL 5
REMARK VINA RESULT:      -6.3      5.719      8.163
REMARK  Name = 
REMARK  11 active torsions:
REMARK  status: ('A' for Active; 'I' for Inactive)
REMARK    1  A    between atoms: C_1  and  C_2
REMARK    2  A    between atoms: C_2  and  O_3
REMARK    3  A    between atoms: O_3  and  C_4
REMARK    4  A    between atoms: C_9  and  C_10
REMARK    5  A    between atoms: C_10  and  N_11
REMARK    6  A    between atoms: N_11  and  C_12
REMARK    7  A    between atoms: C_13  and  C_15
REMARK    8  A    between atoms: C_15  and  N_16
REMARK    9  A    between atoms: C_21  and  C_22
REMARK   10  A    between atoms: C_22  and  C_23
REMARK   11  A    between atoms: C_22  and  C_24
REMARK                            x       y       z     vdW  Elec       q    Type
REMARK                         _______ _______ _______ _____ _____    ______ ____
ROOT
ATOM      1  N   UNL     1       3.720   3.624  16.944  0.00  0.00    +0.000 N 
ATOM      2  C   UNL     1       3.692   2.173  16.966  0.00  0.00    +0.000 C 
ATOM      3  C   UNL     1       4.624   4.345  16.162  0.00  0.00    +0.000 C 
ATOM      4  O   UNL     1       4.540   5.568  15.998  0.00  0.00    +0.000 OA
ENDROOT
BRANCH   1   5
ATOM      5  C   UNL     1       2.529   4.308  17.467  0.00  0.00    +0.000 C 
BRANCH   5  11
ATOM      6  C   UNL     1       3.083   4.537  19.983  0.00  0.00    +0.000 A 
ATOM      7  C   UNL     1       2.798   4.148  21.305  0.00  0.00    +0.000 A 
ATOM      8  C   UNL     1       1.726   3.306  21.604  0.00  0.00    +0.000 A 
ATOM      9  C   UNL     1       0.903   2.854  20.586  0.00  0.00    +0.000 A 
ATOM     10  C   UNL     1       1.168   3.231  19.271  0.00  0.00    +0.000 A 
ATOM     11  C   UNL     1       2.262   4.060  18.940  0.00  0.00    +0.000 A 
BRANCH   6  12
ATOM     12  O   UNL     1       4.143   5.357  19.656  0.00  0.00    +0.000 OA
BRANCH  12  14
ATOM     13  C   UNL     1       6.474   5.635  19.013  0.00  0.00    +0.000 C 
ATOM     14  C   UNL     1       5.433   4.725  19.638  0.00  0.00    +0.000 C 
ENDBRANCH  12  14
ENDBRANCH   6  12
ENDBRANCH   5  11
ENDBRANCH   1   5
BRANCH   3  15
ATOM     15  C   UNL     1       5.751   3.576  15.434  0.00  0.00    +0.000 C 
BRANCH  15  16
ATOM     16  N   UNL     1       6.399   4.208  14.281  0.00  0.00    +0.000 N 
ATOM     17  C   UNL     1       7.345   5.211  14.383  0.00  0.00    +0.000 C 
ATOM     18  O   UNL     1       7.603   5.889  15.359  0.00  0.00    +0.000 OA
ATOM     19  O   UNL     1       7.989   5.367  13.184  0.00  0.00    +0.000 OA
ATOM     20  C   UNL     1       7.303   4.578  12.208  0.00  0.00    +0.000 C 
ATOM     21  C   UNL     1       6.583   3.521  13.023  0.00  0.00    +0.000 C 
BRANCH  21  22
ATOM     22  C   UNL     1       5.329   2.918  12.360  0.00  0.00    +0.000 C 
ATOM     23  C   UNL     1       4.473   3.939  11.604  0.00  0.00    +0.000 C 
ATOM     24  C   UNL     1       5.705   1.773  11.410  0.00  0.00    +0.000 C 
ENDBRANCH  21  22
ENDBRANCH  15  16
ENDBRANCH   3  15
TORSDOF 7
ENDMDL
MODEL 6
REMARK VINA RESULT:      -6.3      2.315      2.790
REMARK  Name = 
REMARK  11 active torsions:
REMARK  status: ('A' for Active; 'I' for Inactive)
REMARK    1  A    between atoms: C_1  and  C_2
REMARK    2  A    between atoms: C_2  and  O_3
REMARK    3  A    between atoms: O_3  and  C_4
REMARK    4  A    between atoms: C_9  and  C_10
REMARK    5  A    between atoms: C_10  and  N_11
REMARK    6  A    between atoms: N_11  and  C_12
REMARK    7  A    between atoms: C_13  and  C_15
REMARK    8  A    between atoms: C_15  and  N_16
REMARK    9  A    between atoms: C_21  and  C_22
REMARK   10  A    between atoms: C_22  and  C_23
REMARK   11  A    between atoms: C_22  and  C_24
REMARK                            x       y       z     vdW  Elec       q    Type
REMARK                         _______ _______ _______ _____ _____    ______ ____
ROOT
ATOM      1  N   UNL     1       1.956   8.101  19.394  0.00  0.00    +0.000 N 
ATOM      2  C   UNL     1       1.649   8.319  17.993  0.00  0.00    +0.000 C 
ATOM      3  C   UNL     1       1.164   8.613  20.425  0.00  0.00    +0.000 C 
ATOM      4  O   UNL     1       1.312   8.287  21.608  0.00  0.00    +0.000 OA
ENDROOT
BRANCH   1   5
ATOM      5  C   UNL     1       2.899   7.016  19.696  0.00  0.00    +0.000 C 
BRANCH   5  11
ATOM      6  C   UNL     1       2.567   4.898  18.247  0.00  0.00    +0.000 A 
ATOM      7  C   UNL     1       1.916   3.662  18.077  0.00  0.00    +0.000 A 
ATOM      8  C   UNL     1       1.066   3.144  19.054  0.00  0.00    +0.000 A 
ATOM      9  C   UNL     1       0.870   3.841  20.235  0.00  0.00    +0.000 A 
ATOM     10  C   UNL     1       1.509   5.064  20.423  0.00  0.00    +0.000 A 
ATOM     11  C   UNL     1       2.352   5.623  19.438  0.00  0.00    +0.000 A 
BRANCH   6  12
ATOM     12  O   UNL     1       3.402   5.443  17.293  0.00  0.00    +0.000 OA
BRANCH  12  14
ATOM     13  C   UNL     1       5.363   5.309  15.859  0.00  0.00    +0.000 C 
ATOM     14  C   UNL     1       4.596   4.696  17.016  0.00  0.00    +0.000 C 
ENDBRANCH  12  14
ENDBRANCH   6  12
ENDBRANCH   5  11
ENDBRANCH   1   5
BRANCH   3  15
ATOM     15  C   UNL     1       0.023   9.593  20.064  0.00  0.00    +0.000 C 
BRANCH  15  16
ATOM     16  N   UNL     1       0.030  10.929  20.668  0.00  0.00    +0.000 N 
ATOM     17  C   UNL     1      -0.362  11.188  21.968  0.00  0.00    +0.000 C 
ATOM     18  O   UNL     1      -0.988  10.458  22.713  0.00  0.00    +0.000 OA
ATOM     19  O   UNL     1       0.052  12.440  22.338  0.00  0.00    +0.000 OA
ATOM     20  C   UNL     1       0.557  13.101  21.175  0.00  0.00    +0.000 C 
ATOM     21  C   UNL     1       0.937  11.968  20.240  0.00  0.00    +0.000 C 
BRANCH  21  22
ATOM     22  C   UNL     1       0.941  12.325  18.740  0.00  0.00    +0.000 C 
ATOM     23  C   UNL     1      -0.062  13.417  18.357  0.00  0.00    +0.000 C 
ATOM     24  C   UNL     1       2.344  12.744  18.278  0.00  0.00    +0.000 C 
ENDBRANCH  21  22
ENDBRANCH  15  16
ENDBRANCH   3  15
TORSDOF 7
ENDMDL
MODEL 7
REMARK VINA RESULT:      -6.3      2.308      8.090
REMARK  Name = 
REMARK  11 active torsions:
REMARK  status: ('A' for Active; 'I' for Inactive)
REMARK    1  A    between atoms: C_1  and  C_2
REMARK    2  A    between atoms: C_2  and  O_3
REMARK    3  A    between atoms: O_3  and  C_4
REMARK    4  A    between atoms: C_9  and  C_10
REMARK    5  A    between atoms: C_10  and  N_11
REMARK    6  A    between atoms: N_11  and  C_12
REMARK    7  A    between atoms: C_13  and  C_15
REMARK    8  A    between atoms: C_15  and  N_16
REMARK    9  A    between atoms: C_21  and  C_22
REMARK   10  A    between atoms: C_22  and  C_23
REMARK   11  A    between atoms: C_22  and  C_24
REMARK                            x       y       z     vdW  Elec       q    Type
REMARK                         _______ _______ _______ _____ _____    ______ ____
ROOT
ATOM      1  N   UNL     1       1.879   8.432  18.865  0.00  0.00    +0.000 N 
ATOM      2  C   UNL     1       2.349   9.158  17.699  0.00  0.00    +0.000 C 
ATOM      3  C   UNL     1       2.285   7.126  19.150  0.00  0.00    +0.000 C 
ATOM      4  O   UNL     1       2.036   6.567  20.224  0.00  0.00    +0.000 OA
ENDROOT
BRANCH   1   5
ATOM      5  C   UNL     1       1.271   9.236  19.934  0.00  0.00    +0.000 C 
BRANCH   5  11
ATOM      6  C   UNL     1      -0.496  11.093  20.279  0.00  0.00    +0.000 A 
ATOM      7  C   UNL     1      -1.648  11.744  19.799  0.00  0.00    +0.000 A 
ATOM      8  C   UNL     1      -2.208  11.421  18.563  0.00  0.00    +0.000 A 
ATOM      9  C   UNL     1      -1.613  10.454  17.770  0.00  0.00    +0.000 A 
ATOM     10  C   UNL     1      -0.470   9.801  18.226  0.00  0.00    +0.000 A 
ATOM     11  C   UNL     1       0.101  10.091  19.484  0.00  0.00    +0.000 A 
BRANCH   6  12
ATOM     12  O   UNL     1       0.074  11.381  21.502  0.00  0.00    +0.000 OA
BRANCH  12  14
ATOM     13  C   UNL     1      -0.325   9.700  23.215  0.00  0.00    +0.000 C 
ATOM     14  C   UNL     1      -0.724  11.051  22.649  0.00  0.00    +0.000 C 
ENDBRANCH  12  14
ENDBRANCH   6  12
ENDBRANCH   5  11
ENDBRANCH   1   5
BRANCH   3  15
ATOM     15  C   UNL     1       3.121   6.364  18.095  0.00  0.00    +0.000 C 
BRANCH  15  16
ATOM     16  N   UNL     1       3.871   5.178  18.518  0.00  0.00    +0.000 N 
ATOM     17  C   UNL     1       5.226   5.181  18.791  0.00  0.00    +0.000 C 
ATOM     18  O   UNL     1       6.039   6.038  18.501  0.00  0.00    +0.000 OA
ATOM     19  O   UNL     1       5.567   4.034  19.459  0.00  0.00    +0.000 OA
ATOM     20  C   UNL     1       4.436   3.160  19.445  0.00  0.00    +0.000 C 
ATOM     21  C   UNL     1       3.253   4.086  19.233  0.00  0.00    +0.000 C 
BRANCH  21  22
ATOM     22  C   UNL     1       2.013   3.435  18.591  0.00  0.00    +0.000 C 
ATOM     23  C   UNL     1       2.327   2.198  17.743  0.00  0.00    +0.000 C 
ATOM     24  C   UNL     1       0.972   3.064  19.656  0.00  0.00    +0.000 C 
ENDBRANCH  21  22
ENDBRANCH  15  16
ENDBRANCH   3  15
TORSDOF 7
ENDMDL
MODEL 8
REMARK VINA RESULT:      -6.3      4.403      8.480
REMARK  Name = 
REMARK  11 active torsions:
REMARK  status: ('A' for Active; 'I' for Inactive)
REMARK    1  A    between atoms: C_1  and  C_2
REMARK    2  A    between atoms: C_2  and  O_3
REMARK    3  A    between atoms: O_3  and  C_4
REMARK    4  A    between atoms: C_9  and  C_10
REMARK    5  A    between atoms: C_10  and  N_11
REMARK    6  A    between atoms: N_11  and  C_12
REMARK    7  A    between atoms: C_13  and  C_15
REMARK    8  A    between atoms: C_15  and  N_16
REMARK    9  A    between atoms: C_21  and  C_22
REMARK   10  A    between atoms: C_22  and  C_23
REMARK   11  A    between atoms: C_22  and  C_24
REMARK                            x       y       z     vdW  Elec       q    Type
REMARK                         _______ _______ _______ _____ _____    ______ ____
ROOT
ATOM      1  N   UNL     1       5.981   4.908  17.381  0.00  0.00    +0.000 N 
ATOM      2  C   UNL     1       7.336   4.533  17.743  0.00  0.00    +0.000 C 
ATOM      3  C   UNL     1       5.342   4.408  16.244  0.00  0.00    +0.000 C 
ATOM      4  O   UNL     1       4.137   4.578  16.025  0.00  0.00    +0.000 OA
ENDROOT
BRANCH   1   5
ATOM      5  C   UNL     1       5.169   5.522  18.440  0.00  0.00    +0.000 C 
BRANCH   5  11
ATOM      6  C   UNL     1       2.654   5.056  18.826  0.00  0.00    +0.000 A 
ATOM      7  C   UNL     1       1.671   4.229  19.400  0.00  0.00    +0.000 A 
ATOM      8  C   UNL     1       2.005   3.041  20.050  0.00  0.00    +0.000 A 
ATOM      9  C   UNL     1       3.330   2.643  20.118  0.00  0.00    +0.000 A 
ATOM     10  C   UNL     1       4.317   3.446  19.553  0.00  0.00    +0.000 A 
ATOM     11  C   UNL     1       4.007   4.667  18.913  0.00  0.00    +0.000 A 
BRANCH   6  12
ATOM     12  O   UNL     1       2.356   6.243  18.188  0.00  0.00    +0.000 OA
BRANCH  12  14
ATOM     13  C   UNL     1       1.856   8.623  18.258  0.00  0.00    +0.000 C 
ATOM     14  C   UNL     1       2.350   7.410  19.024  0.00  0.00    +0.000 C 
ENDBRANCH  12  14
ENDBRANCH   6  12
ENDBRANCH   5  11
ENDBRANCH   1   5
BRANCH   3  15
ATOM     15  C   UNL     1       6.166   3.570  15.240  0.00  0.00    +0.000 C 
BRANCH  15  16
ATOM     16  N   UNL     1       6.612   4.204  13.996  0.00  0.00    +0.000 N 
ATOM     17  C   UNL     1       7.468   5.289  13.949  0.00  0.00    +0.000 C 
ATOM     18  O   UNL     1       7.777   6.030  14.863  0.00  0.00    +0.000 OA
ATOM     19  O   UNL     1       7.947   5.448  12.675  0.00  0.00    +0.000 OA
ATOM     20  C   UNL     1       7.226   4.561  11.817  0.00  0.00    +0.000 C 
ATOM     21  C   UNL     1       6.707   3.482  12.749  0.00  0.00    +0.000 C 
BRANCH  21  22
ATOM     22  C   UNL     1       5.444   2.744  12.264  0.00  0.00    +0.000 C 
ATOM     23  C   UNL     1       4.429   3.646  11.554  0.00  0.00    +0.000 C 
ATOM     24  C   UNL     1       5.810   1.573  11.342  0.00  0.00    +0.000 C 
ENDBRANCH  21  22
ENDBRANCH  15  16
ENDBRANCH   3  15
TORSDOF 7
ENDMDL
MODEL 9
REMARK VINA RESULT:      -6.3      1.986      8.006
REMARK  Name = 
REMARK  11 active torsions:
REMARK  status: ('A' for Active; 'I' for Inactive)
REMARK    1  A    between atoms: C_1  and  C_2
REMARK    2  A    between atoms: C_2  and  O_3
REMARK    3  A    between atoms: O_3  and  C_4
REMARK    4  A    between atoms: C_9  and  C_10
REMARK    5  A    between atoms: C_10  and  N_11
REMARK    6  A    between atoms: N_11  and  C_12
REMARK    7  A    between atoms: C_13  and  C_15
REMARK    8  A    between atoms: C_15  and  N_16
REMARK    9  A    between atoms: C_21  and  C_22
REMARK   10  A    between atoms: C_22  and  C_23
REMARK   11  A    between atoms: C_22  and  C_24
REMARK                            x       y       z     vdW  Elec       q    Type
REMARK                         _______ _______ _______ _____ _____    ______ ____
ROOT
ATOM      1  N   UNL     1       1.409   8.758  19.574  0.00  0.00    +0.000 N 
ATOM      2  C   UNL     1       1.271   8.340  20.957  0.00  0.00    +0.000 C 
ATOM      3  C   UNL     1       2.152   8.031  18.640  0.00  0.00    +0.000 C 
ATOM      4  O   UNL     1       2.129   8.278  17.429  0.00  0.00    +0.000 OA
ENDROOT
BRANCH   1   5
ATOM      5  C   UNL     1       0.441   9.752  19.092  0.00  0.00    +0.000 C 
BRANCH   5  11
ATOM      6  C   UNL     1       0.169  12.050  20.247  0.00  0.00    +0.000 A 
ATOM      7  C   UNL     1       0.561  13.400  20.320  0.00  0.00    +0.000 A 
ATOM      8  C   UNL     1       1.594  13.904  19.529  0.00  0.00    +0.000 A 
ATOM      9  C   UNL     1       2.273  13.061  18.665  0.00  0.00    +0.000 A 
ATOM     10  C   UNL     1       1.901  11.721  18.582  0.00  0.00    +0.000 A 
ATOM     11  C   UNL     1       0.841  11.193  19.351  0.00  0.00    +0.000 A 
BRANCH   6  12
ATOM     12  O   UNL     1      -0.858  11.526  21.006  0.00  0.00    +0.000 OA
BRANCH  12  14
ATOM     13  C   UNL     1      -0.932  10.408  23.166  0.00  0.00    +0.000 C 
ATOM     14  C   UNL     1      -0.739  11.718  22.424  0.00  0.00    +0.000 C 
ENDBRANCH  12  14
ENDBRANCH   6  12
ENDBRANCH   5  11
ENDBRANCH   1   5
BRANCH   3  15
ATOM     15  C   UNL     1       3.002   6.839  19.137  0.00  0.00    +0.000 C 
BRANCH  15  16
ATOM     16  N   UNL     1       3.198   5.696  18.241  0.00  0.00    +0.000 N 
ATOM     17  C   UNL     1       4.167   5.647  17.257  0.00  0.00    +0.000 C 
ATOM     18  O   UNL     1       4.815   6.572  16.808  0.00  0.00    +0.000 OA
ATOM     19  O   UNL     1       4.314   4.358  16.814  0.00  0.00    +0.000 OA
ATOM     20  C   UNL     1       3.266   3.571  17.385  0.00  0.00    +0.000 C 
ATOM     21  C   UNL     1       2.850   4.346  18.621  0.00  0.00    +0.000 C 
BRANCH  21  22
ATOM     22  C   UNL     1       1.406   4.099  19.099  0.00  0.00    +0.000 C 
ATOM     23  C   UNL     1       0.841   2.734  18.694  0.00  0.00    +0.000 C 
ATOM     24  C   UNL     1       1.296   4.258  20.622  0.00  0.00    +0.000 C 
ENDBRANCH  21  22
ENDBRANCH  15  16
ENDBRANCH   3  15
TORSDOF 7
ENDMDL
