MODEL 1
REMARK VINA RESULT:      -7.7      0.000      0.000
REMARK  Name = 
REMARK  3 active torsions:
REMARK  status: ('A' for Active; 'I' for Inactive)
REMARK    1  A    between atoms: C_1  and  C_2
REMARK    2  A    between atoms: C_3  and  C_4
REMARK    3  A    between atoms: N_18  and  O_19
REMARK                            x       y       z     vdW  Elec       q    Type
REMARK                         _______ _______ _______ _____ _____    ______ ____
ROOT
ATOM      1  C   UNL     1       2.162   4.387  19.777  0.00  0.00    +0.000 C 
ATOM      2  C   UNL     1       2.282   4.820  18.315  0.00  0.00    +0.000 C 
ATOM      3  C   UNL     1       2.891   6.221  18.222  0.00  0.00    +0.000 C 
ATOM      4  N   UNL     1       4.096   6.126  17.711  0.00  0.00    +0.000 N 
ATOM      5  O   UNL     1       4.852   7.119  17.460  0.00  0.00    +0.000 OA
ATOM      6  C   UNL     1       4.474   4.713  17.424  0.00  0.00    +0.000 C 
ATOM      7  C   UNL     1       5.486   4.292  18.515  0.00  0.00    +0.000 C 
ATOM      8  C   UNL     1       6.883   4.878  18.320  0.00  0.00    +0.000 C 
ATOM      9  C   UNL     1       7.413   4.585  16.924  0.00  0.00    +0.000 C 
ATOM     10  C   UNL     1       6.480   5.113  15.841  0.00  0.00    +0.000 C 
ATOM     11  C   UNL     1       5.047   4.602  16.002  0.00  0.00    +0.000 C 
ATOM     12  N   UNL     1       3.173   4.000  17.458  0.00  0.00    +0.000 NA
ENDROOT
BRANCH   3  13
ATOM     13  C   UNL     1       2.221   7.463  18.656  0.00  0.00    +0.000 A 
ATOM     14  C   UNL     1       1.888   8.460  17.731  0.00  0.00    +0.000 A 
ATOM     15  C   UNL     1       1.246   9.630  18.142  0.00  0.00    +0.000 A 
ATOM     16  C   UNL     1       0.945   9.820  19.486  0.00  0.00    +0.000 A 
ATOM     17  C   UNL     1       1.286   8.841  20.418  0.00  0.00    +0.000 A 
ATOM     18  C   UNL     1       1.924   7.666  20.008  0.00  0.00    +0.000 A 
ENDBRANCH   3  13
BRANCH  12  19
ATOM     19  O   UNL     1       3.325   2.661  17.974  0.00  0.00    +0.000 OA
ATOM     20  H   UNL     1       2.626   2.627  18.655  0.00  0.00    +0.000 HD
ENDBRANCH  12  19
TORSDOF 2
ENDMDL
MODEL 2
REMARK VINA RESULT:      -7.7      0.075      1.108
REMARK  Name = 
REMARK  3 active torsions:
REMARK  status: ('A' for Active; 'I' for Inactive)
REMARK    1  A    between atoms: C_1  and  C_2
REMARK    2  A    between atoms: C_3  and  C_4
REMARK    3  A    between atoms: N_18  and  O_19
REMARK                            x       y       z     vdW  Elec       q    Type
REMARK                         _______ _______ _______ _____ _____    ______ ____
ROOT
ATOM      1  C   UNL     1       2.113   4.372  19.655  0.00  0.00    +0.000 C 
ATOM      2  C   UNL     1       2.271   4.850  18.211  0.00  0.00    +0.000 C 
ATOM      3  C   UNL     1       2.899   6.245  18.175  0.00  0.00    +0.000 C 
ATOM      4  N   UNL     1       4.113   6.150  17.687  0.00  0.00    +0.000 N 
ATOM      5  O   UNL     1       4.888   7.140  17.484  0.00  0.00    +0.000 OA
ATOM      6  C   UNL     1       4.480   4.742  17.363  0.00  0.00    +0.000 C 
ATOM      7  C   UNL     1       5.462   4.273  18.461  0.00  0.00    +0.000 C 
ATOM      8  C   UNL     1       6.871   4.846  18.313  0.00  0.00    +0.000 C 
ATOM      9  C   UNL     1       7.426   4.590  16.920  0.00  0.00    +0.000 C 
ATOM     10  C   UNL     1       6.524   5.166  15.835  0.00  0.00    +0.000 C 
ATOM     11  C   UNL     1       5.081   4.669  15.950  0.00  0.00    +0.000 C 
ATOM     12  N   UNL     1       3.169   4.046  17.346  0.00  0.00    +0.000 NA
ENDROOT
BRANCH   3  13
ATOM     13  C   UNL     1       2.237   7.482  18.635  0.00  0.00    +0.000 A 
ATOM     14  C   UNL     1       1.908   7.660  19.985  0.00  0.00    +0.000 A 
ATOM     15  C   UNL     1       1.290   8.835  20.420  0.00  0.00    +0.000 A 
ATOM     16  C   UNL     1       0.983   9.836  19.505  0.00  0.00    +0.000 A 
ATOM     17  C   UNL     1       1.291   9.662  18.157  0.00  0.00    +0.000 A 
ATOM     18  C   UNL     1       1.914   8.489  17.720  0.00  0.00    +0.000 A 
ENDBRANCH   3  13
BRANCH  12  19
ATOM     19  O   UNL     1       3.293   2.689  17.822  0.00  0.00    +0.000 OA
ATOM     20  H   UNL     1       3.751   2.256  17.076  0.00  0.00    +0.000 HD
ENDBRANCH  12  19
TORSDOF 2
ENDMDL
MODEL 3
REMARK VINA RESULT:      -7.3      1.859      3.283
REMARK  Name = 
REMARK  3 active torsions:
REMARK  status: ('A' for Active; 'I' for Inactive)
REMARK    1  A    between atoms: C_1  and  C_2
REMARK    2  A    between atoms: C_3  and  C_4
REMARK    3  A    between atoms: N_18  and  O_19
REMARK                            x       y       z     vdW  Elec       q    Type
REMARK                         _______ _______ _______ _____ _____    ______ ____
ROOT
ATOM      1  C   UNL     1       4.670   6.958  16.507  0.00  0.00    +0.000 C 
ATOM      2  C   UNL     1       4.742   6.556  17.981  0.00  0.00    +0.000 C 
ATOM      3  C   UNL     1       3.335   6.453  18.575  0.00  0.00    +0.000 C 
ATOM      4  N   UNL     1       3.072   5.191  18.822  0.00  0.00    +0.000 N 
ATOM      5  O   UNL     1       1.998   4.772  19.362  0.00  0.00    +0.000 OA
ATOM      6  C   UNL     1       4.194   4.295  18.423  0.00  0.00    +0.000 C 
ATOM      7  C   UNL     1       3.753   3.578  17.126  0.00  0.00    +0.000 C 
ATOM      8  C   UNL     1       2.730   2.466  17.354  0.00  0.00    +0.000 C 
ATOM      9  C   UNL     1       3.216   1.476  18.402  0.00  0.00    +0.000 C 
ATOM     10  C   UNL     1       3.530   2.161  19.727  0.00  0.00    +0.000 C 
ATOM     11  C   UNL     1       4.518   3.319  19.567  0.00  0.00    +0.000 C 
ATOM     12  N   UNL     1       5.337   5.229  18.273  0.00  0.00    +0.000 NA
ENDROOT
BRANCH   3  13
ATOM     13  C   UNL     1       2.432   7.596  18.810  0.00  0.00    +0.000 A 
ATOM     14  C   UNL     1       1.932   7.865  20.090  0.00  0.00    +0.000 A 
ATOM     15  C   UNL     1       1.085   8.953  20.312  0.00  0.00    +0.000 A 
ATOM     16  C   UNL     1       0.718   9.774  19.251  0.00  0.00    +0.000 A 
ATOM     17  C   UNL     1       1.197   9.506  17.970  0.00  0.00    +0.000 A 
ATOM     18  C   UNL     1       2.050   8.421  17.747  0.00  0.00    +0.000 A 
ENDBRANCH   3  13
BRANCH  12  19
ATOM     19  O   UNL     1       6.226   4.800  17.220  0.00  0.00    +0.000 OA
ATOM     20  H   UNL     1       5.602   4.617  16.491  0.00  0.00    +0.000 HD
ENDBRANCH  12  19
TORSDOF 2
ENDMDL
MODEL 4
REMARK VINA RESULT:      -7.2      1.869      3.085
REMARK  Name = 
REMARK  3 active torsions:
REMARK  status: ('A' for Active; 'I' for Inactive)
REMARK    1  A    between atoms: C_1  and  C_2
REMARK    2  A    between atoms: C_3  and  C_4
REMARK    3  A    between atoms: N_18  and  O_19
REMARK                            x       y       z     vdW  Elec       q    Type
REMARK                         _______ _______ _______ _____ _____    ______ ____
ROOT
ATOM      1  C   UNL     1       4.556   6.988  16.442  0.00  0.00    +0.000 C 
ATOM      2  C   UNL     1       4.676   6.602  17.917  0.00  0.00    +0.000 C 
ATOM      3  C   UNL     1       3.290   6.491  18.556  0.00  0.00    +0.000 C 
ATOM      4  N   UNL     1       3.046   5.229  18.822  0.00  0.00    +0.000 N 
ATOM      5  O   UNL     1       1.994   4.804  19.399  0.00  0.00    +0.000 OA
ATOM      6  C   UNL     1       4.165   4.340  18.397  0.00  0.00    +0.000 C 
ATOM      7  C   UNL     1       3.691   3.606  17.122  0.00  0.00    +0.000 C 
ATOM      8  C   UNL     1       2.686   2.487  17.391  0.00  0.00    +0.000 C 
ATOM      9  C   UNL     1       3.215   1.511  18.433  0.00  0.00    +0.000 C 
ATOM     10  C   UNL     1       3.562   2.213  19.741  0.00  0.00    +0.000 C 
ATOM     11  C   UNL     1       4.533   3.379  19.540  0.00  0.00    +0.000 C 
ATOM     12  N   UNL     1       5.293   5.283  18.203  0.00  0.00    +0.000 NA
ENDROOT
BRANCH   3  13
ATOM     13  C   UNL     1       2.382   7.627  18.807  0.00  0.00    +0.000 A 
ATOM     14  C   UNL     1       1.968   8.459  17.760  0.00  0.00    +0.000 A 
ATOM     15  C   UNL     1       1.100   9.529  17.999  0.00  0.00    +0.000 A 
ATOM     16  C   UNL     1       0.653   9.784  19.290  0.00  0.00    +0.000 A 
ATOM     17  C   UNL     1       1.073   8.971  20.342  0.00  0.00    +0.000 A 
ATOM     18  C   UNL     1       1.936   7.897  20.105  0.00  0.00    +0.000 A 
ENDBRANCH   3  13
BRANCH  12  19
ATOM     19  O   UNL     1       6.154   4.853  17.128  0.00  0.00    +0.000 OA
ATOM     20  H   UNL     1       7.041   5.036  17.494  0.00  0.00    +0.000 HD
ENDBRANCH  12  19
TORSDOF 2
ENDMDL
MODEL 5
REMARK VINA RESULT:      -7.1      2.479      6.044
REMARK  Name = 
REMARK  3 active torsions:
REMARK  status: ('A' for Active; 'I' for Inactive)
REMARK    1  A    between atoms: C_1  and  C_2
REMARK    2  A    between atoms: C_3  and  C_4
REMARK    3  A    between atoms: N_18  and  O_19
REMARK                            x       y       z     vdW  Elec       q    Type
REMARK                         _______ _______ _______ _____ _____    ______ ____
ROOT
ATOM      1  C   UNL     1       7.845   4.441  17.661  0.00  0.00    +0.000 C 
ATOM      2  C   UNL     1       6.706   5.396  17.300  0.00  0.00    +0.000 C 
ATOM      3  C   UNL     1       5.828   4.790  16.203  0.00  0.00    +0.000 C 
ATOM      4  N   UNL     1       4.660   4.485  16.718  0.00  0.00    +0.000 N 
ATOM      5  O   UNL     1       3.685   4.002  16.056  0.00  0.00    +0.000 OA
ATOM      6  C   UNL     1       4.589   4.796  18.174  0.00  0.00    +0.000 C 
ATOM      7  C   UNL     1       4.672   3.446  18.923  0.00  0.00    +0.000 C 
ATOM      8  C   UNL     1       3.381   2.630  18.868  0.00  0.00    +0.000 C 
ATOM      9  C   UNL     1       2.188   3.453  19.331  0.00  0.00    +0.000 C 
ATOM     10  C   UNL     1       2.024   4.725  18.508  0.00  0.00    +0.000 C 
ATOM     11  C   UNL     1       3.298   5.573  18.481  0.00  0.00    +0.000 C 
ATOM     12  N   UNL     1       5.741   5.708  18.382  0.00  0.00    +0.000 NA
ENDROOT
BRANCH   3  13
ATOM     13  C   UNL     1       6.249   4.577  14.805  0.00  0.00    +0.000 A 
ATOM     14  C   UNL     1       5.587   3.651  13.989  0.00  0.00    +0.000 A 
ATOM     15  C   UNL     1       5.981   3.458  12.663  0.00  0.00    +0.000 A 
ATOM     16  C   UNL     1       7.051   4.181  12.145  0.00  0.00    +0.000 A 
ATOM     17  C   UNL     1       7.726   5.094  12.953  0.00  0.00    +0.000 A 
ATOM     18  C   UNL     1       7.330   5.292  14.279  0.00  0.00    +0.000 A 
ENDBRANCH   3  13
BRANCH  12  19
ATOM     19  O   UNL     1       6.325   5.520  19.688  0.00  0.00    +0.000 OA
ATOM     20  H   UNL     1       5.883   6.219  20.209  0.00  0.00    +0.000 HD
ENDBRANCH  12  19
TORSDOF 2
ENDMDL
MODEL 6
REMARK VINA RESULT:      -7.1      2.984      4.976
REMARK  Name = 
REMARK  3 active torsions:
REMARK  status: ('A' for Active; 'I' for Inactive)
REMARK    1  A    between atoms: C_1  and  C_2
REMARK    2  A    between atoms: C_3  and  C_4
REMARK    3  A    between atoms: N_18  and  O_19
REMARK                            x       y       z     vdW  Elec       q    Type
REMARK                         _______ _______ _______ _____ _____    ______ ____
ROOT
ATOM      1  C   UNL     1       4.142   3.913  16.059  0.00  0.00    +0.000 C 
ATOM      2  C   UNL     1       4.751   3.381  17.356  0.00  0.00    +0.000 C 
ATOM      3  C   UNL     1       4.971   4.524  18.351  0.00  0.00    +0.000 C 
ATOM      4  N   UNL     1       4.127   4.385  19.347  0.00  0.00    +0.000 N 
ATOM      5  O   UNL     1       4.082   5.149  20.364  0.00  0.00    +0.000 OA
ATOM      6  C   UNL     1       3.235   3.204  19.167  0.00  0.00    +0.000 C 
ATOM      7  C   UNL     1       1.845   3.751  18.769  0.00  0.00    +0.000 C 
ATOM      8  C   UNL     1       1.068   4.366  19.933  0.00  0.00    +0.000 C 
ATOM      9  C   UNL     1       0.974   3.400  21.105  0.00  0.00    +0.000 C 
ATOM     10  C   UNL     1       2.351   2.957  21.586  0.00  0.00    +0.000 C 
ATOM     11  C   UNL     1       3.204   2.370  20.459  0.00  0.00    +0.000 C 
ATOM     12  N   UNL     1       3.928   2.412  18.121  0.00  0.00    +0.000 NA
ENDROOT
BRANCH   3  13
ATOM     13  C   UNL     1       5.963   5.604  18.191  0.00  0.00    +0.000 A 
ATOM     14  C   UNL     1       5.722   6.676  17.323  0.00  0.00    +0.000 A 
ATOM     15  C   UNL     1       6.659   7.703  17.180  0.00  0.00    +0.000 A 
ATOM     16  C   UNL     1       7.852   7.658  17.894  0.00  0.00    +0.000 A 
ATOM     17  C   UNL     1       8.108   6.587  18.748  0.00  0.00    +0.000 A 
ATOM     18  C   UNL     1       7.170   5.561  18.896  0.00  0.00    +0.000 A 
ENDBRANCH   3  13
BRANCH  12  19
ATOM     19  O   UNL     1       2.982   1.730  17.272  0.00  0.00    +0.000 OA
ATOM     20  H   UNL     1       3.519   1.550  16.476  0.00  0.00    +0.000 HD
ENDBRANCH  12  19
TORSDOF 2
ENDMDL
MODEL 7
REMARK VINA RESULT:      -7.1      2.484      6.036
REMARK  Name = 
REMARK  3 active torsions:
REMARK  status: ('A' for Active; 'I' for Inactive)
REMARK    1  A    between atoms: C_1  and  C_2
REMARK    2  A    between atoms: C_3  and  C_4
REMARK    3  A    between atoms: N_18  and  O_19
REMARK                            x       y       z     vdW  Elec       q    Type
REMARK                         _______ _______ _______ _____ _____    ______ ____
ROOT
ATOM      1  C   UNL     1       7.826   4.471  17.656  0.00  0.00    +0.000 C 
ATOM      2  C   UNL     1       6.675   5.408  17.287  0.00  0.00    +0.000 C 
ATOM      3  C   UNL     1       5.811   4.784  16.188  0.00  0.00    +0.000 C 
ATOM      4  N   UNL     1       4.645   4.463  16.698  0.00  0.00    +0.000 N 
ATOM      5  O   UNL     1       3.681   3.963  16.034  0.00  0.00    +0.000 OA
ATOM      6  C   UNL     1       4.562   4.777  18.153  0.00  0.00    +0.000 C 
ATOM      7  C   UNL     1       4.662   3.432  18.907  0.00  0.00    +0.000 C 
ATOM      8  C   UNL     1       3.385   2.596  18.848  0.00  0.00    +0.000 C 
ATOM      9  C   UNL     1       2.177   3.402  19.303  0.00  0.00    +0.000 C 
ATOM     10  C   UNL     1       1.998   4.669  18.475  0.00  0.00    +0.000 C 
ATOM     11  C   UNL     1       3.259   5.536  18.451  0.00  0.00    +0.000 C 
ATOM     12  N   UNL     1       5.699   5.708  18.363  0.00  0.00    +0.000 NA
ENDROOT
BRANCH   3  13
ATOM     13  C   UNL     1       6.242   4.573  14.792  0.00  0.00    +0.000 A 
ATOM     14  C   UNL     1       7.311   5.299  14.254  0.00  0.00    +0.000 A 
ATOM     15  C   UNL     1       7.724   5.090  12.936  0.00  0.00    +0.000 A 
ATOM     16  C   UNL     1       7.060   4.164  12.140  0.00  0.00    +0.000 A 
ATOM     17  C   UNL     1       5.984   3.448  12.660  0.00  0.00    +0.000 A 
ATOM     18  C   UNL     1       5.572   3.651  13.981  0.00  0.00    +0.000 A 
ENDBRANCH   3  13
BRANCH  12  19
ATOM     19  O   UNL     1       6.280   5.533  19.673  0.00  0.00    +0.000 OA
ATOM     20  H   UNL     1       7.219   5.747  19.507  0.00  0.00    +0.000 HD
ENDBRANCH  12  19
TORSDOF 2
ENDMDL
MODEL 8
REMARK VINA RESULT:      -7.1      2.986      5.063
REMARK  Name = 
REMARK  3 active torsions:
REMARK  status: ('A' for Active; 'I' for Inactive)
REMARK    1  A    between atoms: C_1  and  C_2
REMARK    2  A    between atoms: C_3  and  C_4
REMARK    3  A    between atoms: N_18  and  O_19
REMARK                            x       y       z     vdW  Elec       q    Type
REMARK                         _______ _______ _______ _____ _____    ______ ____
ROOT
ATOM      1  C   UNL     1       4.053   3.994  16.027  0.00  0.00    +0.000 C 
ATOM      2  C   UNL     1       4.687   3.414  17.293  0.00  0.00    +0.000 C 
ATOM      3  C   UNL     1       4.942   4.521  18.318  0.00  0.00    +0.000 C 
ATOM      4  N   UNL     1       4.120   4.359  19.328  0.00  0.00    +0.000 N 
ATOM      5  O   UNL     1       4.107   5.090  20.371  0.00  0.00    +0.000 OA
ATOM      6  C   UNL     1       3.212   3.194  19.132  0.00  0.00    +0.000 C 
ATOM      7  C   UNL     1       1.819   3.767  18.785  0.00  0.00    +0.000 C 
ATOM      8  C   UNL     1       1.076   4.352  19.985  0.00  0.00    +0.000 C 
ATOM      9  C   UNL     1       0.999   3.349  21.127  0.00  0.00    +0.000 C 
ATOM     10  C   UNL     1       2.381   2.877  21.562  0.00  0.00    +0.000 C 
ATOM     11  C   UNL     1       3.202   2.319  20.397  0.00  0.00    +0.000 C 
ATOM     12  N   UNL     1       3.872   2.429  18.045  0.00  0.00    +0.000 NA
ENDROOT
BRANCH   3  13
ATOM     13  C   UNL     1       5.942   5.596  18.169  0.00  0.00    +0.000 A 
ATOM     14  C   UNL     1       7.140   5.567  18.893  0.00  0.00    +0.000 A 
ATOM     15  C   UNL     1       8.090   6.580  18.743  0.00  0.00    +0.000 A 
ATOM     16  C   UNL     1       7.843   7.640  17.878  0.00  0.00    +0.000 A 
ATOM     17  C   UNL     1       6.646   7.687  17.165  0.00  0.00    +0.000 A 
ATOM     18  C   UNL     1       5.697   6.671  17.309  0.00  0.00    +0.000 A 
ENDBRANCH   3  13
BRANCH  12  19
ATOM     19  O   UNL     1       2.898   1.784  17.196  0.00  0.00    +0.000 OA
ATOM     20  H   UNL     1       3.177   2.082  16.308  0.00  0.00    +0.000 HD
ENDBRANCH  12  19
TORSDOF 2
ENDMDL
MODEL 9
REMARK VINA RESULT:      -7.0      3.028      3.937
REMARK  Name = 
REMARK  3 active torsions:
REMARK  status: ('A' for Active; 'I' for Inactive)
REMARK    1  A    between atoms: C_1  and  C_2
REMARK    2  A    between atoms: C_3  and  C_4
REMARK    3  A    between atoms: N_18  and  O_19
REMARK                            x       y       z     vdW  Elec       q    Type
REMARK                         _______ _______ _______ _____ _____    ______ ____
ROOT
ATOM      1  C   UNL     1       4.594   2.046  17.196  0.00  0.00    +0.000 C 
ATOM      2  C   UNL     1       3.985   3.441  17.041  0.00  0.00    +0.000 C 
ATOM      3  C   UNL     1       3.848   4.118  18.407  0.00  0.00    +0.000 C 
ATOM      4  N   UNL     1       4.704   5.110  18.475  0.00  0.00    +0.000 N 
ATOM      5  O   UNL     1       4.812   5.903  19.465  0.00  0.00    +0.000 OA
ATOM      6  C   UNL     1       5.528   5.227  17.238  0.00  0.00    +0.000 C 
ATOM      7  C   UNL     1       6.936   4.694  17.587  0.00  0.00    +0.000 C 
ATOM      8  C   UNL     1       7.769   5.660  18.429  0.00  0.00    +0.000 C 
ATOM      9  C   UNL     1       7.837   7.036  17.783  0.00  0.00    +0.000 C 
ATOM     10  C   UNL     1       6.449   7.623  17.554  0.00  0.00    +0.000 C 
ATOM     11  C   UNL     1       5.542   6.686  16.754  0.00  0.00    +0.000 C 
ATOM     12  N   UNL     1       4.771   4.418  16.250  0.00  0.00    +0.000 NA
ENDROOT
BRANCH   3  13
ATOM     13  C   UNL     1       2.912   3.698  19.468  0.00  0.00    +0.000 A 
ATOM     14  C   UNL     1       3.353   2.929  20.551  0.00  0.00    +0.000 A 
ATOM     15  C   UNL     1       2.467   2.541  21.560  0.00  0.00    +0.000 A 
ATOM     16  C   UNL     1       1.128   2.908  21.484  0.00  0.00    +0.000 A 
ATOM     17  C   UNL     1       0.675   3.660  20.402  0.00  0.00    +0.000 A 
ATOM     18  C   UNL     1       1.561   4.053  19.395  0.00  0.00    +0.000 A 
ENDBRANCH   3  13
BRANCH  12  19
ATOM     19  O   UNL     1       5.661   3.761  15.323  0.00  0.00    +0.000 OA
ATOM     20  H   UNL     1       5.757   2.877  15.728  0.00  0.00    +0.000 HD
ENDBRANCH  12  19
TORSDOF 2
ENDMDL
