MODEL 1
REMARK VINA RESULT:      -7.1      0.000      0.000
REMARK  Name = 
REMARK  6 active torsions:
REMARK  status: ('A' for Active; 'I' for Inactive)
REMARK    1  A    between atoms: C_1  and  C_2
REMARK    2  A    between atoms: C_2  and  C_3
REMARK    3  A    between atoms: C_2  and  C_4
REMARK    4  A    between atoms: C_2  and  N_6
REMARK    5  A    between atoms: C_4  and  O_5
REMARK    6  A    between atoms: C_9  and  C_10
REMARK                            x       y       z     vdW  Elec       q    Type
REMARK                         _______ _______ _______ _____ _____    ______ ____
ROOT
ATOM      1  N   UNL     1       2.888   3.215  18.374  0.00  0.00    +0.000 N 
ATOM      2  C   UNL     1       4.106   3.781  17.970  0.00  0.00    +0.000 A 
ATOM      3  C   UNL     1       4.419   3.769  16.624  0.00  0.00    +0.000 A 
ATOM      4  C   UNL     1       5.658   4.253  16.236  0.00  0.00    +0.000 A 
ATOM      5  N   UNL     1       6.546   4.712  17.140  0.00  0.00    +0.000 NA
ATOM      6  C   UNL     1       6.166   4.656  18.418  0.00  0.00    +0.000 A 
ATOM      7  N   UNL     1       4.985   4.223  18.873  0.00  0.00    +0.000 NA
ATOM      8  H   UNL     1       2.187   3.368  17.654  0.00  0.00    +0.000 HD
ENDROOT
BRANCH   4   9
ATOM      9  C   UNL     1       6.108   4.272  14.829  0.00  0.00    +0.000 A 
ATOM     10  C   UNL     1       7.237   5.019  14.441  0.00  0.00    +0.000 A 
ATOM     11  C   UNL     1       7.690   5.022  13.118  0.00  0.00    +0.000 A 
ATOM     12  C   UNL     1       7.022   4.276  12.151  0.00  0.00    +0.000 A 
ATOM     13  C   UNL     1       5.903   3.531  12.503  0.00  0.00    +0.000 A 
ATOM     14  C   UNL     1       5.452   3.530  13.828  0.00  0.00    +0.000 A 
ENDBRANCH   4   9
BRANCH   1  16
ATOM     15  C   UNL     1       0.847   3.049  19.663  0.00  0.00    +0.000 C 
ATOM     16  C   UNL     1       2.319   3.528  19.709  0.00  0.00    +0.000 C 
ATOM     17  C   UNL     1       2.309   5.055  19.909  0.00  0.00    +0.000 C 
BRANCH  16  18
ATOM     18  C   UNL     1       3.013   2.793  20.890  0.00  0.00    +0.000 C 
BRANCH  18  19
ATOM     19  O   UNL     1       2.279   2.928  22.114  0.00  0.00    +0.000 OA
ATOM     20  H   UNL     1       1.442   3.372  21.888  0.00  0.00    +0.000 HD
ENDBRANCH  18  19
ENDBRANCH  16  18
ENDBRANCH   1  16
TORSDOF 4
ENDMDL
MODEL 2
REMARK VINA RESULT:      -6.9      0.249      1.159
REMARK  Name = 
REMARK  6 active torsions:
REMARK  status: ('A' for Active; 'I' for Inactive)
REMARK    1  A    between atoms: C_1  and  C_2
REMARK    2  A    between atoms: C_2  and  C_3
REMARK    3  A    between atoms: C_2  and  C_4
REMARK    4  A    between atoms: C_2  and  N_6
REMARK    5  A    between atoms: C_4  and  O_5
REMARK    6  A    between atoms: C_9  and  C_10
REMARK                            x       y       z     vdW  Elec       q    Type
REMARK                         _______ _______ _______ _____ _____    ______ ____
ROOT
ATOM      1  N   UNL     1       2.906   3.562  18.358  0.00  0.00    +0.000 N 
ATOM      2  C   UNL     1       4.175   4.003  17.957  0.00  0.00    +0.000 A 
ATOM      3  C   UNL     1       4.486   3.966  16.611  0.00  0.00    +0.000 A 
ATOM      4  C   UNL     1       5.768   4.322  16.225  0.00  0.00    +0.000 A 
ATOM      5  N   UNL     1       6.698   4.684  17.132  0.00  0.00    +0.000 NA
ATOM      6  C   UNL     1       6.314   4.660  18.409  0.00  0.00    +0.000 A 
ATOM      7  N   UNL     1       5.094   4.348  18.862  0.00  0.00    +0.000 NA
ATOM      8  H   UNL     1       2.224   3.789  17.638  0.00  0.00    +0.000 HD
ENDROOT
BRANCH   4   9
ATOM      9  C   UNL     1       6.218   4.302  14.818  0.00  0.00    +0.000 A 
ATOM     10  C   UNL     1       5.567   3.498  13.863  0.00  0.00    +0.000 A 
ATOM     11  C   UNL     1       5.965   3.494  12.521  0.00  0.00    +0.000 A 
ATOM     12  C   UNL     1       7.023   4.295  12.106  0.00  0.00    +0.000 A 
ATOM     13  C   UNL     1       7.686   5.098  13.027  0.00  0.00    +0.000 A 
ATOM     14  C   UNL     1       7.286   5.100  14.368  0.00  0.00    +0.000 A 
ENDBRANCH   4   9
BRANCH   1  16
ATOM     15  C   UNL     1       0.879   3.510  19.678  0.00  0.00    +0.000 C 
ATOM     16  C   UNL     1       2.370   3.925  19.694  0.00  0.00    +0.000 C 
ATOM     17  C   UNL     1       2.429   5.454  19.864  0.00  0.00    +0.000 C 
BRANCH  16  18
ATOM     18  C   UNL     1       3.049   3.183  20.880  0.00  0.00    +0.000 C 
BRANCH  18  19
ATOM     19  O   UNL     1       2.170   3.045  22.003  0.00  0.00    +0.000 OA
ATOM     20  H   UNL     1       1.262   3.082  21.652  0.00  0.00    +0.000 HD
ENDBRANCH  18  19
ENDBRANCH  16  18
ENDBRANCH   1  16
TORSDOF 4
ENDMDL
MODEL 3
REMARK VINA RESULT:      -6.8      0.754      1.208
REMARK  Name = 
REMARK  6 active torsions:
REMARK  status: ('A' for Active; 'I' for Inactive)
REMARK    1  A    between atoms: C_1  and  C_2
REMARK    2  A    between atoms: C_2  and  C_3
REMARK    3  A    between atoms: C_2  and  C_4
REMARK    4  A    between atoms: C_2  and  N_6
REMARK    5  A    between atoms: C_4  and  O_5
REMARK    6  A    between atoms: C_9  and  C_10
REMARK                            x       y       z     vdW  Elec       q    Type
REMARK                         _______ _______ _______ _____ _____    ______ ____
ROOT
ATOM      1  N   UNL     1       3.203   3.326  18.181  0.00  0.00    +0.000 N 
ATOM      2  C   UNL     1       4.423   3.863  17.745  0.00  0.00    +0.000 A 
ATOM      3  C   UNL     1       4.698   3.849  16.391  0.00  0.00    +0.000 A 
ATOM      4  C   UNL     1       5.938   4.303  15.969  0.00  0.00    +0.000 A 
ATOM      5  N   UNL     1       6.861   4.736  16.850  0.00  0.00    +0.000 NA
ATOM      6  C   UNL     1       6.517   4.684  18.138  0.00  0.00    +0.000 A 
ATOM      7  N   UNL     1       5.338   4.278  18.624  0.00  0.00    +0.000 NA
ATOM      8  H   UNL     1       2.486   3.500  17.481  0.00  0.00    +0.000 HD
ENDROOT
BRANCH   4   9
ATOM      9  C   UNL     1       6.347   4.318  14.550  0.00  0.00    +0.000 A 
ATOM     10  C   UNL     1       7.404   5.139  14.112  0.00  0.00    +0.000 A 
ATOM     11  C   UNL     1       7.821   5.140  12.777  0.00  0.00    +0.000 A 
ATOM     12  C   UNL     1       7.190   4.317  11.849  0.00  0.00    +0.000 A 
ATOM     13  C   UNL     1       6.142   3.497  12.252  0.00  0.00    +0.000 A 
ATOM     14  C   UNL     1       5.727   3.499  13.588  0.00  0.00    +0.000 A 
ENDBRANCH   4   9
BRANCH   1  16
ATOM     15  C   UNL     1       3.332   2.622  20.492  0.00  0.00    +0.000 C 
ATOM     16  C   UNL     1       2.679   3.647  19.532  0.00  0.00    +0.000 C 
ATOM     17  C   UNL     1       1.158   3.407  19.555  0.00  0.00    +0.000 C 
BRANCH  16  18
ATOM     18  C   UNL     1       3.050   5.068  20.042  0.00  0.00    +0.000 C 
BRANCH  18  19
ATOM     19  O   UNL     1       2.332   5.417  21.232  0.00  0.00    +0.000 OA
ATOM     20  H   UNL     1       1.951   4.591  21.579  0.00  0.00    +0.000 HD
ENDBRANCH  18  19
ENDBRANCH  16  18
ENDBRANCH   1  16
TORSDOF 4
ENDMDL
MODEL 4
REMARK VINA RESULT:      -6.8      0.754      1.724
REMARK  Name = 
REMARK  6 active torsions:
REMARK  status: ('A' for Active; 'I' for Inactive)
REMARK    1  A    between atoms: C_1  and  C_2
REMARK    2  A    between atoms: C_2  and  C_3
REMARK    3  A    between atoms: C_2  and  C_4
REMARK    4  A    between atoms: C_2  and  N_6
REMARK    5  A    between atoms: C_4  and  O_5
REMARK    6  A    between atoms: C_9  and  C_10
REMARK                            x       y       z     vdW  Elec       q    Type
REMARK                         _______ _______ _______ _____ _____    ______ ____
ROOT
ATOM      1  N   UNL     1       2.866   3.169  18.056  0.00  0.00    +0.000 N 
ATOM      2  C   UNL     1       4.059   3.813  17.699  0.00  0.00    +0.000 A 
ATOM      3  C   UNL     1       4.460   3.763  16.378  0.00  0.00    +0.000 A 
ATOM      4  C   UNL     1       5.681   4.328  16.042  0.00  0.00    +0.000 A 
ATOM      5  N   UNL     1       6.468   4.901  16.974  0.00  0.00    +0.000 NA
ATOM      6  C   UNL     1       6.010   4.875  18.227  0.00  0.00    +0.000 A 
ATOM      7  N   UNL     1       4.839   4.368  18.630  0.00  0.00    +0.000 NA
ATOM      8  H   UNL     1       2.204   3.229  17.286  0.00  0.00    +0.000 HD
ENDROOT
BRANCH   4   9
ATOM      9  C   UNL     1       6.219   4.317  14.666  0.00  0.00    +0.000 A 
ATOM     10  C   UNL     1       5.627   3.524  13.665  0.00  0.00    +0.000 A 
ATOM     11  C   UNL     1       6.109   3.528  12.351  0.00  0.00    +0.000 A 
ATOM     12  C   UNL     1       7.195   4.328  12.011  0.00  0.00    +0.000 A 
ATOM     13  C   UNL     1       7.802   5.121  12.978  0.00  0.00    +0.000 A 
ATOM     14  C   UNL     1       7.317   5.114  14.291  0.00  0.00    +0.000 A 
ENDBRANCH   4   9
BRANCH   1  16
ATOM     15  C   UNL     1       3.064   2.877  20.449  0.00  0.00    +0.000 C 
ATOM     16  C   UNL     1       2.186   3.497  19.334  0.00  0.00    +0.000 C 
ATOM     17  C   UNL     1       0.815   2.796  19.373  0.00  0.00    +0.000 C 
BRANCH  16  18
ATOM     18  C   UNL     1       2.067   5.019  19.624  0.00  0.00    +0.000 C 
BRANCH  18  19
ATOM     19  O   UNL     1       2.928   5.433  20.694  0.00  0.00    +0.000 OA
ATOM     20  H   UNL     1       2.414   5.338  21.516  0.00  0.00    +0.000 HD
ENDBRANCH  18  19
ENDBRANCH  16  18
ENDBRANCH   1  16
TORSDOF 4
ENDMDL
MODEL 5
REMARK VINA RESULT:      -6.8      0.970      1.491
REMARK  Name = 
REMARK  6 active torsions:
REMARK  status: ('A' for Active; 'I' for Inactive)
REMARK    1  A    between atoms: C_1  and  C_2
REMARK    2  A    between atoms: C_2  and  C_3
REMARK    3  A    between atoms: C_2  and  C_4
REMARK    4  A    between atoms: C_2  and  N_6
REMARK    5  A    between atoms: C_4  and  O_5
REMARK    6  A    between atoms: C_9  and  C_10
REMARK                            x       y       z     vdW  Elec       q    Type
REMARK                         _______ _______ _______ _____ _____    ______ ____
ROOT
ATOM      1  N   UNL     1       3.480   2.789  18.095  0.00  0.00    +0.000 N 
ATOM      2  C   UNL     1       4.486   3.656  17.645  0.00  0.00    +0.000 A 
ATOM      3  C   UNL     1       4.856   3.595  16.315  0.00  0.00    +0.000 A 
ATOM      4  C   UNL     1       5.908   4.392  15.890  0.00  0.00    +0.000 A 
ATOM      5  N   UNL     1       6.566   5.198  16.747  0.00  0.00    +0.000 NA
ATOM      6  C   UNL     1       6.158   5.166  18.017  0.00  0.00    +0.000 A 
ATOM      7  N   UNL     1       5.143   4.442  18.502  0.00  0.00    +0.000 NA
ATOM      8  H   UNL     1       2.803   2.640  17.351  0.00  0.00    +0.000 HD
ENDROOT
BRANCH   4   9
ATOM      9  C   UNL     1       6.400   4.397  14.498  0.00  0.00    +0.000 A 
ATOM     10  C   UNL     1       5.800   3.585  13.517  0.00  0.00    +0.000 A 
ATOM     11  C   UNL     1       6.238   3.602  12.188  0.00  0.00    +0.000 A 
ATOM     12  C   UNL     1       7.287   4.435  11.811  0.00  0.00    +0.000 A 
ATOM     13  C   UNL     1       7.901   5.246  12.758  0.00  0.00    +0.000 A 
ATOM     14  C   UNL     1       7.460   5.226  14.086  0.00  0.00    +0.000 A 
ENDBRANCH   4   9
BRANCH   1  16
ATOM     15  C   UNL     1       1.482   2.205  19.328  0.00  0.00    +0.000 C 
ATOM     16  C   UNL     1       2.776   3.054  19.375  0.00  0.00    +0.000 C 
ATOM     17  C   UNL     1       2.362   4.537  19.427  0.00  0.00    +0.000 C 
BRANCH  16  18
ATOM     18  C   UNL     1       3.569   2.629  20.643  0.00  0.00    +0.000 C 
BRANCH  18  19
ATOM     19  O   UNL     1       4.828   2.029  20.314  0.00  0.00    +0.000 OA
ATOM     20  H   UNL     1       5.105   2.414  19.463  0.00  0.00    +0.000 HD
ENDBRANCH  18  19
ENDBRANCH  16  18
ENDBRANCH   1  16
TORSDOF 4
ENDMDL
MODEL 6
REMARK VINA RESULT:      -6.6      1.468      1.971
REMARK  Name = 
REMARK  6 active torsions:
REMARK  status: ('A' for Active; 'I' for Inactive)
REMARK    1  A    between atoms: C_1  and  C_2
REMARK    2  A    between atoms: C_2  and  C_3
REMARK    3  A    between atoms: C_2  and  C_4
REMARK    4  A    between atoms: C_2  and  N_6
REMARK    5  A    between atoms: C_4  and  O_5
REMARK    6  A    between atoms: C_9  and  C_10
REMARK                            x       y       z     vdW  Elec       q    Type
REMARK                         _______ _______ _______ _____ _____    ______ ____
ROOT
ATOM      1  N   UNL     1       3.679   3.454  18.421  0.00  0.00    +0.000 N 
ATOM      2  C   UNL     1       4.162   4.437  17.546  0.00  0.00    +0.000 A 
ATOM      3  C   UNL     1       4.791   4.028  16.385  0.00  0.00    +0.000 A 
ATOM      4  C   UNL     1       5.342   4.998  15.562  0.00  0.00    +0.000 A 
ATOM      5  N   UNL     1       5.282   6.305  15.882  0.00  0.00    +0.000 NA
ATOM      6  C   UNL     1       4.681   6.601  17.037  0.00  0.00    +0.000 A 
ATOM      7  N   UNL     1       4.110   5.730  17.876  0.00  0.00    +0.000 NA
ATOM      8  H   UNL     1       3.360   2.651  17.887  0.00  0.00    +0.000 HD
ENDROOT
BRANCH   4   9
ATOM      9  C   UNL     1       6.053   4.676  14.308  0.00  0.00    +0.000 A 
ATOM     10  C   UNL     1       5.552   3.702  13.423  0.00  0.00    +0.000 A 
ATOM     11  C   UNL     1       6.200   3.410  12.217  0.00  0.00    +0.000 A 
ATOM     12  C   UNL     1       7.364   4.088  11.871  0.00  0.00    +0.000 A 
ATOM     13  C   UNL     1       7.884   5.054  12.725  0.00  0.00    +0.000 A 
ATOM     14  C   UNL     1       7.233   5.344  13.930  0.00  0.00    +0.000 A 
ENDBRANCH   4   9
BRANCH   1  16
ATOM     15  C   UNL     1       2.479   2.513  20.300  0.00  0.00    +0.000 C 
ATOM     16  C   UNL     1       2.678   3.800  19.462  0.00  0.00    +0.000 C 
ATOM     17  C   UNL     1       1.336   4.130  18.783  0.00  0.00    +0.000 C 
BRANCH  16  18
ATOM     18  C   UNL     1       3.128   4.926  20.435  0.00  0.00    +0.000 C 
BRANCH  18  19
ATOM     19  O   UNL     1       2.339   6.113  20.285  0.00  0.00    +0.000 OA
ATOM     20  H   UNL     1       1.438   5.822  20.057  0.00  0.00    +0.000 HD
ENDBRANCH  18  19
ENDBRANCH  16  18
ENDBRANCH   1  16
TORSDOF 4
ENDMDL
MODEL 7
REMARK VINA RESULT:      -6.6      3.648      7.052
REMARK  Name = 
REMARK  6 active torsions:
REMARK  status: ('A' for Active; 'I' for Inactive)
REMARK    1  A    between atoms: C_1  and  C_2
REMARK    2  A    between atoms: C_2  and  C_3
REMARK    3  A    between atoms: C_2  and  C_4
REMARK    4  A    between atoms: C_2  and  N_6
REMARK    5  A    between atoms: C_4  and  O_5
REMARK    6  A    between atoms: C_9  and  C_10
REMARK                            x       y       z     vdW  Elec       q    Type
REMARK                         _______ _______ _______ _____ _____    ______ ____
ROOT
ATOM      1  N   UNL     1       5.116   6.248  16.610  0.00  0.00    +0.000 N 
ATOM      2  C   UNL     1       4.221   6.277  17.689  0.00  0.00    +0.000 A 
ATOM      3  C   UNL     1       3.357   7.350  17.794  0.00  0.00    +0.000 A 
ATOM      4  C   UNL     1       2.531   7.420  18.905  0.00  0.00    +0.000 A 
ATOM      5  N   UNL     1       2.571   6.478  19.868  0.00  0.00    +0.000 NA
ATOM      6  C   UNL     1       3.458   5.496  19.694  0.00  0.00    +0.000 A 
ATOM      7  N   UNL     1       4.275   5.346  18.646  0.00  0.00    +0.000 NA
ATOM      8  H   UNL     1       4.680   6.674  15.796  0.00  0.00    +0.000 HD
ENDROOT
BRANCH   4   9
ATOM      9  C   UNL     1       1.582   8.529  19.132  0.00  0.00    +0.000 A 
ATOM     10  C   UNL     1       1.118   9.313  18.059  0.00  0.00    +0.000 A 
ATOM     11  C   UNL     1       0.196  10.347  18.256  0.00  0.00    +0.000 A 
ATOM     12  C   UNL     1      -0.283  10.619  19.534  0.00  0.00    +0.000 A 
ATOM     13  C   UNL     1       0.159   9.863  20.614  0.00  0.00    +0.000 A 
ATOM     14  C   UNL     1       1.081   8.829  20.413  0.00  0.00    +0.000 A 
ENDBRANCH   4   9
BRANCH   1  16
ATOM     15  C   UNL     1       6.099   5.116  14.711  0.00  0.00    +0.000 C 
ATOM     16  C   UNL     1       5.784   4.980  16.221  0.00  0.00    +0.000 C 
ATOM     17  C   UNL     1       4.793   3.813  16.390  0.00  0.00    +0.000 C 
BRANCH  16  18
ATOM     18  C   UNL     1       7.127   4.712  16.956  0.00  0.00    +0.000 C 
BRANCH  18  19
ATOM     19  O   UNL     1       6.927   4.102  18.237  0.00  0.00    +0.000 OA
ATOM     20  H   UNL     1       7.054   4.803  18.902  0.00  0.00    +0.000 HD
ENDBRANCH  18  19
ENDBRANCH  16  18
ENDBRANCH   1  16
TORSDOF 4
ENDMDL
MODEL 8
REMARK VINA RESULT:      -6.6      0.671      1.274
REMARK  Name = 
REMARK  6 active torsions:
REMARK  status: ('A' for Active; 'I' for Inactive)
REMARK    1  A    between atoms: C_1  and  C_2
REMARK    2  A    between atoms: C_2  and  C_3
REMARK    3  A    between atoms: C_2  and  C_4
REMARK    4  A    between atoms: C_2  and  N_6
REMARK    5  A    between atoms: C_4  and  O_5
REMARK    6  A    between atoms: C_9  and  C_10
REMARK                            x       y       z     vdW  Elec       q    Type
REMARK                         _______ _______ _______ _____ _____    ______ ____
ROOT
ATOM      1  N   UNL     1       3.175   3.419  18.194  0.00  0.00    +0.000 N 
ATOM      2  C   UNL     1       4.416   3.910  17.765  0.00  0.00    +0.000 A 
ATOM      3  C   UNL     1       4.688   3.906  16.410  0.00  0.00    +0.000 A 
ATOM      4  C   UNL     1       5.946   4.313  15.994  0.00  0.00    +0.000 A 
ATOM      5  N   UNL     1       6.888   4.692  16.879  0.00  0.00    +0.000 NA
ATOM      6  C   UNL     1       6.543   4.635  18.167  0.00  0.00    +0.000 A 
ATOM      7  N   UNL     1       5.349   4.273  18.649  0.00  0.00    +0.000 NA
ATOM      8  H   UNL     1       2.465   3.634  17.499  0.00  0.00    +0.000 HD
ENDROOT
BRANCH   4   9
ATOM      9  C   UNL     1       6.355   4.332  14.574  0.00  0.00    +0.000 A 
ATOM     10  C   UNL     1       7.411   5.154  14.138  0.00  0.00    +0.000 A 
ATOM     11  C   UNL     1       7.827   5.159  12.802  0.00  0.00    +0.000 A 
ATOM     12  C   UNL     1       7.195   4.339  11.873  0.00  0.00    +0.000 A 
ATOM     13  C   UNL     1       6.148   3.518  12.274  0.00  0.00    +0.000 A 
ATOM     14  C   UNL     1       5.734   3.515  13.610  0.00  0.00    +0.000 A 
ENDBRANCH   4   9
BRANCH   1  16
ATOM     15  C   UNL     1       3.183   5.167  19.868  0.00  0.00    +0.000 C 
ATOM     16  C   UNL     1       2.667   3.742  19.552  0.00  0.00    +0.000 C 
ATOM     17  C   UNL     1       3.300   2.776  20.571  0.00  0.00    +0.000 C 
BRANCH  16  18
ATOM     18  C   UNL     1       1.116   3.770  19.666  0.00  0.00    +0.000 C 
BRANCH  18  19
ATOM     19  O   UNL     1       0.645   3.014  20.788  0.00  0.00    +0.000 OA
ATOM     20  H   UNL     1       1.216   2.227  20.852  0.00  0.00    +0.000 HD
ENDBRANCH  18  19
ENDBRANCH  16  18
ENDBRANCH   1  16
TORSDOF 4
ENDMDL
MODEL 9
REMARK VINA RESULT:      -6.6      3.675      7.080
REMARK  Name = 
REMARK  6 active torsions:
REMARK  status: ('A' for Active; 'I' for Inactive)
REMARK    1  A    between atoms: C_1  and  C_2
REMARK    2  A    between atoms: C_2  and  C_3
REMARK    3  A    between atoms: C_2  and  C_4
REMARK    4  A    between atoms: C_2  and  N_6
REMARK    5  A    between atoms: C_4  and  O_5
REMARK    6  A    between atoms: C_9  and  C_10
REMARK                            x       y       z     vdW  Elec       q    Type
REMARK                         _______ _______ _______ _____ _____    ______ ____
ROOT
ATOM      1  N   UNL     1       5.041   6.262  16.667  0.00  0.00    +0.000 N 
ATOM      2  C   UNL     1       4.141   6.296  17.740  0.00  0.00    +0.000 A 
ATOM      3  C   UNL     1       3.297   7.384  17.854  0.00  0.00    +0.000 A 
ATOM      4  C   UNL     1       2.467   7.458  18.961  0.00  0.00    +0.000 A 
ATOM      5  N   UNL     1       2.483   6.504  19.913  0.00  0.00    +0.000 NA
ATOM      6  C   UNL     1       3.352   5.507  19.732  0.00  0.00    +0.000 A 
ATOM      7  N   UNL     1       4.172   5.353  18.687  0.00  0.00    +0.000 NA
ATOM      8  H   UNL     1       4.619   6.706  15.855  0.00  0.00    +0.000 HD
ENDROOT
BRANCH   4   9
ATOM      9  C   UNL     1       1.539   8.583  19.195  0.00  0.00    +0.000 A 
ATOM     10  C   UNL     1       1.075   8.878  20.492  0.00  0.00    +0.000 A 
ATOM     11  C   UNL     1       0.219   9.959  20.731  0.00  0.00    +0.000 A 
ATOM     12  C   UNL     1      -0.192  10.769  19.677  0.00  0.00    +0.000 A 
ATOM     13  C   UNL     1       0.248  10.500  18.386  0.00  0.00    +0.000 A 
ATOM     14  C   UNL     1       1.104   9.419  18.150  0.00  0.00    +0.000 A 
ENDBRANCH   4   9
BRANCH   1  16
ATOM     15  C   UNL     1       5.991   5.124  14.754  0.00  0.00    +0.000 C 
ATOM     16  C   UNL     1       5.687   4.986  16.266  0.00  0.00    +0.000 C 
ATOM     17  C   UNL     1       4.680   3.833  16.439  0.00  0.00    +0.000 C 
BRANCH  16  18
ATOM     18  C   UNL     1       7.032   4.694  16.989  0.00  0.00    +0.000 C 
BRANCH  18  19
ATOM     19  O   UNL     1       6.832   4.126  18.289  0.00  0.00    +0.000 OA
ATOM     20  H   UNL     1       6.040   4.553  18.660  0.00  0.00    +0.000 HD
ENDBRANCH  18  19
ENDBRANCH  16  18
ENDBRANCH   1  16
TORSDOF 4
ENDMDL
