MODEL 1
REMARK VINA RESULT:      -4.6      0.000      0.000
REMARK  Name = 
REMARK  0 active torsions:
REMARK  status: ('A' for Active; 'I' for Inactive)
REMARK                            x       y       z     vdW  Elec       q    Type
REMARK                         _______ _______ _______ _____ _____    ______ ____
ROOT
ATOM      1  F   UNL     1       0.732   2.599  18.361  0.00  0.00    +0.000 F 
ATOM      2  C   UNL     1       1.994   3.052  18.348  0.00  0.00    +0.000 A 
ATOM      3  C   UNL     1       2.597   3.295  17.116  0.00  0.00    +0.000 A 
ATOM      4  C   UNL     1       3.911   3.762  17.070  0.00  0.00    +0.000 A 
ATOM      5  C   UNL     1       4.607   3.986  18.258  0.00  0.00    +0.000 A 
ATOM      6 CL   UNL     1       6.231   4.555  18.199  0.00  0.00    +0.000 Cl
ATOM      7  C   UNL     1       4.004   3.747  19.494  0.00  0.00    +0.000 A 
ATOM      8  C   UNL     1       2.691   3.276  19.536  0.00  0.00    +0.000 A 
ATOM      9  I   UNL     1       1.798   2.903  21.377  0.00  0.00    +0.000 I 
ENDROOT
TORSDOF 0
ENDMDL
MODEL 2
REMARK VINA RESULT:      -4.6      3.257      3.998
REMARK  Name = 
REMARK  0 active torsions:
REMARK  status: ('A' for Active; 'I' for Inactive)
REMARK                            x       y       z     vdW  Elec       q    Type
REMARK                         _______ _______ _______ _____ _____    ______ ____
ROOT
ATOM      1  F   UNL     1       5.488   5.192  19.641  0.00  0.00    +0.000 F 
ATOM      2  C   UNL     1       5.672   4.880  18.350  0.00  0.00    +0.000 A 
ATOM      3  C   UNL     1       6.976   4.821  17.862  0.00  0.00    +0.000 A 
ATOM      4  C   UNL     1       7.199   4.505  16.521  0.00  0.00    +0.000 A 
ATOM      5  C   UNL     1       6.114   4.245  15.683  0.00  0.00    +0.000 A 
ATOM      6 CL   UNL     1       6.391   3.863  14.028  0.00  0.00    +0.000 Cl
ATOM      7  C   UNL     1       4.807   4.300  16.170  0.00  0.00    +0.000 A 
ATOM      8  C   UNL     1       4.588   4.622  17.510  0.00  0.00    +0.000 A 
ATOM      9  I   UNL     1       2.640   4.720  18.231  0.00  0.00    +0.000 I 
ENDROOT
TORSDOF 0
ENDMDL
MODEL 3
REMARK VINA RESULT:      -4.6      3.068      3.470
REMARK  Name = 
REMARK  0 active torsions:
REMARK  status: ('A' for Active; 'I' for Inactive)
REMARK                            x       y       z     vdW  Elec       q    Type
REMARK                         _______ _______ _______ _____ _____    ______ ____
ROOT
ATOM      1  F   UNL     1       3.938   3.627  16.464  0.00  0.00    +0.000 F 
ATOM      2  C   UNL     1       3.372   3.400  17.657  0.00  0.00    +0.000 A 
ATOM      3  C   UNL     1       2.220   2.618  17.705  0.00  0.00    +0.000 A 
ATOM      4  C   UNL     1       1.604   2.369  18.932  0.00  0.00    +0.000 A 
ATOM      5  C   UNL     1       2.151   2.901  20.101  0.00  0.00    +0.000 A 
ATOM      6 CL   UNL     1       1.385   2.598  21.612  0.00  0.00    +0.000 Cl
ATOM      7  C   UNL     1       3.307   3.681  20.056  0.00  0.00    +0.000 A 
ATOM      8  C   UNL     1       3.917   3.932  18.826  0.00  0.00    +0.000 A 
ATOM      9  I   UNL     1       5.630   5.110  18.758  0.00  0.00    +0.000 I 
ENDROOT
TORSDOF 0
ENDMDL
MODEL 4
REMARK VINA RESULT:      -4.5      3.874      4.333
REMARK  Name = 
REMARK  0 active torsions:
REMARK  status: ('A' for Active; 'I' for Inactive)
REMARK                            x       y       z     vdW  Elec       q    Type
REMARK                         _______ _______ _______ _____ _____    ______ ____
ROOT
ATOM      1  F   UNL     1       4.850   6.901  17.093  0.00  0.00    +0.000 F 
ATOM      2  C   UNL     1       4.052   5.863  17.382  0.00  0.00    +0.000 A 
ATOM      3  C   UNL     1       2.952   6.085  18.209  0.00  0.00    +0.000 A 
ATOM      4  C   UNL     1       2.106   5.024  18.533  0.00  0.00    +0.000 A 
ATOM      5  C   UNL     1       2.366   3.751  18.022  0.00  0.00    +0.000 A 
ATOM      6 CL   UNL     1       1.325   2.442  18.430  0.00  0.00    +0.000 Cl
ATOM      7  C   UNL     1       3.465   3.527  17.191  0.00  0.00    +0.000 A 
ATOM      8  C   UNL     1       4.311   4.591  16.873  0.00  0.00    +0.000 A 
ATOM      9  I   UNL     1       5.959   4.253  15.649  0.00  0.00    +0.000 I 
ENDROOT
TORSDOF 0
ENDMDL
MODEL 5
REMARK VINA RESULT:      -4.5      1.916      1.971
REMARK  Name = 
REMARK  0 active torsions:
REMARK  status: ('A' for Active; 'I' for Inactive)
REMARK                            x       y       z     vdW  Elec       q    Type
REMARK                         _______ _______ _______ _____ _____    ______ ____
ROOT
ATOM      1  F   UNL     1       3.336   1.438  18.760  0.00  0.00    +0.000 F 
ATOM      2  C   UNL     1       3.346   2.762  18.546  0.00  0.00    +0.000 A 
ATOM      3  C   UNL     1       3.974   3.242  17.398  0.00  0.00    +0.000 A 
ATOM      4  C   UNL     1       4.007   4.614  17.150  0.00  0.00    +0.000 A 
ATOM      5  C   UNL     1       3.405   5.494  18.051  0.00  0.00    +0.000 A 
ATOM      6 CL   UNL     1       3.453   7.187  17.747  0.00  0.00    +0.000 Cl
ATOM      7  C   UNL     1       2.772   5.016  19.200  0.00  0.00    +0.000 A 
ATOM      8  C   UNL     1       2.746   3.642  19.447  0.00  0.00    +0.000 A 
ATOM      9  I   UNL     1       1.818   2.931  21.167  0.00  0.00    +0.000 I 
ENDROOT
TORSDOF 0
ENDMDL
MODEL 6
REMARK VINA RESULT:      -4.5      2.314      2.483
REMARK  Name = 
REMARK  0 active torsions:
REMARK  status: ('A' for Active; 'I' for Inactive)
REMARK                            x       y       z     vdW  Elec       q    Type
REMARK                         _______ _______ _______ _____ _____    ______ ____
ROOT
ATOM      1  F   UNL     1       1.509   6.097  20.831  0.00  0.00    +0.000 F 
ATOM      2  C   UNL     1       2.265   5.606  19.840  0.00  0.00    +0.000 A 
ATOM      3  C   UNL     1       2.748   6.488  18.875  0.00  0.00    +0.000 A 
ATOM      4  C   UNL     1       3.533   6.005  17.828  0.00  0.00    +0.000 A 
ATOM      5  C   UNL     1       3.833   4.644  17.759  0.00  0.00    +0.000 A 
ATOM      6 CL   UNL     1       4.795   4.050  16.462  0.00  0.00    +0.000 Cl
ATOM      7  C   UNL     1       3.355   3.759  18.726  0.00  0.00    +0.000 A 
ATOM      8  C   UNL     1       2.565   4.245  19.770  0.00  0.00    +0.000 A 
ATOM      9  I   UNL     1       1.838   2.922  21.201  0.00  0.00    +0.000 I 
ENDROOT
TORSDOF 0
ENDMDL
MODEL 7
REMARK VINA RESULT:      -4.5      3.531      3.899
REMARK  Name = 
REMARK  0 active torsions:
REMARK  status: ('A' for Active; 'I' for Inactive)
REMARK                            x       y       z     vdW  Elec       q    Type
REMARK                         _______ _______ _______ _____ _____    ______ ____
ROOT
ATOM      1  F   UNL     1       4.893   6.060  16.883  0.00  0.00    +0.000 F 
ATOM      2  C   UNL     1       3.940   5.221  17.314  0.00  0.00    +0.000 A 
ATOM      3  C   UNL     1       4.129   3.853  17.130  0.00  0.00    +0.000 A 
ATOM      4  C   UNL     1       3.152   2.955  17.562  0.00  0.00    +0.000 A 
ATOM      5  C   UNL     1       1.997   3.436  18.179  0.00  0.00    +0.000 A 
ATOM      6 CL   UNL     1       0.790   2.327  18.704  0.00  0.00    +0.000 Cl
ATOM      7  C   UNL     1       1.806   4.805  18.368  0.00  0.00    +0.000 A 
ATOM      8  C   UNL     1       2.783   5.700  17.930  0.00  0.00    +0.000 A 
ATOM      9  I   UNL     1       2.491   7.742  18.196  0.00  0.00    +0.000 I 
ENDROOT
TORSDOF 0
ENDMDL
MODEL 8
REMARK VINA RESULT:      -4.5      4.244      4.919
REMARK  Name = 
REMARK  0 active torsions:
REMARK  status: ('A' for Active; 'I' for Inactive)
REMARK                            x       y       z     vdW  Elec       q    Type
REMARK                         _______ _______ _______ _____ _____    ______ ____
ROOT
ATOM      1  F   UNL     1       7.813   4.920  17.584  0.00  0.00    +0.000 F 
ATOM      2  C   UNL     1       6.488   4.946  17.789  0.00  0.00    +0.000 A 
ATOM      3  C   UNL     1       6.023   5.188  19.080  0.00  0.00    +0.000 A 
ATOM      4  C   UNL     1       4.650   5.216  19.327  0.00  0.00    +0.000 A 
ATOM      5  C   UNL     1       3.755   5.006  18.277  0.00  0.00    +0.000 A 
ATOM      6 CL   UNL     1       2.062   5.033  18.585  0.00  0.00    +0.000 Cl
ATOM      7  C   UNL     1       4.218   4.768  16.982  0.00  0.00    +0.000 A 
ATOM      8  C   UNL     1       5.592   4.736  16.740  0.00  0.00    +0.000 A 
ATOM      9  I   UNL     1       6.282   4.364  14.814  0.00  0.00    +0.000 I 
ENDROOT
TORSDOF 0
ENDMDL
MODEL 9
REMARK VINA RESULT:      -4.5      3.024      3.610
REMARK  Name = 
REMARK  0 active torsions:
REMARK  status: ('A' for Active; 'I' for Inactive)
REMARK                            x       y       z     vdW  Elec       q    Type
REMARK                         _______ _______ _______ _____ _____    ______ ____
ROOT
ATOM      1  F   UNL     1       1.269   6.240  20.944  0.00  0.00    +0.000 F 
ATOM      2  C   UNL     1       1.772   5.151  20.344  0.00  0.00    +0.000 A 
ATOM      3  C   UNL     1       1.575   3.912  20.949  0.00  0.00    +0.000 A 
ATOM      4  C   UNL     1       2.092   2.761  20.352  0.00  0.00    +0.000 A 
ATOM      5  C   UNL     1       2.797   2.863  19.151  0.00  0.00    +0.000 A 
ATOM      6 CL   UNL     1       3.440   1.443  18.421  0.00  0.00    +0.000 Cl
ATOM      7  C   UNL     1       2.992   4.103  18.541  0.00  0.00    +0.000 A 
ATOM      8  C   UNL     1       2.477   5.252  19.144  0.00  0.00    +0.000 A 
ATOM      9  I   UNL     1       2.783   7.101  18.244  0.00  0.00    +0.000 I 
ENDROOT
TORSDOF 0
ENDMDL
