MODEL 1
REMARK VINA RESULT:      -7.3      0.000      0.000
REMARK  Name = 
REMARK  12 active torsions:
REMARK  status: ('A' for Active; 'I' for Inactive)
REMARK    1  A    between atoms: C_1  and  C_2
REMARK    2  A    between atoms: C_2  and  C_3
REMARK    3  A    between atoms: C_3  and  C_4
REMARK    4  A    between atoms: C_4  and  C_5
REMARK    5  A    between atoms: C_5  and  O_6
REMARK    6  A    between atoms: N_9  and  C_10
REMARK    7  A    between atoms: C_10  and  C_11
REMARK    8  A    between atoms: C_11  and  C_12
REMARK    9  A    between atoms: C_12  and  C_13
REMARK   10  A    between atoms: C_13  and  C_14
REMARK   11  A    between atoms: C_13  and  C_16
REMARK   12  A    between atoms: C_13  and  C_22
REMARK                            x       y       z     vdW  Elec       q    Type
REMARK                         _______ _______ _______ _____ _____    ______ ____
ROOT
ATOM      1  C   UNL     1       4.261   7.050  17.927  0.00  0.00    +0.000 C 
ENDROOT
BRANCH   1   2
ATOM      2  C   UNL     1       2.871   7.413  18.467  0.00  0.00    +0.000 C 
BRANCH   2   3
ATOM      3  C   UNL     1       2.255   8.644  17.797  0.00  0.00    +0.000 C 
BRANCH   3   7
ATOM      4  C   UNL     1       0.026  10.983  20.707  0.00  0.00    +0.000 C 
ATOM      5  C   UNL     1       0.060   9.447  20.783  0.00  0.00    +0.000 C 
ATOM      6  C   UNL     1       1.225   8.862  19.997  0.00  0.00    +0.000 C 
ATOM      7  N   UNL     1       1.205   9.305  18.596  0.00  0.00    +0.000 NA
ATOM      8  C   UNL     1       1.292  10.773  18.523  0.00  0.00    +0.000 C 
ATOM      9  C   UNL     1       0.110  11.430  19.239  0.00  0.00    +0.000 C 
BRANCH   4  10
ATOM     10  O   UNL     1       1.172  11.527  21.377  0.00  0.00    +0.000 OA
ATOM     11  H   UNL     1       1.858  11.721  20.718  0.00  0.00    +0.000 HD
ENDBRANCH   4  10
BRANCH   4  12
ATOM     12  C   UNL     1      -1.246  11.556  21.371  0.00  0.00    +0.000 C 
BRANCH  12  13
ATOM     13  C   UNL     1      -1.049  11.911  22.852  0.00  0.00    +0.000 C 
BRANCH  13  15
ATOM     14  C   UNL     1      -3.406  12.732  22.877  0.00  0.00    +0.000 C 
ATOM     15  C   UNL     1      -1.981  13.023  23.322  0.00  0.00    +0.000 C 
ENDBRANCH  13  15
ENDBRANCH  12  13
ENDBRANCH   4  12
ENDBRANCH   3   7
ENDBRANCH   2   3
ENDBRANCH   1   2
BRANCH   1  16
ATOM     16  C   UNL     1       4.581   5.513  18.047  0.00  0.00    +0.000 C 
BRANCH  16  17
ATOM     17  C   UNL     1       3.364   4.676  18.550  0.00  0.00    +0.000 A 
ATOM     18  C   UNL     1       2.326   4.258  17.688  0.00  0.00    +0.000 A 
ATOM     19  C   UNL     1       1.207   3.571  18.172  0.00  0.00    +0.000 A 
ATOM     20  C   UNL     1       1.102   3.274  19.527  0.00  0.00    +0.000 A 
ATOM     21  C   UNL     1       2.129   3.634  20.392  0.00  0.00    +0.000 A 
ATOM     22  C   UNL     1       3.252   4.310  19.908  0.00  0.00    +0.000 A 
ENDBRANCH  16  17
BRANCH  16  23
ATOM     23  C   UNL     1       5.065   5.054  16.644  0.00  0.00    +0.000 A 
ATOM     24  C   UNL     1       5.451   3.715  16.406  0.00  0.00    +0.000 A 
ATOM     25  C   UNL     1       5.913   3.303  15.156  0.00  0.00    +0.000 A 
ATOM     26  C   UNL     1       6.022   4.219  14.119  0.00  0.00    +0.000 A 
ATOM     27  C   UNL     1       5.677   5.549  14.330  0.00  0.00    +0.000 A 
ATOM     28  C   UNL     1       5.209   5.965  15.579  0.00  0.00    +0.000 A 
ENDBRANCH  16  23
BRANCH  16  29
ATOM     29  C   UNL     1       5.700   5.395  19.047  0.00  0.00    +0.000 C 
ATOM     30  N   UNL     1       6.553   5.313  19.835  0.00  0.00    +0.000 NA
ENDBRANCH  16  29
ENDBRANCH   1  16
TORSDOF 11
ENDMDL
MODEL 2
REMARK VINA RESULT:      -7.3      1.168      1.706
REMARK  Name = 
REMARK  12 active torsions:
REMARK  status: ('A' for Active; 'I' for Inactive)
REMARK    1  A    between atoms: C_1  and  C_2
REMARK    2  A    between atoms: C_2  and  C_3
REMARK    3  A    between atoms: C_3  and  C_4
REMARK    4  A    between atoms: C_4  and  C_5
REMARK    5  A    between atoms: C_5  and  O_6
REMARK    6  A    between atoms: N_9  and  C_10
REMARK    7  A    between atoms: C_10  and  C_11
REMARK    8  A    between atoms: C_11  and  C_12
REMARK    9  A    between atoms: C_12  and  C_13
REMARK   10  A    between atoms: C_13  and  C_14
REMARK   11  A    between atoms: C_13  and  C_16
REMARK   12  A    between atoms: C_13  and  C_22
REMARK                            x       y       z     vdW  Elec       q    Type
REMARK                         _______ _______ _______ _____ _____    ______ ____
ROOT
ATOM      1  C   UNL     1       4.266   7.099  18.008  0.00  0.00    +0.000 C 
ENDROOT
BRANCH   1   2
ATOM      2  C   UNL     1       2.789   7.437  18.253  0.00  0.00    +0.000 C 
BRANCH   2   3
ATOM      3  C   UNL     1       2.333   8.728  17.568  0.00  0.00    +0.000 C 
BRANCH   3   7
ATOM      4  C   UNL     1      -0.166  11.896  19.187  0.00  0.00    +0.000 C 
ATOM      5  C   UNL     1       1.359  11.912  19.383  0.00  0.00    +0.000 C 
ATOM      6  C   UNL     1       2.073  11.011  18.383  0.00  0.00    +0.000 C 
ATOM      7  N   UNL     1       1.564   9.635  18.441  0.00  0.00    +0.000 NA
ATOM      8  C   UNL     1       0.122   9.609  18.136  0.00  0.00    +0.000 C 
ATOM      9  C   UNL     1      -0.667  10.444  19.147  0.00  0.00    +0.000 C 
BRANCH   4  10
ATOM     10  O   UNL     1      -0.499  12.489  17.924  0.00  0.00    +0.000 OA
ATOM     11  H   UNL     1       0.258  13.010  17.612  0.00  0.00    +0.000 HD
ENDBRANCH   4  10
BRANCH   4  12
ATOM     12  C   UNL     1      -0.889  12.683  20.303  0.00  0.00    +0.000 C 
BRANCH  12  13
ATOM     13  C   UNL     1      -0.362  12.364  21.709  0.00  0.00    +0.000 C 
BRANCH  13  15
ATOM     14  C   UNL     1      -0.853  10.338  23.081  0.00  0.00    +0.000 C 
ATOM     15  C   UNL     1      -1.399  11.670  22.586  0.00  0.00    +0.000 C 
ENDBRANCH  13  15
ENDBRANCH  12  13
ENDBRANCH   4  12
ENDBRANCH   3   7
ENDBRANCH   2   3
ENDBRANCH   1   2
BRANCH   1  16
ATOM     16  C   UNL     1       4.570   5.559  18.132  0.00  0.00    +0.000 C 
BRANCH  16  17
ATOM     17  C   UNL     1       3.342   4.735  18.632  0.00  0.00    +0.000 A 
ATOM     18  C   UNL     1       2.403   4.163  17.746  0.00  0.00    +0.000 A 
ATOM     19  C   UNL     1       1.270   3.491  18.216  0.00  0.00    +0.000 A 
ATOM     20  C   UNL     1       1.052   3.363  19.584  0.00  0.00    +0.000 A 
ATOM     21  C   UNL     1       1.981   3.878  20.480  0.00  0.00    +0.000 A 
ATOM     22  C   UNL     1       3.119   4.540  20.012  0.00  0.00    +0.000 A 
ENDBRANCH  16  17
BRANCH  16  23
ATOM     23  C   UNL     1       5.054   5.092  16.732  0.00  0.00    +0.000 A 
ATOM     24  C   UNL     1       5.140   5.997  15.649  0.00  0.00    +0.000 A 
ATOM     25  C   UNL     1       5.548   5.578  14.382  0.00  0.00    +0.000 A 
ATOM     26  C   UNL     1       5.860   4.245  14.159  0.00  0.00    +0.000 A 
ATOM     27  C   UNL     1       5.758   3.325  15.197  0.00  0.00    +0.000 A 
ATOM     28  C   UNL     1       5.354   3.741  16.468  0.00  0.00    +0.000 A 
ENDBRANCH  16  23
BRANCH  16  29
ATOM     29  C   UNL     1       5.684   5.432  19.137  0.00  0.00    +0.000 C 
ATOM     30  N   UNL     1       6.531   5.331  19.929  0.00  0.00    +0.000 NA
ENDBRANCH  16  29
ENDBRANCH   1  16
TORSDOF 11
ENDMDL
MODEL 3
REMARK VINA RESULT:      -7.2      2.556      8.503
REMARK  Name = 
REMARK  12 active torsions:
REMARK  status: ('A' for Active; 'I' for Inactive)
REMARK    1  A    between atoms: C_1  and  C_2
REMARK    2  A    between atoms: C_2  and  C_3
REMARK    3  A    between atoms: C_3  and  C_4
REMARK    4  A    between atoms: C_4  and  C_5
REMARK    5  A    between atoms: C_5  and  O_6
REMARK    6  A    between atoms: N_9  and  C_10
REMARK    7  A    between atoms: C_10  and  C_11
REMARK    8  A    between atoms: C_11  and  C_12
REMARK    9  A    between atoms: C_12  and  C_13
REMARK   10  A    between atoms: C_13  and  C_14
REMARK   11  A    between atoms: C_13  and  C_16
REMARK   12  A    between atoms: C_13  and  C_22
REMARK                            x       y       z     vdW  Elec       q    Type
REMARK                         _______ _______ _______ _____ _____    ______ ____
ROOT
ATOM      1  C   UNL     1       0.406   9.759  18.200  0.00  0.00    +0.000 C 
ENDROOT
BRANCH   1   2
ATOM      2  C   UNL     1       1.904   9.883  18.509  0.00  0.00    +0.000 C 
BRANCH   2   3
ATOM      3  C   UNL     1       2.786   8.984  17.639  0.00  0.00    +0.000 C 
BRANCH   3   7
ATOM      4  C   UNL     1       3.305   4.938  19.144  0.00  0.00    +0.000 C 
ATOM      5  C   UNL     1       3.651   5.292  17.688  0.00  0.00    +0.000 C 
ATOM      6  C   UNL     1       3.842   6.790  17.494  0.00  0.00    +0.000 C 
ATOM      7  N   UNL     1       2.662   7.544  17.938  0.00  0.00    +0.000 NA
ATOM      8  C   UNL     1       2.403   7.294  19.367  0.00  0.00    +0.000 C 
ATOM      9  C   UNL     1       2.135   5.810  19.624  0.00  0.00    +0.000 C 
BRANCH   4  10
ATOM     10  O   UNL     1       4.423   5.232  19.994  0.00  0.00    +0.000 OA
ATOM     11  H   UNL     1       4.225   6.030  20.508  0.00  0.00    +0.000 HD
ENDBRANCH   4  10
BRANCH   4  12
ATOM     12  C   UNL     1       2.957   3.440  19.296  0.00  0.00    +0.000 C 
BRANCH  12  13
ATOM     13  C   UNL     1       1.462   3.186  19.534  0.00  0.00    +0.000 C 
BRANCH  13  15
ATOM     14  C   UNL     1       2.401   2.646  21.783  0.00  0.00    +0.000 C 
ATOM     15  C   UNL     1       1.129   2.944  21.002  0.00  0.00    +0.000 C 
ENDBRANCH  13  15
ENDBRANCH  12  13
ENDBRANCH   4  12
ENDBRANCH   3   7
ENDBRANCH   2   3
ENDBRANCH   1   2
BRANCH   1  16
ATOM     16  C   UNL     1      -0.457  10.871  18.907  0.00  0.00    +0.000 C 
BRANCH  16  17
ATOM     17  C   UNL     1      -1.897  10.990  18.318  0.00  0.00    +0.000 A 
ATOM     18  C   UNL     1      -2.889  11.805  18.905  0.00  0.00    +0.000 A 
ATOM     19  C   UNL     1      -4.195  11.841  18.404  0.00  0.00    +0.000 A 
ATOM     20  C   UNL     1      -4.540  11.073  17.297  0.00  0.00    +0.000 A 
ATOM     21  C   UNL     1      -3.573  10.295  16.672  0.00  0.00    +0.000 A 
ATOM     22  C   UNL     1      -2.266  10.266  17.164  0.00  0.00    +0.000 A 
ENDBRANCH  16  17
BRANCH  16  23
ATOM     23  C   UNL     1      -0.473  10.519  20.420  0.00  0.00    +0.000 A 
ATOM     24  C   UNL     1      -0.375   9.179  20.860  0.00  0.00    +0.000 A 
ATOM     25  C   UNL     1      -0.416   8.854  22.216  0.00  0.00    +0.000 A 
ATOM     26  C   UNL     1      -0.577   9.854  23.165  0.00  0.00    +0.000 A 
ATOM     27  C   UNL     1      -0.705  11.178  22.762  0.00  0.00    +0.000 A 
ATOM     28  C   UNL     1      -0.659  11.508  21.405  0.00  0.00    +0.000 A 
ENDBRANCH  16  23
BRANCH  16  29
ATOM     29  C   UNL     1       0.271  12.171  18.683  0.00  0.00    +0.000 C 
ATOM     30  N   UNL     1       0.842  13.166  18.493  0.00  0.00    +0.000 NA
ENDBRANCH  16  29
ENDBRANCH   1  16
TORSDOF 11
ENDMDL
MODEL 4
REMARK VINA RESULT:      -7.1      1.428      2.213
REMARK  Name = 
REMARK  12 active torsions:
REMARK  status: ('A' for Active; 'I' for Inactive)
REMARK    1  A    between atoms: C_1  and  C_2
REMARK    2  A    between atoms: C_2  and  C_3
REMARK    3  A    between atoms: C_3  and  C_4
REMARK    4  A    between atoms: C_4  and  C_5
REMARK    5  A    between atoms: C_5  and  O_6
REMARK    6  A    between atoms: N_9  and  C_10
REMARK    7  A    between atoms: C_10  and  C_11
REMARK    8  A    between atoms: C_11  and  C_12
REMARK    9  A    between atoms: C_12  and  C_13
REMARK   10  A    between atoms: C_13  and  C_14
REMARK   11  A    between atoms: C_13  and  C_16
REMARK   12  A    between atoms: C_13  and  C_22
REMARK                            x       y       z     vdW  Elec       q    Type
REMARK                         _______ _______ _______ _____ _____    ______ ____
ROOT
ATOM      1  C   UNL     1       4.098   6.747  18.093  0.00  0.00    +0.000 C 
ENDROOT
BRANCH   1   2
ATOM      2  C   UNL     1       2.599   6.801  18.419  0.00  0.00    +0.000 C 
BRANCH   2   3
ATOM      3  C   UNL     1       2.283   7.520  19.733  0.00  0.00    +0.000 C 
BRANCH   3   7
ATOM      4  C   UNL     1      -0.334  10.992  19.764  0.00  0.00    +0.000 C 
ATOM      5  C   UNL     1      -0.394   9.945  20.889  0.00  0.00    +0.000 C 
ATOM      6  C   UNL     1       0.868   9.094  20.945  0.00  0.00    +0.000 C 
ATOM      7  N   UNL     1       1.136   8.445  19.654  0.00  0.00    +0.000 NA
ATOM      8  C   UNL     1       1.310   9.458  18.599  0.00  0.00    +0.000 C 
ATOM      9  C   UNL     1       0.049  10.310  18.442  0.00  0.00    +0.000 C 
BRANCH   4  10
ATOM     10  O   UNL     1       0.690  11.954  20.051  0.00  0.00    +0.000 OA
ATOM     11  H   UNL     1       1.340  11.944  19.331  0.00  0.00    +0.000 HD
ENDBRANCH   4  10
BRANCH   4  12
ATOM     12  C   UNL     1      -1.678  11.740  19.614  0.00  0.00    +0.000 C 
BRANCH  12  13
ATOM     13  C   UNL     1      -2.081  11.975  18.151  0.00  0.00    +0.000 C 
BRANCH  13  15
ATOM     14  C   UNL     1      -3.364   9.904  17.606  0.00  0.00    +0.000 C 
ATOM     15  C   UNL     1      -3.457  11.409  17.817  0.00  0.00    +0.000 C 
ENDBRANCH  13  15
ENDBRANCH  12  13
ENDBRANCH   4  12
ENDBRANCH   3   7
ENDBRANCH   2   3
ENDBRANCH   1   2
BRANCH   1  16
ATOM     16  C   UNL     1       4.672   5.280  18.102  0.00  0.00    +0.000 C 
BRANCH  16  17
ATOM     17  C   UNL     1       3.625   4.220  18.565  0.00  0.00    +0.000 A 
ATOM     18  C   UNL     1       3.587   3.720  19.885  0.00  0.00    +0.000 A 
ATOM     19  C   UNL     1       2.689   2.716  20.261  0.00  0.00    +0.000 A 
ATOM     20  C   UNL     1       1.796   2.194  19.330  0.00  0.00    +0.000 A 
ATOM     21  C   UNL     1       1.780   2.697  18.035  0.00  0.00    +0.000 A 
ATOM     22  C   UNL     1       2.671   3.707  17.661  0.00  0.00    +0.000 A 
ENDBRANCH  16  17
BRANCH  16  23
ATOM     23  C   UNL     1       5.188   5.001  16.663  0.00  0.00    +0.000 A 
ATOM     24  C   UNL     1       5.781   3.763  16.327  0.00  0.00    +0.000 A 
ATOM     25  C   UNL     1       6.271   3.516  15.044  0.00  0.00    +0.000 A 
ATOM     26  C   UNL     1       6.202   4.504  14.072  0.00  0.00    +0.000 A 
ATOM     27  C   UNL     1       5.650   5.742  14.381  0.00  0.00    +0.000 A 
ATOM     28  C   UNL     1       5.154   5.992  15.663  0.00  0.00    +0.000 A 
ENDBRANCH  16  23
BRANCH  16  29
ATOM     29  C   UNL     1       5.822   5.287  19.074  0.00  0.00    +0.000 C 
ATOM     30  N   UNL     1       6.698   5.282  19.839  0.00  0.00    +0.000 NA
ENDBRANCH  16  29
ENDBRANCH   1  16
TORSDOF 11
ENDMDL
MODEL 5
REMARK VINA RESULT:      -7.1      0.398      1.050
REMARK  Name = 
REMARK  12 active torsions:
REMARK  status: ('A' for Active; 'I' for Inactive)
REMARK    1  A    between atoms: C_1  and  C_2
REMARK    2  A    between atoms: C_2  and  C_3
REMARK    3  A    between atoms: C_3  and  C_4
REMARK    4  A    between atoms: C_4  and  C_5
REMARK    5  A    between atoms: C_5  and  O_6
REMARK    6  A    between atoms: N_9  and  C_10
REMARK    7  A    between atoms: C_10  and  C_11
REMARK    8  A    between atoms: C_11  and  C_12
REMARK    9  A    between atoms: C_12  and  C_13
REMARK   10  A    between atoms: C_13  and  C_14
REMARK   11  A    between atoms: C_13  and  C_16
REMARK   12  A    between atoms: C_13  and  C_22
REMARK                            x       y       z     vdW  Elec       q    Type
REMARK                         _______ _______ _______ _____ _____    ______ ____
ROOT
ATOM      1  C   UNL     1       4.251   7.076  18.052  0.00  0.00    +0.000 C 
ENDROOT
BRANCH   1   2
ATOM      2  C   UNL     1       2.802   7.413  18.430  0.00  0.00    +0.000 C 
BRANCH   2   3
ATOM      3  C   UNL     1       2.236   8.618  17.674  0.00  0.00    +0.000 C 
BRANCH   3   7
ATOM      4  C   UNL     1       0.191  11.191  20.521  0.00  0.00    +0.000 C 
ATOM      5  C   UNL     1       0.030   9.663  20.576  0.00  0.00    +0.000 C 
ATOM      6  C   UNL     1       1.146   8.943  19.831  0.00  0.00    +0.000 C 
ATOM      7  N   UNL     1       1.243   9.398  18.438  0.00  0.00    +0.000 NA
ATOM      8  C   UNL     1       1.516  10.845  18.390  0.00  0.00    +0.000 C 
ATOM      9  C   UNL     1       0.395  11.637  19.065  0.00  0.00    +0.000 C 
BRANCH   4  10
ATOM     10  O   UNL     1       1.366  11.581  21.247  0.00  0.00    +0.000 OA
ATOM     11  H   UNL     1       1.712  12.404  20.864  0.00  0.00    +0.000 HD
ENDBRANCH   4  10
BRANCH   4  12
ATOM     12  C   UNL     1      -1.027  11.913  21.139  0.00  0.00    +0.000 C 
BRANCH  12  13
ATOM     13  C   UNL     1      -0.680  12.718  22.399  0.00  0.00    +0.000 C 
BRANCH  13  15
ATOM     14  C   UNL     1      -1.701  14.342  23.996  0.00  0.00    +0.000 C 
ATOM     15  C   UNL     1      -1.900  13.024  23.261  0.00  0.00    +0.000 C 
ENDBRANCH  13  15
ENDBRANCH  12  13
ENDBRANCH   4  12
ENDBRANCH   3   7
ENDBRANCH   2   3
ENDBRANCH   1   2
BRANCH   1  16
ATOM     16  C   UNL     1       4.565   5.536  18.150  0.00  0.00    +0.000 C 
BRANCH  16  17
ATOM     17  C   UNL     1       3.343   4.695  18.633  0.00  0.00    +0.000 A 
ATOM     18  C   UNL     1       2.380   4.177  17.739  0.00  0.00    +0.000 A 
ATOM     19  C   UNL     1       1.253   3.489  18.198  0.00  0.00    +0.000 A 
ATOM     20  C   UNL     1       1.063   3.289  19.562  0.00  0.00    +0.000 A 
ATOM     21  C   UNL     1       2.016   3.749  20.463  0.00  0.00    +0.000 A 
ATOM     22  C   UNL     1       3.149   4.428  20.005  0.00  0.00    +0.000 A 
ENDBRANCH  16  17
BRANCH  16  23
ATOM     23  C   UNL     1       5.056   5.097  16.742  0.00  0.00    +0.000 A 
ATOM     24  C   UNL     1       5.129   6.020  15.674  0.00  0.00    +0.000 A 
ATOM     25  C   UNL     1       5.543   5.627  14.401  0.00  0.00    +0.000 A 
ATOM     26  C   UNL     1       5.873   4.301  14.157  0.00  0.00    +0.000 A 
ATOM     27  C   UNL     1       5.783   3.364  15.181  0.00  0.00    +0.000 A 
ATOM     28  C   UNL     1       5.374   3.755  16.458  0.00  0.00    +0.000 A 
ENDBRANCH  16  23
BRANCH  16  29
ATOM     29  C   UNL     1       5.679   5.399  19.154  0.00  0.00    +0.000 C 
ATOM     30  N   UNL     1       6.525   5.292  19.946  0.00  0.00    +0.000 NA
ENDBRANCH  16  29
ENDBRANCH   1  16
TORSDOF 11
ENDMDL
MODEL 6
REMARK VINA RESULT:      -7.1      0.820      1.043
REMARK  Name = 
REMARK  12 active torsions:
REMARK  status: ('A' for Active; 'I' for Inactive)
REMARK    1  A    between atoms: C_1  and  C_2
REMARK    2  A    between atoms: C_2  and  C_3
REMARK    3  A    between atoms: C_3  and  C_4
REMARK    4  A    between atoms: C_4  and  C_5
REMARK    5  A    between atoms: C_5  and  O_6
REMARK    6  A    between atoms: N_9  and  C_10
REMARK    7  A    between atoms: C_10  and  C_11
REMARK    8  A    between atoms: C_11  and  C_12
REMARK    9  A    between atoms: C_12  and  C_13
REMARK   10  A    between atoms: C_13  and  C_14
REMARK   11  A    between atoms: C_13  and  C_16
REMARK   12  A    between atoms: C_13  and  C_22
REMARK                            x       y       z     vdW  Elec       q    Type
REMARK                         _______ _______ _______ _____ _____    ______ ____
ROOT
ATOM      1  C   UNL     1       4.366   6.896  17.702  0.00  0.00    +0.000 C 
ENDROOT
BRANCH   1   2
ATOM      2  C   UNL     1       3.020   7.167  18.390  0.00  0.00    +0.000 C 
BRANCH   2   3
ATOM      3  C   UNL     1       2.282   8.387  17.833  0.00  0.00    +0.000 C 
BRANCH   3   7
ATOM      4  C   UNL     1       0.283  10.618  20.985  0.00  0.00    +0.000 C 
ATOM      5  C   UNL     1       0.483   9.097  21.096  0.00  0.00    +0.000 C 
ATOM      6  C   UNL     1       1.573   8.595  20.157  0.00  0.00    +0.000 C 
ATOM      7  N   UNL     1       1.301   8.976  18.765  0.00  0.00    +0.000 NA
ATOM      8  C   UNL     1       1.226  10.442  18.641  0.00  0.00    +0.000 C 
ATOM      9  C   UNL     1       0.102  11.010  19.510  0.00  0.00    +0.000 C 
BRANCH   4  10
ATOM     10  O   UNL     1       1.453  11.298  21.459  0.00  0.00    +0.000 OA
ATOM     11  H   UNL     1       1.279  11.638  22.351  0.00  0.00    +0.000 HD
ENDBRANCH   4  10
BRANCH   4  12
ATOM     12  C   UNL     1      -0.929  11.092  21.819  0.00  0.00    +0.000 C 
BRANCH  12  13
ATOM     13  C   UNL     1      -1.757  12.180  21.121  0.00  0.00    +0.000 C 
BRANCH  13  15
ATOM     14  C   UNL     1      -2.826  12.079  23.374  0.00  0.00    +0.000 C 
ATOM     15  C   UNL     1      -2.900  12.700  21.987  0.00  0.00    +0.000 C 
ENDBRANCH  13  15
ENDBRANCH  12  13
ENDBRANCH   4  12
ENDBRANCH   3   7
ENDBRANCH   2   3
ENDBRANCH   1   2
BRANCH   1  16
ATOM     16  C   UNL     1       4.834   5.399  17.845  0.00  0.00    +0.000 C 
BRANCH  16  17
ATOM     17  C   UNL     1       3.670   4.431  18.225  0.00  0.00    +0.000 A 
ATOM     18  C   UNL     1       2.395   4.507  17.622  0.00  0.00    +0.000 A 
ATOM     19  C   UNL     1       1.345   3.678  18.030  0.00  0.00    +0.000 A 
ATOM     20  C   UNL     1       1.543   2.744  19.041  0.00  0.00    +0.000 A 
ATOM     21  C   UNL     1       2.800   2.617  19.623  0.00  0.00    +0.000 A 
ATOM     22  C   UNL     1       3.853   3.437  19.209  0.00  0.00    +0.000 A 
ENDBRANCH  16  17
BRANCH  16  23
ATOM     23  C   UNL     1       5.494   5.014  16.492  0.00  0.00    +0.000 A 
ATOM     24  C   UNL     1       6.788   5.473  16.154  0.00  0.00    +0.000 A 
ATOM     25  C   UNL     1       7.376   5.153  14.930  0.00  0.00    +0.000 A 
ATOM     26  C   UNL     1       6.681   4.388  14.005  0.00  0.00    +0.000 A 
ATOM     27  C   UNL     1       5.395   3.946  14.297  0.00  0.00    +0.000 A 
ATOM     28  C   UNL     1       4.805   4.260  15.523  0.00  0.00    +0.000 A 
ENDBRANCH  16  23
BRANCH  16  29
ATOM     29  C   UNL     1       5.860   5.385  18.947  0.00  0.00    +0.000 C 
ATOM     30  N   UNL     1       6.665   5.362  19.786  0.00  0.00    +0.000 NA
ENDBRANCH  16  29
ENDBRANCH   1  16
TORSDOF 11
ENDMDL
MODEL 7
REMARK VINA RESULT:      -7.1      2.690      9.422
REMARK  Name = 
REMARK  12 active torsions:
REMARK  status: ('A' for Active; 'I' for Inactive)
REMARK    1  A    between atoms: C_1  and  C_2
REMARK    2  A    between atoms: C_2  and  C_3
REMARK    3  A    between atoms: C_3  and  C_4
REMARK    4  A    between atoms: C_4  and  C_5
REMARK    5  A    between atoms: C_5  and  O_6
REMARK    6  A    between atoms: N_9  and  C_10
REMARK    7  A    between atoms: C_10  and  C_11
REMARK    8  A    between atoms: C_11  and  C_12
REMARK    9  A    between atoms: C_12  and  C_13
REMARK   10  A    between atoms: C_13  and  C_14
REMARK   11  A    between atoms: C_13  and  C_16
REMARK   12  A    between atoms: C_13  and  C_22
REMARK                            x       y       z     vdW  Elec       q    Type
REMARK                         _______ _______ _______ _____ _____    ______ ____
ROOT
ATOM      1  C   UNL     1       0.667   8.599  18.664  0.00  0.00    +0.000 C 
ENDROOT
BRANCH   1   2
ATOM      2  C   UNL     1       1.997   8.606  17.898  0.00  0.00    +0.000 C 
BRANCH   2   3
ATOM      3  C   UNL     1       3.066   7.701  18.516  0.00  0.00    +0.000 C 
BRANCH   3   7
ATOM      4  C   UNL     1       5.354   4.527  16.621  0.00  0.00    +0.000 C 
ATOM      5  C   UNL     1       5.510   5.991  16.175  0.00  0.00    +0.000 C 
ATOM      6  C   UNL     1       5.002   6.966  17.229  0.00  0.00    +0.000 C 
ATOM      7  N   UNL     1       3.606   6.687  17.591  0.00  0.00    +0.000 NA
ATOM      8  C   UNL     1       3.481   5.321  18.129  0.00  0.00    +0.000 C 
ATOM      9  C   UNL     1       3.913   4.281  17.094  0.00  0.00    +0.000 C 
BRANCH   4  10
ATOM     10  O   UNL     1       6.212   4.266  17.740  0.00  0.00    +0.000 OA
ATOM     11  H   UNL     1       6.598   5.105  18.042  0.00  0.00    +0.000 HD
ENDBRANCH   4  10
BRANCH   4  12
ATOM     12  C   UNL     1       5.722   3.546  15.485  0.00  0.00    +0.000 C 
BRANCH  12  13
ATOM     13  C   UNL     1       6.376   4.234  14.278  0.00  0.00    +0.000 C 
BRANCH  13  15
ATOM     14  C   UNL     1       6.977   3.795  11.896  0.00  0.00    +0.000 C 
ATOM     15  C   UNL     1       5.879   3.687  12.944  0.00  0.00    +0.000 C 
ENDBRANCH  13  15
ENDBRANCH  12  13
ENDBRANCH   4  12
ENDBRANCH   3   7
ENDBRANCH   2   3
ENDBRANCH   1   2
BRANCH   1  16
ATOM     16  C   UNL     1       0.125  10.047  18.961  0.00  0.00    +0.000 C 
BRANCH  16  17
ATOM     17  C   UNL     1      -1.154  10.399  18.139  0.00  0.00    +0.000 A 
ATOM     18  C   UNL     1      -2.049  11.418  18.532  0.00  0.00    +0.000 A 
ATOM     19  C   UNL     1      -3.227  11.668  17.821  0.00  0.00    +0.000 A 
ATOM     20  C   UNL     1      -3.536  10.916  16.692  0.00  0.00    +0.000 A 
ATOM     21  C   UNL     1      -2.652   9.936  16.256  0.00  0.00    +0.000 A 
ATOM     22  C   UNL     1      -1.469   9.692  16.959  0.00  0.00    +0.000 A 
ENDBRANCH  16  17
BRANCH  16  23
ATOM     23  C   UNL     1      -0.129  10.116  20.493  0.00  0.00    +0.000 A 
ATOM     24  C   UNL     1      -0.235   8.939  21.269  0.00  0.00    +0.000 A 
ATOM     25  C   UNL     1      -0.490   8.993  22.640  0.00  0.00    +0.000 A 
ATOM     26  C   UNL     1      -0.667  10.220  23.265  0.00  0.00    +0.000 A 
ATOM     27  C   UNL     1      -0.597  11.393  22.523  0.00  0.00    +0.000 A 
ATOM     28  C   UNL     1      -0.337  11.343  21.151  0.00  0.00    +0.000 A 
ENDBRANCH  16  23
BRANCH  16  29
ATOM     29  C   UNL     1       1.230  10.994  18.575  0.00  0.00    +0.000 C 
ATOM     30  N   UNL     1       2.097  11.715  18.288  0.00  0.00    +0.000 NA
ENDBRANCH  16  29
ENDBRANCH   1  16
TORSDOF 11
ENDMDL
MODEL 8
REMARK VINA RESULT:      -7.1      2.558      9.102
REMARK  Name = 
REMARK  12 active torsions:
REMARK  status: ('A' for Active; 'I' for Inactive)
REMARK    1  A    between atoms: C_1  and  C_2
REMARK    2  A    between atoms: C_2  and  C_3
REMARK    3  A    between atoms: C_3  and  C_4
REMARK    4  A    between atoms: C_4  and  C_5
REMARK    5  A    between atoms: C_5  and  O_6
REMARK    6  A    between atoms: N_9  and  C_10
REMARK    7  A    between atoms: C_10  and  C_11
REMARK    8  A    between atoms: C_11  and  C_12
REMARK    9  A    between atoms: C_12  and  C_13
REMARK   10  A    between atoms: C_13  and  C_14
REMARK   11  A    between atoms: C_13  and  C_16
REMARK   12  A    between atoms: C_13  and  C_22
REMARK                            x       y       z     vdW  Elec       q    Type
REMARK                         _______ _______ _______ _____ _____    ______ ____
ROOT
ATOM      1  C   UNL     1       1.882   9.871  18.292  0.00  0.00    +0.000 C 
ENDROOT
BRANCH   1   2
ATOM      2  C   UNL     1       1.576   8.398  17.986  0.00  0.00    +0.000 C 
BRANCH   2   3
ATOM      3  C   UNL     1       2.559   7.420  18.635  0.00  0.00    +0.000 C 
BRANCH   3   7
ATOM      4  C   UNL     1       5.204   4.582  16.672  0.00  0.00    +0.000 C 
ATOM      5  C   UNL     1       5.240   6.077  16.313  0.00  0.00    +0.000 C 
ATOM      6  C   UNL     1       4.603   6.939  17.395  0.00  0.00    +0.000 C 
ATOM      7  N   UNL     1       3.227   6.514  17.680  0.00  0.00    +0.000 NA
ATOM      8  C   UNL     1       3.209   5.113  18.138  0.00  0.00    +0.000 C 
ATOM      9  C   UNL     1       3.776   4.179  17.067  0.00  0.00    +0.000 C 
BRANCH   4  10
ATOM     10  O   UNL     1       6.040   4.336  17.811  0.00  0.00    +0.000 OA
ATOM     11  H   UNL     1       5.647   3.623  18.340  0.00  0.00    +0.000 HD
ENDBRANCH   4  10
BRANCH   4  12
ATOM     12  C   UNL     1       5.706   3.706  15.501  0.00  0.00    +0.000 C 
BRANCH  12  13
ATOM     13  C   UNL     1       6.695   4.434  14.580  0.00  0.00    +0.000 C 
BRANCH  13  15
ATOM     14  C   UNL     1       5.154   3.581  12.811  0.00  0.00    +0.000 C 
ATOM     15  C   UNL     1       6.586   3.989  13.125  0.00  0.00    +0.000 C 
ENDBRANCH  13  15
ENDBRANCH  12  13
ENDBRANCH   4  12
ENDBRANCH   3   7
ENDBRANCH   2   3
ENDBRANCH   1   2
BRANCH   1  16
ATOM     16  C   UNL     1       0.670  10.620  18.961  0.00  0.00    +0.000 C 
BRANCH  16  17
ATOM     17  C   UNL     1       0.436  10.196  20.445  0.00  0.00    +0.000 A 
ATOM     18  C   UNL     1      -0.680  10.636  21.190  0.00  0.00    +0.000 A 
ATOM     19  C   UNL     1      -0.832  10.304  22.541  0.00  0.00    +0.000 A 
ATOM     20  C   UNL     1       0.120   9.515  23.178  0.00  0.00    +0.000 A 
ATOM     21  C   UNL     1       1.206   9.032  22.458  0.00  0.00    +0.000 A 
ATOM     22  C   UNL     1       1.354   9.353  21.106  0.00  0.00    +0.000 A 
ENDBRANCH  16  17
BRANCH  16  23
ATOM     23  C   UNL     1       0.965  12.140  18.828  0.00  0.00    +0.000 A 
ATOM     24  C   UNL     1       2.290  12.622  18.739  0.00  0.00    +0.000 A 
ATOM     25  C   UNL     1       2.563  13.987  18.647  0.00  0.00    +0.000 A 
ATOM     26  C   UNL     1       1.523  14.906  18.663  0.00  0.00    +0.000 A 
ATOM     27  C   UNL     1       0.210  14.463  18.778  0.00  0.00    +0.000 A 
ATOM     28  C   UNL     1      -0.067  13.097  18.866  0.00  0.00    +0.000 A 
ENDBRANCH  16  23
BRANCH  16  29
ATOM     29  C   UNL     1      -0.547  10.254  18.152  0.00  0.00    +0.000 C 
ATOM     30  N   UNL     1      -1.474   9.966  17.511  0.00  0.00    +0.000 NA
ENDBRANCH  16  29
ENDBRANCH   1  16
TORSDOF 11
ENDMDL
MODEL 9
REMARK VINA RESULT:      -7.0      1.492      2.208
REMARK  Name = 
REMARK  12 active torsions:
REMARK  status: ('A' for Active; 'I' for Inactive)
REMARK    1  A    between atoms: C_1  and  C_2
REMARK    2  A    between atoms: C_2  and  C_3
REMARK    3  A    between atoms: C_3  and  C_4
REMARK    4  A    between atoms: C_4  and  C_5
REMARK    5  A    between atoms: C_5  and  O_6
REMARK    6  A    between atoms: N_9  and  C_10
REMARK    7  A    between atoms: C_10  and  C_11
REMARK    8  A    between atoms: C_11  and  C_12
REMARK    9  A    between atoms: C_12  and  C_13
REMARK   10  A    between atoms: C_13  and  C_14
REMARK   11  A    between atoms: C_13  and  C_16
REMARK   12  A    between atoms: C_13  and  C_22
REMARK                            x       y       z     vdW  Elec       q    Type
REMARK                         _______ _______ _______ _____ _____    ______ ____
ROOT
ATOM      1  C   UNL     1       4.008   6.815  18.040  0.00  0.00    +0.000 C 
ENDROOT
BRANCH   1   2
ATOM      2  C   UNL     1       2.503   6.953  18.312  0.00  0.00    +0.000 C 
BRANCH   2   3
ATOM      3  C   UNL     1       2.177   7.389  19.743  0.00  0.00    +0.000 C 
BRANCH   3   7
ATOM      4  C   UNL     1      -0.052  11.123  19.728  0.00  0.00    +0.000 C 
ATOM      5  C   UNL     1       1.031  10.842  18.673  0.00  0.00    +0.000 C 
ATOM      6  C   UNL     1       1.351   9.357  18.563  0.00  0.00    +0.000 C 
ATOM      7  N   UNL     1       1.744   8.795  19.862  0.00  0.00    +0.000 NA
ATOM      8  C   UNL     1       0.655   8.960  20.841  0.00  0.00    +0.000 C 
ATOM      9  C   UNL     1       0.326  10.440  21.051  0.00  0.00    +0.000 C 
BRANCH   4  10
ATOM     10  O   UNL     1      -1.300  10.555  19.305  0.00  0.00    +0.000 OA
ATOM     11  H   UNL     1      -1.986  11.240  19.347  0.00  0.00    +0.000 HD
ENDBRANCH   4  10
BRANCH   4  12
ATOM     12  C   UNL     1      -0.254  12.639  19.944  0.00  0.00    +0.000 C 
BRANCH  12  13
ATOM     13  C   UNL     1      -0.475  13.414  18.637  0.00  0.00    +0.000 C 
BRANCH  13  15
ATOM     14  C   UNL     1       1.392  15.041  18.952  0.00  0.00    +0.000 C 
ATOM     15  C   UNL     1      -0.110  14.890  18.755  0.00  0.00    +0.000 C 
ENDBRANCH  13  15
ENDBRANCH  12  13
ENDBRANCH   4  12
ENDBRANCH   3   7
ENDBRANCH   2   3
ENDBRANCH   1   2
BRANCH   1  16
ATOM     16  C   UNL     1       4.504   5.322  18.102  0.00  0.00    +0.000 C 
BRANCH  16  17
ATOM     17  C   UNL     1       3.395   4.330  18.571  0.00  0.00    +0.000 A 
ATOM     18  C   UNL     1       2.341   3.919  17.726  0.00  0.00    +0.000 A 
ATOM     19  C   UNL     1       1.316   3.087  18.189  0.00  0.00    +0.000 A 
ATOM     20  C   UNL     1       1.324   2.635  19.504  0.00  0.00    +0.000 A 
ATOM     21  C   UNL     1       2.371   2.987  20.347  0.00  0.00    +0.000 A 
ATOM     22  C   UNL     1       3.402   3.810  19.883  0.00  0.00    +0.000 A 
ENDBRANCH  16  17
BRANCH  16  23
ATOM     23  C   UNL     1       5.034   4.976  16.683  0.00  0.00    +0.000 A 
ATOM     24  C   UNL     1       5.476   3.671  16.366  0.00  0.00    +0.000 A 
ATOM     25  C   UNL     1       5.978   3.360  15.102  0.00  0.00    +0.000 A 
ATOM     26  C   UNL     1       6.072   4.347  14.130  0.00  0.00    +0.000 A 
ATOM     27  C   UNL     1       5.672   5.646  14.421  0.00  0.00    +0.000 A 
ATOM     28  C   UNL     1       5.165   5.960  15.684  0.00  0.00    +0.000 A 
ENDBRANCH  16  23
BRANCH  16  29
ATOM     29  C   UNL     1       5.634   5.298  19.098  0.00  0.00    +0.000 C 
ATOM     30  N   UNL     1       6.520   5.278  19.852  0.00  0.00    +0.000 NA
ENDBRANCH  16  29
ENDBRANCH   1  16
TORSDOF 11
ENDMDL
