MODEL 1
REMARK VINA RESULT:      -7.5      0.000      0.000
REMARK  Name = 
REMARK  5 active torsions:
REMARK  status: ('A' for Active; 'I' for Inactive)
REMARK    1  A    between atoms: C_1  and  C_2
REMARK    2  A    between atoms: C_5  and  O_6
REMARK    3  A    between atoms: N_7  and  C_8
REMARK    4  A    between atoms: C_11  and  O_12
REMARK    5  A    between atoms: O_12  and  C_13
REMARK                            x       y       z     vdW  Elec       q    Type
REMARK                         _______ _______ _______ _____ _____    ______ ____
ROOT
ATOM      1  C   UNL     1       5.018   4.261  17.503  0.00  0.00    +0.000 A 
ATOM      2  C   UNL     1       5.332   3.680  18.738  0.00  0.00    +0.000 A 
ATOM      3  C   UNL     1       4.320   3.145  19.541  0.00  0.00    +0.000 A 
ATOM      4  C   UNL     1       2.986   3.171  19.127  0.00  0.00    +0.000 A 
ATOM      5  C   UNL     1       2.679   3.693  17.874  0.00  0.00    +0.000 A 
ATOM      6  C   UNL     1       3.687   4.256  17.073  0.00  0.00    +0.000 A 
ENDROOT
BRANCH   1  12
ATOM      7  C   UNL     1       6.936   6.721  18.133  0.00  0.00    +0.000 C 
ATOM      8  C   UNL     1       6.846   5.922  16.888  0.00  0.00    +0.000 A 
ATOM      9  N   UNL     1       7.635   6.100  15.842  0.00  0.00    +0.000 NA
ATOM     10  N   UNL     1       7.414   5.086  14.952  0.00  0.00    +0.000 NA
ATOM     11  C   UNL     1       6.494   4.311  15.471  0.00  0.00    +0.000 A 
ATOM     12  N   UNL     1       6.050   4.798  16.684  0.00  0.00    +0.000 N 
BRANCH  11  13
ATOM     13  O   UNL     1       6.012   3.266  14.822  0.00  0.00    +0.000 OA
ATOM     14  H   UNL     1       5.071   3.510  14.722  0.00  0.00    +0.000 HD
ENDBRANCH  11  13
ENDBRANCH   1  12
BRANCH   4  15
ATOM     15  O   UNL     1       2.111   2.608  20.001  0.00  0.00    +0.000 OA
BRANCH  15  16
ATOM     16  C   UNL     1       1.448   3.425  20.955  0.00  0.00    +0.000 C 
ATOM     17  F   UNL     1       2.253   4.314  21.576  0.00  0.00    +0.000 F 
ATOM     18  F   UNL     1       0.443   4.094  20.352  0.00  0.00    +0.000 F 
ATOM     19  F   UNL     1       0.913   2.624  21.904  0.00  0.00    +0.000 F 
ENDBRANCH  15  16
ENDBRANCH   4  15
TORSDOF 4
ENDMDL
MODEL 2
REMARK VINA RESULT:      -7.4      1.256      2.170
REMARK  Name = 
REMARK  5 active torsions:
REMARK  status: ('A' for Active; 'I' for Inactive)
REMARK    1  A    between atoms: C_1  and  C_2
REMARK    2  A    between atoms: C_5  and  O_6
REMARK    3  A    between atoms: N_7  and  C_8
REMARK    4  A    between atoms: C_11  and  O_12
REMARK    5  A    between atoms: O_12  and  C_13
REMARK                            x       y       z     vdW  Elec       q    Type
REMARK                         _______ _______ _______ _____ _____    ______ ____
ROOT
ATOM      1  C   UNL     1       5.017   4.481  17.564  0.00  0.00    +0.000 A 
ATOM      2  C   UNL     1       3.669   4.738  17.288  0.00  0.00    +0.000 A 
ATOM      3  C   UNL     1       2.668   4.148  18.065  0.00  0.00    +0.000 A 
ATOM      4  C   UNL     1       2.990   3.304  19.131  0.00  0.00    +0.000 A 
ATOM      5  C   UNL     1       4.329   3.095  19.444  0.00  0.00    +0.000 A 
ATOM      6  C   UNL     1       5.340   3.664  18.652  0.00  0.00    +0.000 A 
ENDROOT
BRANCH   1  12
ATOM      7  C   UNL     1       5.775   3.870  14.535  0.00  0.00    +0.000 C 
ATOM      8  C   UNL     1       6.451   4.788  15.483  0.00  0.00    +0.000 A 
ATOM      9  N   UNL     1       7.475   5.556  15.157  0.00  0.00    +0.000 NA
ATOM     10  N   UNL     1       7.731   6.405  16.198  0.00  0.00    +0.000 NA
ATOM     11  C   UNL     1       6.858   6.137  17.138  0.00  0.00    +0.000 A 
ATOM     12  N   UNL     1       6.035   5.089  16.777  0.00  0.00    +0.000 N 
BRANCH  11  13
ATOM     13  O   UNL     1       6.879   6.750  18.309  0.00  0.00    +0.000 OA
ATOM     14  H   UNL     1       6.196   6.257  18.805  0.00  0.00    +0.000 HD
ENDBRANCH  11  13
ENDBRANCH   1  12
BRANCH   4  15
ATOM     15  O   UNL     1       1.918   2.808  19.805  0.00  0.00    +0.000 OA
BRANCH  15  16
ATOM     16  C   UNL     1       1.392   3.525  20.912  0.00  0.00    +0.000 C 
ATOM     17  F   UNL     1       2.304   4.270  21.571  0.00  0.00    +0.000 F 
ATOM     18  F   UNL     1       0.392   4.328  20.493  0.00  0.00    +0.000 F 
ATOM     19  F   UNL     1       0.879   2.634  21.791  0.00  0.00    +0.000 F 
ENDBRANCH  15  16
ENDBRANCH   4  15
TORSDOF 4
ENDMDL
MODEL 3
REMARK VINA RESULT:      -7.4      1.284      2.071
REMARK  Name = 
REMARK  5 active torsions:
REMARK  status: ('A' for Active; 'I' for Inactive)
REMARK    1  A    between atoms: C_1  and  C_2
REMARK    2  A    between atoms: C_5  and  O_6
REMARK    3  A    between atoms: N_7  and  C_8
REMARK    4  A    between atoms: C_11  and  O_12
REMARK    5  A    between atoms: O_12  and  C_13
REMARK                            x       y       z     vdW  Elec       q    Type
REMARK                         _______ _______ _______ _____ _____    ______ ____
ROOT
ATOM      1  C   UNL     1       4.943   4.591  17.538  0.00  0.00    +0.000 A 
ATOM      2  C   UNL     1       5.250   3.606  18.485  0.00  0.00    +0.000 A 
ATOM      3  C   UNL     1       4.234   3.029  19.253  0.00  0.00    +0.000 A 
ATOM      4  C   UNL     1       2.901   3.412  19.086  0.00  0.00    +0.000 A 
ATOM      5  C   UNL     1       2.587   4.347  18.104  0.00  0.00    +0.000 A 
ATOM      6  C   UNL     1       3.605   4.950  17.347  0.00  0.00    +0.000 A 
ENDROOT
BRANCH   1  12
ATOM      7  C   UNL     1       5.546   4.126  14.449  0.00  0.00    +0.000 C 
ATOM      8  C   UNL     1       6.323   4.926  15.426  0.00  0.00    +0.000 A 
ATOM      9  N   UNL     1       7.391   5.636  15.109  0.00  0.00    +0.000 NA
ATOM     10  N   UNL     1       7.748   6.393  16.190  0.00  0.00    +0.000 NA
ATOM     11  C   UNL     1       6.890   6.129  17.145  0.00  0.00    +0.000 A 
ATOM     12  N   UNL     1       5.977   5.172  16.752  0.00  0.00    +0.000 N 
BRANCH  11  13
ATOM     13  O   UNL     1       6.999   6.660  18.351  0.00  0.00    +0.000 OA
ATOM     14  H   UNL     1       7.739   7.286  18.227  0.00  0.00    +0.000 HD
ENDBRANCH  11  13
ENDBRANCH   1  12
BRANCH   4  15
ATOM     15  O   UNL     1       2.020   2.763  19.892  0.00  0.00    +0.000 OA
BRANCH  15  16
ATOM     16  C   UNL     1       1.435   3.449  20.989  0.00  0.00    +0.000 C 
ATOM     17  F   UNL     1       0.918   2.636  21.936  0.00  0.00    +0.000 F 
ATOM     18  F   UNL     1       2.357   4.252  21.560  0.00  0.00    +0.000 F 
ATOM     19  F   UNL     1       0.430   4.224  20.521  0.00  0.00    +0.000 F 
ENDBRANCH  15  16
ENDBRANCH   4  15
TORSDOF 4
ENDMDL
MODEL 4
REMARK VINA RESULT:      -7.4      0.982      1.276
REMARK  Name = 
REMARK  5 active torsions:
REMARK  status: ('A' for Active; 'I' for Inactive)
REMARK    1  A    between atoms: C_1  and  C_2
REMARK    2  A    between atoms: C_5  and  O_6
REMARK    3  A    between atoms: N_7  and  C_8
REMARK    4  A    between atoms: C_11  and  O_12
REMARK    5  A    between atoms: O_12  and  C_13
REMARK                            x       y       z     vdW  Elec       q    Type
REMARK                         _______ _______ _______ _____ _____    ______ ____
ROOT
ATOM      1  C   UNL     1       4.960   4.806  17.784  0.00  0.00    +0.000 A 
ATOM      2  C   UNL     1       5.262   4.270  19.041  0.00  0.00    +0.000 A 
ATOM      3  C   UNL     1       4.247   4.071  19.982  0.00  0.00    +0.000 A 
ATOM      4  C   UNL     1       2.920   4.391  19.686  0.00  0.00    +0.000 A 
ATOM      5  C   UNL     1       2.609   4.868  18.416  0.00  0.00    +0.000 A 
ATOM      6  C   UNL     1       3.627   5.095  17.475  0.00  0.00    +0.000 A 
ENDROOT
BRANCH   1  12
ATOM      7  C   UNL     1       6.952   7.274  17.527  0.00  0.00    +0.000 C 
ATOM      8  C   UNL     1       6.821   6.102  16.629  0.00  0.00    +0.000 A 
ATOM      9  N   UNL     1       7.598   5.890  15.580  0.00  0.00    +0.000 NA
ATOM     10  N   UNL     1       7.337   4.641  15.090  0.00  0.00    +0.000 NA
ATOM     11  C   UNL     1       6.405   4.117  15.848  0.00  0.00    +0.000 A 
ATOM     12  N   UNL     1       5.993   5.001  16.824  0.00  0.00    +0.000 N 
BRANCH  11  13
ATOM     13  O   UNL     1       5.885   2.928  15.596  0.00  0.00    +0.000 OA
ATOM     14  H   UNL     1       5.961   2.488  16.465  0.00  0.00    +0.000 HD
ENDBRANCH  11  13
ENDBRANCH   1  12
BRANCH   4  15
ATOM     15  O   UNL     1       2.039   4.137  20.689  0.00  0.00    +0.000 OA
BRANCH  15  16
ATOM     16  C   UNL     1       1.263   2.949  20.658  0.00  0.00    +0.000 C 
ATOM     17  F   UNL     1       1.879   1.902  20.069  0.00  0.00    +0.000 F 
ATOM     18  F   UNL     1       0.922   2.601  21.917  0.00  0.00    +0.000 F 
ATOM     19  F   UNL     1       0.128   3.199  19.966  0.00  0.00    +0.000 F 
ENDBRANCH  15  16
ENDBRANCH   4  15
TORSDOF 4
ENDMDL
MODEL 5
REMARK VINA RESULT:      -7.3      0.130      1.449
REMARK  Name = 
REMARK  5 active torsions:
REMARK  status: ('A' for Active; 'I' for Inactive)
REMARK    1  A    between atoms: C_1  and  C_2
REMARK    2  A    between atoms: C_5  and  O_6
REMARK    3  A    between atoms: N_7  and  C_8
REMARK    4  A    between atoms: C_11  and  O_12
REMARK    5  A    between atoms: O_12  and  C_13
REMARK                            x       y       z     vdW  Elec       q    Type
REMARK                         _______ _______ _______ _____ _____    ______ ____
ROOT
ATOM      1  C   UNL     1       5.052   4.212  17.506  0.00  0.00    +0.000 A 
ATOM      2  C   UNL     1       3.704   4.368  17.161  0.00  0.00    +0.000 A 
ATOM      3  C   UNL     1       2.703   3.822  17.970  0.00  0.00    +0.000 A 
ATOM      4  C   UNL     1       3.024   3.123  19.136  0.00  0.00    +0.000 A 
ATOM      5  C   UNL     1       4.360   3.018  19.513  0.00  0.00    +0.000 A 
ATOM      6  C   UNL     1       5.372   3.541  18.691  0.00  0.00    +0.000 A 
ENDROOT
BRANCH   1  12
ATOM      7  C   UNL     1       6.969   6.662  18.174  0.00  0.00    +0.000 C 
ATOM      8  C   UNL     1       6.864   5.896  16.908  0.00  0.00    +0.000 A 
ATOM      9  N   UNL     1       7.637   6.106  15.857  0.00  0.00    +0.000 NA
ATOM     10  N   UNL     1       7.407   5.116  14.943  0.00  0.00    +0.000 NA
ATOM     11  C   UNL     1       6.498   4.322  15.455  0.00  0.00    +0.000 A 
ATOM     12  N   UNL     1       6.069   4.775  16.686  0.00  0.00    +0.000 N 
BRANCH  11  13
ATOM     13  O   UNL     1       6.010   3.293  14.785  0.00  0.00    +0.000 OA
ATOM     14  H   UNL     1       5.047   3.438  14.869  0.00  0.00    +0.000 HD
ENDBRANCH  11  13
ENDBRANCH   1  12
BRANCH   4  15
ATOM     15  O   UNL     1       1.953   2.655  19.829  0.00  0.00    +0.000 OA
BRANCH  15  16
ATOM     16  C   UNL     1       1.350   3.469  20.824  0.00  0.00    +0.000 C 
ATOM     17  F   UNL     1       0.327   4.226  20.374  0.00  0.00    +0.000 F 
ATOM     18  F   UNL     1       0.906   2.691  21.834  0.00  0.00    +0.000 F 
ATOM     19  F   UNL     1       2.292   4.305  21.318  0.00  0.00    +0.000 F 
ENDBRANCH  15  16
ENDBRANCH   4  15
TORSDOF 4
ENDMDL
MODEL 6
REMARK VINA RESULT:      -7.3      0.993      1.407
REMARK  Name = 
REMARK  5 active torsions:
REMARK  status: ('A' for Active; 'I' for Inactive)
REMARK    1  A    between atoms: C_1  and  C_2
REMARK    2  A    between atoms: C_5  and  O_6
REMARK    3  A    between atoms: N_7  and  C_8
REMARK    4  A    between atoms: C_11  and  O_12
REMARK    5  A    between atoms: O_12  and  C_13
REMARK                            x       y       z     vdW  Elec       q    Type
REMARK                         _______ _______ _______ _____ _____    ______ ____
ROOT
ATOM      1  C   UNL     1       4.687   4.704  17.015  0.00  0.00    +0.000 A 
ATOM      2  C   UNL     1       4.434   3.361  17.320  0.00  0.00    +0.000 A 
ATOM      3  C   UNL     1       3.300   3.011  18.060  0.00  0.00    +0.000 A 
ATOM      4  C   UNL     1       2.399   3.984  18.498  0.00  0.00    +0.000 A 
ATOM      5  C   UNL     1       2.618   5.312  18.145  0.00  0.00    +0.000 A 
ATOM      6  C   UNL     1       3.767   5.675  17.424  0.00  0.00    +0.000 A 
ENDROOT
BRANCH   1  12
ATOM      7  C   UNL     1       7.348   6.118  18.037  0.00  0.00    +0.000 C 
ATOM      8  C   UNL     1       6.977   5.753  16.649  0.00  0.00    +0.000 A 
ATOM      9  N   UNL     1       7.773   5.924  15.608  0.00  0.00    +0.000 NA
ATOM     10  N   UNL     1       7.206   5.316  14.522  0.00  0.00    +0.000 NA
ATOM     11  C   UNL     1       6.076   4.787  14.923  0.00  0.00    +0.000 A 
ATOM     12  N   UNL     1       5.837   5.058  16.255  0.00  0.00    +0.000 N 
BRANCH  11  13
ATOM     13  O   UNL     1       5.255   4.174  14.088  0.00  0.00    +0.000 OA
ATOM     14  H   UNL     1       4.906   3.451  14.646  0.00  0.00    +0.000 HD
ENDBRANCH  11  13
ENDBRANCH   1  12
BRANCH   4  15
ATOM     15  O   UNL     1       1.339   3.501  19.198  0.00  0.00    +0.000 OA
BRANCH  15  16
ATOM     16  C   UNL     1       1.245   3.750  20.592  0.00  0.00    +0.000 C 
ATOM     17  F   UNL     1       0.629   2.771  21.289  0.00  0.00    +0.000 F 
ATOM     18  F   UNL     1       2.482   3.935  21.101  0.00  0.00    +0.000 F 
ATOM     19  F   UNL     1       0.539   4.889  20.775  0.00  0.00    +0.000 F 
ENDBRANCH  15  16
ENDBRANCH   4  15
TORSDOF 4
ENDMDL
MODEL 7
REMARK VINA RESULT:      -7.3      1.021      1.569
REMARK  Name = 
REMARK  5 active torsions:
REMARK  status: ('A' for Active; 'I' for Inactive)
REMARK    1  A    between atoms: C_1  and  C_2
REMARK    2  A    between atoms: C_5  and  O_6
REMARK    3  A    between atoms: N_7  and  C_8
REMARK    4  A    between atoms: C_11  and  O_12
REMARK    5  A    between atoms: O_12  and  C_13
REMARK                            x       y       z     vdW  Elec       q    Type
REMARK                         _______ _______ _______ _____ _____    ______ ____
ROOT
ATOM      1  C   UNL     1       4.658   4.588  16.956  0.00  0.00    +0.000 A 
ATOM      2  C   UNL     1       3.749   5.542  17.430  0.00  0.00    +0.000 A 
ATOM      3  C   UNL     1       2.621   5.139  18.152  0.00  0.00    +0.000 A 
ATOM      4  C   UNL     1       2.385   3.788  18.421  0.00  0.00    +0.000 A 
ATOM      5  C   UNL     1       3.318   2.845  18.002  0.00  0.00    +0.000 A 
ATOM      6  C   UNL     1       4.439   3.239  17.254  0.00  0.00    +0.000 A 
ENDROOT
BRANCH   1  12
ATOM      7  C   UNL     1       7.264   6.032  18.071  0.00  0.00    +0.000 C 
ATOM      8  C   UNL     1       6.924   5.709  16.665  0.00  0.00    +0.000 A 
ATOM      9  N   UNL     1       7.731   5.939  15.643  0.00  0.00    +0.000 NA
ATOM     10  N   UNL     1       7.197   5.355  14.528  0.00  0.00    +0.000 NA
ATOM     11  C   UNL     1       6.076   4.783  14.891  0.00  0.00    +0.000 A 
ATOM     12  N   UNL     1       5.809   5.000  16.228  0.00  0.00    +0.000 N 
BRANCH  11  13
ATOM     13  O   UNL     1       5.284   4.181  14.021  0.00  0.00    +0.000 OA
ATOM     14  H   UNL     1       4.510   3.958  14.576  0.00  0.00    +0.000 HD
ENDBRANCH  11  13
ENDBRANCH   1  12
BRANCH   4  15
ATOM     15  O   UNL     1       1.257   3.543  19.140  0.00  0.00    +0.000 OA
BRANCH  15  16
ATOM     16  C   UNL     1       1.254   3.770  20.541  0.00  0.00    +0.000 C 
ATOM     17  F   UNL     1       0.621   2.814  21.255  0.00  0.00    +0.000 F 
ATOM     18  F   UNL     1       2.525   3.875  20.983  0.00  0.00    +0.000 F 
ATOM     19  F   UNL     1       0.625   4.944  20.780  0.00  0.00    +0.000 F 
ENDBRANCH  15  16
ENDBRANCH   4  15
TORSDOF 4
ENDMDL
MODEL 8
REMARK VINA RESULT:      -7.3      4.474      6.374
REMARK  Name = 
REMARK  5 active torsions:
REMARK  status: ('A' for Active; 'I' for Inactive)
REMARK    1  A    between atoms: C_1  and  C_2
REMARK    2  A    between atoms: C_5  and  O_6
REMARK    3  A    between atoms: N_7  and  C_8
REMARK    4  A    between atoms: C_11  and  O_12
REMARK    5  A    between atoms: O_12  and  C_13
REMARK                            x       y       z     vdW  Elec       q    Type
REMARK                         _______ _______ _______ _____ _____    ______ ____
ROOT
ATOM      1  C   UNL     1       3.981   4.121  18.887  0.00  0.00    +0.000 A 
ATOM      2  C   UNL     1       3.792   3.453  17.671  0.00  0.00    +0.000 A 
ATOM      3  C   UNL     1       4.368   3.952  16.499  0.00  0.00    +0.000 A 
ATOM      4  C   UNL     1       5.144   5.113  16.517  0.00  0.00    +0.000 A 
ATOM      5  C   UNL     1       5.382   5.745  17.734  0.00  0.00    +0.000 A 
ATOM      6  C   UNL     1       4.787   5.265  18.912  0.00  0.00    +0.000 A 
ENDROOT
BRANCH   1  12
ATOM      7  C   UNL     1       1.367   5.140  20.388  0.00  0.00    +0.000 C 
ATOM      8  C   UNL     1       2.314   4.081  20.811  0.00  0.00    +0.000 A 
ATOM      9  N   UNL     1       2.154   3.343  21.895  0.00  0.00    +0.000 NA
ATOM     10  N   UNL     1       3.092   2.348  21.887  0.00  0.00    +0.000 NA
ATOM     11  C   UNL     1       3.807   2.501  20.799  0.00  0.00    +0.000 A 
ATOM     12  N   UNL     1       3.402   3.608  20.081  0.00  0.00    +0.000 N 
BRANCH  11  13
ATOM     13  O   UNL     1       4.843   1.727  20.528  0.00  0.00    +0.000 OA
ATOM     14  H   UNL     1       5.210   1.564  21.419  0.00  0.00    +0.000 HD
ENDBRANCH  11  13
ENDBRANCH   1  12
BRANCH   4  15
ATOM     15  O   UNL     1       5.648   5.477  15.308  0.00  0.00    +0.000 OA
BRANCH  15  16
ATOM     16  C   UNL     1       6.684   4.707  14.718  0.00  0.00    +0.000 C 
ATOM     17  F   UNL     1       6.262   3.561  14.142  0.00  0.00    +0.000 F 
ATOM     18  F   UNL     1       7.325   5.450  13.792  0.00  0.00    +0.000 F 
ATOM     19  F   UNL     1       7.572   4.377  15.684  0.00  0.00    +0.000 F 
ENDBRANCH  15  16
ENDBRANCH   4  15
TORSDOF 4
ENDMDL
MODEL 9
REMARK VINA RESULT:      -7.3      0.982      1.686
REMARK  Name = 
REMARK  5 active torsions:
REMARK  status: ('A' for Active; 'I' for Inactive)
REMARK    1  A    between atoms: C_1  and  C_2
REMARK    2  A    between atoms: C_5  and  O_6
REMARK    3  A    between atoms: N_7  and  C_8
REMARK    4  A    between atoms: C_11  and  O_12
REMARK    5  A    between atoms: O_12  and  C_13
REMARK                            x       y       z     vdW  Elec       q    Type
REMARK                         _______ _______ _______ _____ _____    ______ ____
ROOT
ATOM      1  C   UNL     1       4.957   4.730  17.733  0.00  0.00    +0.000 A 
ATOM      2  C   UNL     1       3.668   5.223  17.500  0.00  0.00    +0.000 A 
ATOM      3  C   UNL     1       2.651   5.000  18.434  0.00  0.00    +0.000 A 
ATOM      4  C   UNL     1       2.902   4.295  19.614  0.00  0.00    +0.000 A 
ATOM      5  C   UNL     1       4.196   3.856  19.875  0.00  0.00    +0.000 A 
ATOM      6  C   UNL     1       5.216   4.054  18.930  0.00  0.00    +0.000 A 
ENDROOT
BRANCH   1  12
ATOM      7  C   UNL     1       6.954   7.204  17.590  0.00  0.00    +0.000 C 
ATOM      8  C   UNL     1       6.824   6.072  16.641  0.00  0.00    +0.000 A 
ATOM      9  N   UNL     1       7.604   5.905  15.586  0.00  0.00    +0.000 NA
ATOM     10  N   UNL     1       7.342   4.679  15.041  0.00  0.00    +0.000 NA
ATOM     11  C   UNL     1       6.407   4.124  15.773  0.00  0.00    +0.000 A 
ATOM     12  N   UNL     1       5.993   4.965  16.786  0.00  0.00    +0.000 N 
BRANCH  11  13
ATOM     13  O   UNL     1       5.886   2.948  15.468  0.00  0.00    +0.000 OA
ATOM     14  H   UNL     1       5.291   2.790  16.228  0.00  0.00    +0.000 HD
ENDBRANCH  11  13
ENDBRANCH   1  12
BRANCH   4  15
ATOM     15  O   UNL     1       1.825   4.161  20.433  0.00  0.00    +0.000 OA
BRANCH  15  16
ATOM     16  C   UNL     1       1.173   2.904  20.535  0.00  0.00    +0.000 C 
ATOM     17  F   UNL     1       1.850   1.883  19.968  0.00  0.00    +0.000 F 
ATOM     18  F   UNL     1       0.956   2.615  21.835  0.00  0.00    +0.000 F 
ATOM     19  F   UNL     1      -0.026   2.995  19.916  0.00  0.00    +0.000 F 
ENDBRANCH  15  16
ENDBRANCH   4  15
TORSDOF 4
ENDMDL
