MODEL 1
REMARK VINA RESULT:      -7.6      0.000      0.000
REMARK  Name = 
REMARK  8 active torsions:
REMARK  status: ('A' for Active; 'I' for Inactive)
REMARK    1  A    between atoms: C_1  and  O_2
REMARK    2  A    between atoms: O_2  and  C_3
REMARK    3  A    between atoms: C_6  and  C_7
REMARK    4  A    between atoms: C_7  and  N_8
REMARK    5  A    between atoms: C_10  and  C_11
REMARK    6  A    between atoms: C_11  and  O_12
REMARK    7  A    between atoms: O_12  and  C_13
REMARK    8  A    between atoms: C_13  and  C_14
REMARK                            x       y       z     vdW  Elec       q    Type
REMARK                         _______ _______ _______ _____ _____    ______ ____
ROOT
ATOM      1  N   UNL     1       0.971   8.774  19.777  0.00  0.00    +0.000 NA
ATOM      2  C   UNL     1       1.471   9.684  18.633  0.00  0.00    +0.000 C 
ATOM      3  C   UNL     1       1.119  11.142  18.886  0.00  0.00    +0.000 C 
ATOM      4  O   UNL     1      -0.235  11.320  18.415  0.00  0.00    +0.000 OA
ATOM      5  C   UNL     1      -1.235  10.941  19.369  0.00  0.00    +0.000 A 
ATOM      6  C   UNL     1      -2.419  11.607  19.029  0.00  0.00    +0.000 A 
ATOM      7  C   UNL     1      -2.833  12.643  19.857  0.00  0.00    +0.000 A 
ATOM      8  C   UNL     1      -2.104  12.898  21.020  0.00  0.00    +0.000 A 
ATOM      9  C   UNL     1      -1.152  11.962  21.468  0.00  0.00    +0.000 A 
ATOM     10  F   UNL     1      -0.453  12.261  22.570  0.00  0.00    +0.000 F 
ATOM     11  C   UNL     1      -0.865  10.836  20.706  0.00  0.00    +0.000 A 
ATOM     12  S   UNL     1       0.303   9.569  21.254  0.00  0.00    +0.000 S 
ATOM     13  O   UNL     1      -0.463   8.562  21.960  0.00  0.00    +0.000 OA
ATOM     14  O   UNL     1       1.430  10.219  21.902  0.00  0.00    +0.000 OA
ENDROOT
BRANCH   1  15
ATOM     15  C   UNL     1       2.066   7.807  20.172  0.00  0.00    +0.000 C 
BRANCH  15  19
ATOM     16  C   UNL     1       1.977   3.555  19.180  0.00  0.00    +0.000 A 
ATOM     17  C   UNL     1       2.412   4.495  18.254  0.00  0.00    +0.000 A 
ATOM     18  C   UNL     1       2.408   5.857  18.585  0.00  0.00    +0.000 A 
ATOM     19  C   UNL     1       1.906   6.326  19.817  0.00  0.00    +0.000 A 
ATOM     20  C   UNL     1       1.427   5.367  20.714  0.00  0.00    +0.000 A 
ATOM     21  C   UNL     1       1.471   3.987  20.409  0.00  0.00    +0.000 A 
BRANCH  16  23
ATOM     22  C   UNL     1       3.239   1.848  18.063  0.00  0.00    +0.000 C 
ATOM     23  O   UNL     1       2.070   2.240  18.774  0.00  0.00    +0.000 OA
ENDBRANCH  16  23
ENDBRANCH  15  19
ENDBRANCH   1  15
BRANCH   3  24
ATOM     24  C   UNL     1       2.021  12.392  18.969  0.00  0.00    +0.000 C 
BRANCH  24  25
ATOM     25  O   UNL     1       1.607  13.442  19.835  0.00  0.00    +0.000 OA
BRANCH  25  26
ATOM     26  C   UNL     1       2.274  14.678  19.488  0.00  0.00    +0.000 C 
BRANCH  26  27
ATOM     27  C   UNL     1       1.446  15.785  18.838  0.00  0.00    +0.000 A 
ATOM     28  C   UNL     1       0.053  15.855  18.915  0.00  0.00    +0.000 A 
ATOM     29  C   UNL     1      -0.650  16.891  18.273  0.00  0.00    +0.000 A 
ATOM     30  C   UNL     1       0.040  17.867  17.551  0.00  0.00    +0.000 A 
ATOM     31  C   UNL     1       1.430  17.818  17.482  0.00  0.00    +0.000 A 
ATOM     32  C   UNL     1       2.125  16.784  18.124  0.00  0.00    +0.000 A 
ENDBRANCH  26  27
ENDBRANCH  25  26
ENDBRANCH  24  25
ENDBRANCH   3  24
TORSDOF 7
ENDMDL
MODEL 2
REMARK VINA RESULT:      -7.5      4.395      7.765
REMARK  Name = 
REMARK  8 active torsions:
REMARK  status: ('A' for Active; 'I' for Inactive)
REMARK    1  A    between atoms: C_1  and  O_2
REMARK    2  A    between atoms: O_2  and  C_3
REMARK    3  A    between atoms: C_6  and  C_7
REMARK    4  A    between atoms: C_7  and  N_8
REMARK    5  A    between atoms: C_10  and  C_11
REMARK    6  A    between atoms: C_11  and  O_12
REMARK    7  A    between atoms: O_12  and  C_13
REMARK    8  A    between atoms: C_13  and  C_14
REMARK                            x       y       z     vdW  Elec       q    Type
REMARK                         _______ _______ _______ _____ _____    ______ ____
ROOT
ATOM      1  N   UNL     1       5.142   4.096  17.727  0.00  0.00    +0.000 NA
ATOM      2  C   UNL     1       4.261   5.090  16.937  0.00  0.00    +0.000 C 
ATOM      3  C   UNL     1       3.048   5.523  17.746  0.00  0.00    +0.000 C 
ATOM      4  O   UNL     1       2.045   4.502  17.550  0.00  0.00    +0.000 OA
ATOM      5  C   UNL     1       2.189   3.373  18.421  0.00  0.00    +0.000 A 
ATOM      6  C   UNL     1       0.944   2.738  18.501  0.00  0.00    +0.000 A 
ATOM      7  C   UNL     1       0.241   2.850  19.695  0.00  0.00    +0.000 A 
ATOM      8  C   UNL     1       0.851   3.504  20.767  0.00  0.00    +0.000 A 
ATOM      9  C   UNL     1       2.228   3.793  20.719  0.00  0.00    +0.000 A 
ATOM     10  F   UNL     1       2.766   4.449  21.754  0.00  0.00    +0.000 F 
ATOM     11  C   UNL     1       2.961   3.520  19.570  0.00  0.00    +0.000 A 
ATOM     12  S   UNL     1       4.742   3.812  19.464  0.00  0.00    +0.000 S 
ATOM     13  O   UNL     1       5.398   2.579  19.849  0.00  0.00    +0.000 OA
ATOM     14  O   UNL     1       5.055   5.053  20.154  0.00  0.00    +0.000 OA
ENDROOT
BRANCH   1  15
ATOM     15  C   UNL     1       6.597   4.495  17.600  0.00  0.00    +0.000 C 
BRANCH  15  19
ATOM     16  C   UNL     1       8.017   8.603  18.015  0.00  0.00    +0.000 A 
ATOM     17  C   UNL     1       8.477   7.600  18.860  0.00  0.00    +0.000 A 
ATOM     18  C   UNL     1       7.988   6.294  18.725  0.00  0.00    +0.000 A 
ATOM     19  C   UNL     1       6.979   5.964  17.796  0.00  0.00    +0.000 A 
ATOM     20  C   UNL     1       6.496   6.999  16.990  0.00  0.00    +0.000 A 
ATOM     21  C   UNL     1       7.017   8.310  17.086  0.00  0.00    +0.000 A 
BRANCH  16  23
ATOM     22  C   UNL     1       9.254  10.088  19.437  0.00  0.00    +0.000 C 
ATOM     23  O   UNL     1       8.600   9.840  18.198  0.00  0.00    +0.000 OA
ENDBRANCH  16  23
ENDBRANCH  15  19
ENDBRANCH   1  15
BRANCH   3  24
ATOM     24  C   UNL     1       2.569   6.931  18.161  0.00  0.00    +0.000 C 
BRANCH  24  25
ATOM     25  O   UNL     1       2.800   7.330  19.506  0.00  0.00    +0.000 OA
BRANCH  25  26
ATOM     26  C   UNL     1       1.576   7.255  20.274  0.00  0.00    +0.000 C 
BRANCH  26  27
ATOM     27  C   UNL     1       0.982   8.557  20.811  0.00  0.00    +0.000 A 
ATOM     28  C   UNL     1       0.706   8.782  22.161  0.00  0.00    +0.000 A 
ATOM     29  C   UNL     1       0.136   9.997  22.584  0.00  0.00    +0.000 A 
ATOM     30  C   UNL     1      -0.158  10.997  21.655  0.00  0.00    +0.000 A 
ATOM     31  C   UNL     1       0.129  10.791  20.308  0.00  0.00    +0.000 A 
ATOM     32  C   UNL     1       0.697   9.579  19.893  0.00  0.00    +0.000 A 
ENDBRANCH  26  27
ENDBRANCH  25  26
ENDBRANCH  24  25
ENDBRANCH   3  24
TORSDOF 7
ENDMDL
MODEL 3
REMARK VINA RESULT:      -7.5      4.271      7.478
REMARK  Name = 
REMARK  8 active torsions:
REMARK  status: ('A' for Active; 'I' for Inactive)
REMARK    1  A    between atoms: C_1  and  O_2
REMARK    2  A    between atoms: O_2  and  C_3
REMARK    3  A    between atoms: C_6  and  C_7
REMARK    4  A    between atoms: C_7  and  N_8
REMARK    5  A    between atoms: C_10  and  C_11
REMARK    6  A    between atoms: C_11  and  O_12
REMARK    7  A    between atoms: O_12  and  C_13
REMARK    8  A    between atoms: C_13  and  C_14
REMARK                            x       y       z     vdW  Elec       q    Type
REMARK                         _______ _______ _______ _____ _____    ______ ____
ROOT
ATOM      1  N   UNL     1       5.068   4.141  17.526  0.00  0.00    +0.000 NA
ATOM      2  C   UNL     1       4.206   5.243  16.871  0.00  0.00    +0.000 C 
ATOM      3  C   UNL     1       3.071   5.679  17.784  0.00  0.00    +0.000 C 
ATOM      4  O   UNL     1       1.997   4.737  17.575  0.00  0.00    +0.000 OA
ATOM      5  C   UNL     1       2.120   3.536  18.347  0.00  0.00    +0.000 A 
ATOM      6  C   UNL     1       0.845   2.970  18.457  0.00  0.00    +0.000 A 
ATOM      7  C   UNL     1       0.221   3.027  19.697  0.00  0.00    +0.000 A 
ATOM      8  C   UNL     1       0.932   3.558  20.775  0.00  0.00    +0.000 A 
ATOM      9  C   UNL     1       2.319   3.769  20.663  0.00  0.00    +0.000 A 
ATOM     10  F   UNL     1       2.956   4.310  21.710  0.00  0.00    +0.000 F 
ATOM     11  C   UNL     1       2.965   3.547  19.453  0.00  0.00    +0.000 A 
ATOM     12  S   UNL     1       4.752   3.743  19.258  0.00  0.00    +0.000 S 
ATOM     13  O   UNL     1       5.351   2.447  19.506  0.00  0.00    +0.000 OA
ATOM     14  O   UNL     1       5.181   4.905  20.019  0.00  0.00    +0.000 OA
ENDROOT
BRANCH   1  15
ATOM     15  C   UNL     1       6.535   4.463  17.338  0.00  0.00    +0.000 C 
BRANCH  15  19
ATOM     16  C   UNL     1       8.341   8.268  18.489  0.00  0.00    +0.000 A 
ATOM     17  C   UNL     1       8.501   7.135  19.277  0.00  0.00    +0.000 A 
ATOM     18  C   UNL     1       7.892   5.930  18.901  0.00  0.00    +0.000 A 
ATOM     19  C   UNL     1       7.049   5.838  17.774  0.00  0.00    +0.000 A 
ATOM     20  C   UNL     1       6.863   7.002  17.024  0.00  0.00    +0.000 A 
ATOM     21  C   UNL     1       7.512   8.211  17.367  0.00  0.00    +0.000 A 
BRANCH  16  23
ATOM     22  C   UNL     1       8.971  10.551  18.103  0.00  0.00    +0.000 C 
ATOM     23  O   UNL     1       9.025   9.387  18.920  0.00  0.00    +0.000 OA
ENDBRANCH  16  23
ENDBRANCH  15  19
ENDBRANCH   1  15
BRANCH   3  24
ATOM     24  C   UNL     1       2.705   7.075  18.333  0.00  0.00    +0.000 C 
BRANCH  24  25
ATOM     25  O   UNL     1       1.910   7.916  17.507  0.00  0.00    +0.000 OA
BRANCH  25  26
ATOM     26  C   UNL     1       2.006   9.292  17.943  0.00  0.00    +0.000 C 
BRANCH  26  27
ATOM     27  C   UNL     1       0.737   9.977  18.451  0.00  0.00    +0.000 A 
ATOM     28  C   UNL     1      -0.504   9.870  17.820  0.00  0.00    +0.000 A 
ATOM     29  C   UNL     1      -1.627  10.547  18.329  0.00  0.00    +0.000 A 
ATOM     30  C   UNL     1      -1.514  11.334  19.477  0.00  0.00    +0.000 A 
ATOM     31  C   UNL     1      -0.285  11.433  20.125  0.00  0.00    +0.000 A 
ATOM     32  C   UNL     1       0.830  10.756  19.613  0.00  0.00    +0.000 A 
ENDBRANCH  26  27
ENDBRANCH  25  26
ENDBRANCH  24  25
ENDBRANCH   3  24
TORSDOF 7
ENDMDL
MODEL 4
REMARK VINA RESULT:      -7.5      0.477      1.281
REMARK  Name = 
REMARK  8 active torsions:
REMARK  status: ('A' for Active; 'I' for Inactive)
REMARK    1  A    between atoms: C_1  and  O_2
REMARK    2  A    between atoms: O_2  and  C_3
REMARK    3  A    between atoms: C_6  and  C_7
REMARK    4  A    between atoms: C_7  and  N_8
REMARK    5  A    between atoms: C_10  and  C_11
REMARK    6  A    between atoms: C_11  and  O_12
REMARK    7  A    between atoms: O_12  and  C_13
REMARK    8  A    between atoms: C_13  and  C_14
REMARK                            x       y       z     vdW  Elec       q    Type
REMARK                         _______ _______ _______ _____ _____    ______ ____
ROOT
ATOM      1  N   UNL     1       0.943   9.034  19.739  0.00  0.00    +0.000 NA
ATOM      2  C   UNL     1       1.402  10.003  18.627  0.00  0.00    +0.000 C 
ATOM      3  C   UNL     1       0.937  11.425  18.901  0.00  0.00    +0.000 C 
ATOM      4  O   UNL     1      -0.415  11.514  18.399  0.00  0.00    +0.000 OA
ATOM      5  C   UNL     1      -1.407  11.042  19.319  0.00  0.00    +0.000 A 
ATOM      6  C   UNL     1      -2.628  11.626  18.963  0.00  0.00    +0.000 A 
ATOM      7  C   UNL     1      -3.138  12.610  19.800  0.00  0.00    +0.000 A 
ATOM      8  C   UNL     1      -2.458  12.893  20.987  0.00  0.00    +0.000 A 
ATOM      9  C   UNL     1      -1.450  12.020  21.440  0.00  0.00    +0.000 A 
ATOM     10  F   UNL     1      -0.801  12.345  22.566  0.00  0.00    +0.000 F 
ATOM     11  C   UNL     1      -1.062  10.935  20.663  0.00  0.00    +0.000 A 
ATOM     12  S   UNL     1       0.182   9.745  21.214  0.00  0.00    +0.000 S 
ATOM     13  O   UNL     1      -0.524   8.669  21.881  0.00  0.00    +0.000 OA
ATOM     14  O   UNL     1       1.243  10.461  21.904  0.00  0.00    +0.000 OA
ENDROOT
BRANCH   1  15
ATOM     15  C   UNL     1       2.097   8.141  20.143  0.00  0.00    +0.000 C 
BRANCH  15  19
ATOM     16  C   UNL     1       1.763   4.006  18.783  0.00  0.00    +0.000 A 
ATOM     17  C   UNL     1       1.543   4.339  20.114  0.00  0.00    +0.000 A 
ATOM     18  C   UNL     1       1.680   5.669  20.533  0.00  0.00    +0.000 A 
ATOM     19  C   UNL     1       2.110   6.689  19.659  0.00  0.00    +0.000 A 
ATOM     20  C   UNL     1       2.373   6.322  18.336  0.00  0.00    +0.000 A 
ATOM     21  C   UNL     1       2.191   4.992  17.892  0.00  0.00    +0.000 A 
BRANCH  16  23
ATOM     22  C   UNL     1       2.642   1.946  17.921  0.00  0.00    +0.000 C 
ATOM     23  O   UNL     1       1.550   2.680  18.465  0.00  0.00    +0.000 OA
ENDBRANCH  16  23
ENDBRANCH  15  19
ENDBRANCH   1  15
BRANCH   3  24
ATOM     24  C   UNL     1       1.742  12.737  19.032  0.00  0.00    +0.000 C 
BRANCH  24  25
ATOM     25  O   UNL     1       1.159  13.789  19.791  0.00  0.00    +0.000 OA
BRANCH  25  26
ATOM     26  C   UNL     1       1.979  14.978  19.720  0.00  0.00    +0.000 C 
BRANCH  26  27
ATOM     27  C   UNL     1       1.584  16.067  18.722  0.00  0.00    +0.000 A 
ATOM     28  C   UNL     1       2.475  16.646  17.816  0.00  0.00    +0.000 A 
ATOM     29  C   UNL     1       2.049  17.661  16.941  0.00  0.00    +0.000 A 
ATOM     30  C   UNL     1       0.724  18.101  16.965  0.00  0.00    +0.000 A 
ATOM     31  C   UNL     1      -0.178  17.519  17.853  0.00  0.00    +0.000 A 
ATOM     32  C   UNL     1       0.252  16.508  18.722  0.00  0.00    +0.000 A 
ENDBRANCH  26  27
ENDBRANCH  25  26
ENDBRANCH  24  25
ENDBRANCH   3  24
TORSDOF 7
ENDMDL
MODEL 5
REMARK VINA RESULT:      -7.4      0.550      1.031
REMARK  Name = 
REMARK  8 active torsions:
REMARK  status: ('A' for Active; 'I' for Inactive)
REMARK    1  A    between atoms: C_1  and  O_2
REMARK    2  A    between atoms: O_2  and  C_3
REMARK    3  A    between atoms: C_6  and  C_7
REMARK    4  A    between atoms: C_7  and  N_8
REMARK    5  A    between atoms: C_10  and  C_11
REMARK    6  A    between atoms: C_11  and  O_12
REMARK    7  A    between atoms: O_12  and  C_13
REMARK    8  A    between atoms: C_13  and  C_14
REMARK                            x       y       z     vdW  Elec       q    Type
REMARK                         _______ _______ _______ _____ _____    ______ ____
ROOT
ATOM      1  N   UNL     1       1.018   8.744  19.654  0.00  0.00    +0.000 NA
ATOM      2  C   UNL     1       1.516   9.683  18.533  0.00  0.00    +0.000 C 
ATOM      3  C   UNL     1       1.156  11.133  18.819  0.00  0.00    +0.000 C 
ATOM      4  O   UNL     1      -0.198  11.315  18.350  0.00  0.00    +0.000 OA
ATOM      5  C   UNL     1      -1.198  10.909  19.292  0.00  0.00    +0.000 A 
ATOM      6  C   UNL     1      -2.385  11.577  18.966  0.00  0.00    +0.000 A 
ATOM      7  C   UNL     1      -2.806  12.591  19.816  0.00  0.00    +0.000 A 
ATOM      8  C   UNL     1      -2.081  12.823  20.987  0.00  0.00    +0.000 A 
ATOM      9  C   UNL     1      -1.125  11.881  21.415  0.00  0.00    +0.000 A 
ATOM     10  F   UNL     1      -0.429  12.158  22.525  0.00  0.00    +0.000 F 
ATOM     11  C   UNL     1      -0.830  10.775  20.628  0.00  0.00    +0.000 A 
ATOM     12  S   UNL     1       0.342   9.501  21.148  0.00  0.00    +0.000 S 
ATOM     13  O   UNL     1      -0.420   8.474  21.829  0.00  0.00    +0.000 OA
ATOM     14  O   UNL     1       1.465  10.141  21.813  0.00  0.00    +0.000 OA
ENDROOT
BRANCH   1  15
ATOM     15  C   UNL     1       2.117   7.773  20.029  0.00  0.00    +0.000 C 
BRANCH  15  19
ATOM     16  C   UNL     1       2.118   3.597  18.755  0.00  0.00    +0.000 A 
ATOM     17  C   UNL     1       2.342   4.621  17.843  0.00  0.00    +0.000 A 
ATOM     18  C   UNL     1       2.312   5.956  18.270  0.00  0.00    +0.000 A 
ATOM     19  C   UNL     1       1.988   6.311  19.596  0.00  0.00    +0.000 A 
ATOM     20  C   UNL     1       1.717   5.266  20.484  0.00  0.00    +0.000 A 
ATOM     21  C   UNL     1       1.792   3.914  20.075  0.00  0.00    +0.000 A 
BRANCH  16  23
ATOM     22  C   UNL     1       3.425   1.602  18.491  0.00  0.00    +0.000 C 
ATOM     23  O   UNL     1       2.221   2.320  18.243  0.00  0.00    +0.000 OA
ENDBRANCH  16  23
ENDBRANCH  15  19
ENDBRANCH   1  15
BRANCH   3  24
ATOM     24  C   UNL     1       2.051  12.385  18.933  0.00  0.00    +0.000 C 
BRANCH  24  25
ATOM     25  O   UNL     1       1.858  13.227  20.063  0.00  0.00    +0.000 OA
BRANCH  25  26
ATOM     26  C   UNL     1       2.738  14.373  19.996  0.00  0.00    +0.000 C 
BRANCH  26  27
ATOM     27  C   UNL     1       2.376  15.506  19.036  0.00  0.00    +0.000 A 
ATOM     28  C   UNL     1       3.185  15.905  17.971  0.00  0.00    +0.000 A 
ATOM     29  C   UNL     1       2.801  16.972  17.139  0.00  0.00    +0.000 A 
ATOM     30  C   UNL     1       1.599  17.645  17.367  0.00  0.00    +0.000 A 
ATOM     31  C   UNL     1       0.775  17.244  18.416  0.00  0.00    +0.000 A 
ATOM     32  C   UNL     1       1.163  16.180  19.241  0.00  0.00    +0.000 A 
ENDBRANCH  26  27
ENDBRANCH  25  26
ENDBRANCH  24  25
ENDBRANCH   3  24
TORSDOF 7
ENDMDL
MODEL 6
REMARK VINA RESULT:      -7.3      0.606      1.086
REMARK  Name = 
REMARK  8 active torsions:
REMARK  status: ('A' for Active; 'I' for Inactive)
REMARK    1  A    between atoms: C_1  and  O_2
REMARK    2  A    between atoms: O_2  and  C_3
REMARK    3  A    between atoms: C_6  and  C_7
REMARK    4  A    between atoms: C_7  and  N_8
REMARK    5  A    between atoms: C_10  and  C_11
REMARK    6  A    between atoms: C_11  and  O_12
REMARK    7  A    between atoms: O_12  and  C_13
REMARK    8  A    between atoms: C_13  and  C_14
REMARK                            x       y       z     vdW  Elec       q    Type
REMARK                         _______ _______ _______ _____ _____    ______ ____
ROOT
ATOM      1  N   UNL     1       0.957   8.925  19.833  0.00  0.00    +0.000 NA
ATOM      2  C   UNL     1       1.462   9.880  18.729  0.00  0.00    +0.000 C 
ATOM      3  C   UNL     1       1.049  11.318  19.004  0.00  0.00    +0.000 C 
ATOM      4  O   UNL     1      -0.293  11.460  18.491  0.00  0.00    +0.000 OA
ATOM      5  C   UNL     1      -1.311  11.022  19.400  0.00  0.00    +0.000 A 
ATOM      6  C   UNL     1      -2.506  11.654  19.035  0.00  0.00    +0.000 A 
ATOM      7  C   UNL     1      -2.986  12.653  19.872  0.00  0.00    +0.000 A 
ATOM      8  C   UNL     1      -2.306  12.905  21.065  0.00  0.00    +0.000 A 
ATOM      9  C   UNL     1      -1.337  11.993  21.525  0.00  0.00    +0.000 A 
ATOM     10  F   UNL     1      -0.687  12.288  22.657  0.00  0.00    +0.000 F 
ATOM     11  C   UNL     1      -0.983  10.897  20.747  0.00  0.00    +0.000 A 
ATOM     12  S   UNL     1       0.210   9.658  21.304  0.00  0.00    +0.000 S 
ATOM     13  O   UNL     1      -0.543   8.608  21.959  0.00  0.00    +0.000 OA
ATOM     14  O   UNL     1       1.290  10.331  22.006  0.00  0.00    +0.000 OA
ENDROOT
BRANCH   1  15
ATOM     15  C   UNL     1       2.072   7.987  20.243  0.00  0.00    +0.000 C 
BRANCH  15  19
ATOM     16  C   UNL     1       1.700   3.919  18.701  0.00  0.00    +0.000 A 
ATOM     17  C   UNL     1       1.470   4.197  20.043  0.00  0.00    +0.000 A 
ATOM     18  C   UNL     1       1.619   5.506  20.521  0.00  0.00    +0.000 A 
ATOM     19  C   UNL     1       2.071   6.557  19.696  0.00  0.00    +0.000 A 
ATOM     20  C   UNL     1       2.345   6.244  18.362  0.00  0.00    +0.000 A 
ATOM     21  C   UNL     1       2.150   4.937  17.858  0.00  0.00    +0.000 A 
BRANCH  16  23
ATOM     22  C   UNL     1       2.607   1.798  18.042  0.00  0.00    +0.000 C 
ATOM     23  O   UNL     1       1.474   2.611  18.323  0.00  0.00    +0.000 OA
ENDBRANCH  16  23
ENDBRANCH  15  19
ENDBRANCH   1  15
BRANCH   3  24
ATOM     24  C   UNL     1       1.902  12.597  19.148  0.00  0.00    +0.000 C 
BRANCH  24  25
ATOM     25  O   UNL     1       2.202  13.038  20.467  0.00  0.00    +0.000 OA
BRANCH  25  26
ATOM     26  C   UNL     1       1.287  14.083  20.871  0.00  0.00    +0.000 C 
BRANCH  26  27
ATOM     27  C   UNL     1       1.013  15.220  19.887  0.00  0.00    +0.000 A 
ATOM     28  C   UNL     1      -0.239  15.468  19.321  0.00  0.00    +0.000 A 
ATOM     29  C   UNL     1      -0.416  16.519  18.403  0.00  0.00    +0.000 A 
ATOM     30  C   UNL     1       0.662  17.332  18.047  0.00  0.00    +0.000 A 
ATOM     31  C   UNL     1       1.912  17.105  18.619  0.00  0.00    +0.000 A 
ATOM     32  C   UNL     1       2.082  16.057  19.533  0.00  0.00    +0.000 A 
ENDBRANCH  26  27
ENDBRANCH  25  26
ENDBRANCH  24  25
ENDBRANCH   3  24
TORSDOF 7
ENDMDL
MODEL 7
REMARK VINA RESULT:      -7.3      0.792      1.296
REMARK  Name = 
REMARK  8 active torsions:
REMARK  status: ('A' for Active; 'I' for Inactive)
REMARK    1  A    between atoms: C_1  and  O_2
REMARK    2  A    between atoms: O_2  and  C_3
REMARK    3  A    between atoms: C_6  and  C_7
REMARK    4  A    between atoms: C_7  and  N_8
REMARK    5  A    between atoms: C_10  and  C_11
REMARK    6  A    between atoms: C_11  and  O_12
REMARK    7  A    between atoms: O_12  and  C_13
REMARK    8  A    between atoms: C_13  and  C_14
REMARK                            x       y       z     vdW  Elec       q    Type
REMARK                         _______ _______ _______ _____ _____    ______ ____
ROOT
ATOM      1  N   UNL     1       1.035   9.038  19.536  0.00  0.00    +0.000 NA
ATOM      2  C   UNL     1       1.501  10.121  18.538  0.00  0.00    +0.000 C 
ATOM      3  C   UNL     1       1.075  11.511  18.985  0.00  0.00    +0.000 C 
ATOM      4  O   UNL     1      -0.281  11.689  18.521  0.00  0.00    +0.000 OA
ATOM      5  C   UNL     1      -1.271  11.133  19.395  0.00  0.00    +0.000 A 
ATOM      6  C   UNL     1      -2.483  11.784  19.131  0.00  0.00    +0.000 A 
ATOM      7  C   UNL     1      -2.957  12.673  20.087  0.00  0.00    +0.000 A 
ATOM      8  C   UNL     1      -2.253  12.798  21.287  0.00  0.00    +0.000 A 
ATOM      9  C   UNL     1      -1.261  11.855  21.617  0.00  0.00    +0.000 A 
ATOM     10  F   UNL     1      -0.588  12.030  22.762  0.00  0.00    +0.000 F 
ATOM     11  C   UNL     1      -0.910  10.861  20.711  0.00  0.00    +0.000 A 
ATOM     12  S   UNL     1       0.312   9.586  21.097  0.00  0.00    +0.000 S 
ATOM     13  O   UNL     1      -0.410   8.456  21.644  0.00  0.00    +0.000 OA
ATOM     14  O   UNL     1       1.400  10.192  21.848  0.00  0.00    +0.000 OA
ENDROOT
BRANCH   1  15
ATOM     15  C   UNL     1       2.172   8.078  19.812  0.00  0.00    +0.000 C 
BRANCH  15  19
ATOM     16  C   UNL     1       1.892   3.774  19.128  0.00  0.00    +0.000 A 
ATOM     17  C   UNL     1       2.193   4.644  18.087  0.00  0.00    +0.000 A 
ATOM     18  C   UNL     1       2.253   6.024  18.324  0.00  0.00    +0.000 A 
ATOM     19  C   UNL     1       1.945   6.581  19.583  0.00  0.00    +0.000 A 
ATOM     20  C   UNL     1       1.596   5.691  20.602  0.00  0.00    +0.000 A 
ATOM     21  C   UNL     1       1.580   4.294  20.386  0.00  0.00    +0.000 A 
BRANCH  16  23
ATOM     22  C   UNL     1       2.936   1.981  17.924  0.00  0.00    +0.000 C 
ATOM     23  O   UNL     1       1.910   2.434  18.799  0.00  0.00    +0.000 OA
ENDBRANCH  16  23
ENDBRANCH  15  19
ENDBRANCH   1  15
BRANCH   3  24
ATOM     24  C   UNL     1       1.913  12.779  19.256  0.00  0.00    +0.000 C 
BRANCH  24  25
ATOM     25  O   UNL     1       1.424  14.010  18.739  0.00  0.00    +0.000 OA
BRANCH  25  26
ATOM     26  C   UNL     1       0.870  14.821  19.801  0.00  0.00    +0.000 C 
BRANCH  26  27
ATOM     27  C   UNL     1      -0.136  15.908  19.427  0.00  0.00    +0.000 A 
ATOM     28  C   UNL     1       0.002  16.740  18.314  0.00  0.00    +0.000 A 
ATOM     29  C   UNL     1      -0.952  17.738  18.041  0.00  0.00    +0.000 A 
ATOM     30  C   UNL     1      -2.054  17.906  18.882  0.00  0.00    +0.000 A 
ATOM     31  C   UNL     1      -2.211  17.071  19.985  0.00  0.00    +0.000 A 
ATOM     32  C   UNL     1      -1.258  16.079  20.252  0.00  0.00    +0.000 A 
ENDBRANCH  26  27
ENDBRANCH  25  26
ENDBRANCH  24  25
ENDBRANCH   3  24
TORSDOF 7
ENDMDL
MODEL 8
REMARK VINA RESULT:      -7.3      0.815      1.118
REMARK  Name = 
REMARK  8 active torsions:
REMARK  status: ('A' for Active; 'I' for Inactive)
REMARK    1  A    between atoms: C_1  and  O_2
REMARK    2  A    between atoms: O_2  and  C_3
REMARK    3  A    between atoms: C_6  and  C_7
REMARK    4  A    between atoms: C_7  and  N_8
REMARK    5  A    between atoms: C_10  and  C_11
REMARK    6  A    between atoms: C_11  and  O_12
REMARK    7  A    between atoms: O_12  and  C_13
REMARK    8  A    between atoms: C_13  and  C_14
REMARK                            x       y       z     vdW  Elec       q    Type
REMARK                         _______ _______ _______ _____ _____    ______ ____
ROOT
ATOM      1  N   UNL     1       1.007   8.760  19.710  0.00  0.00    +0.000 NA
ATOM      2  C   UNL     1       1.552   9.715  18.625  0.00  0.00    +0.000 C 
ATOM      3  C   UNL     1       1.186  11.161  18.920  0.00  0.00    +0.000 C 
ATOM      4  O   UNL     1      -0.147  11.357  18.401  0.00  0.00    +0.000 OA
ATOM      5  C   UNL     1      -1.186  10.940  19.297  0.00  0.00    +0.000 A 
ATOM      6  C   UNL     1      -2.356  11.618  18.935  0.00  0.00    +0.000 A 
ATOM      7  C   UNL     1      -2.807  12.620  19.784  0.00  0.00    +0.000 A 
ATOM      8  C   UNL     1      -2.127  12.830  20.986  0.00  0.00    +0.000 A 
ATOM      9  C   UNL     1      -1.193  11.878  21.436  0.00  0.00    +0.000 A 
ATOM     10  F   UNL     1      -0.540  12.133  22.578  0.00  0.00    +0.000 F 
ATOM     11  C   UNL     1      -0.871  10.783  20.643  0.00  0.00    +0.000 A 
ATOM     12  S   UNL     1       0.275   9.496  21.188  0.00  0.00    +0.000 S 
ATOM     13  O   UNL     1      -0.517   8.461  21.822  0.00  0.00    +0.000 OA
ATOM     14  O   UNL     1       1.373  10.120  21.908  0.00  0.00    +0.000 OA
ENDROOT
BRANCH   1  15
ATOM     15  C   UNL     1       2.086   7.779  20.113  0.00  0.00    +0.000 C 
BRANCH  15  19
ATOM     16  C   UNL     1       2.170   3.657  18.674  0.00  0.00    +0.000 A 
ATOM     17  C   UNL     1       2.359   4.721  17.801  0.00  0.00    +0.000 A 
ATOM     18  C   UNL     1       2.303   6.037  18.280  0.00  0.00    +0.000 A 
ATOM     19  C   UNL     1       1.987   6.332  19.623  0.00  0.00    +0.000 A 
ATOM     20  C   UNL     1       1.751   5.246  20.472  0.00  0.00    +0.000 A 
ATOM     21  C   UNL     1       1.853   3.914  20.009  0.00  0.00    +0.000 A 
BRANCH  16  23
ATOM     22  C   UNL     1       3.405   1.606  18.513  0.00  0.00    +0.000 C 
ATOM     23  O   UNL     1       2.297   2.404  18.111  0.00  0.00    +0.000 OA
ENDBRANCH  16  23
ENDBRANCH  15  19
ENDBRANCH   1  15
BRANCH   3  24
ATOM     24  C   UNL     1       2.081  12.408  19.090  0.00  0.00    +0.000 C 
BRANCH  24  25
ATOM     25  O   UNL     1       2.129  13.009  20.378  0.00  0.00    +0.000 OA
BRANCH  25  26
ATOM     26  C   UNL     1       2.247  14.446  20.263  0.00  0.00    +0.000 C 
BRANCH  26  27
ATOM     27  C   UNL     1       0.963  15.269  20.163  0.00  0.00    +0.000 A 
ATOM     28  C   UNL     1       0.156  15.578  21.260  0.00  0.00    +0.000 A 
ATOM     29  C   UNL     1      -1.027  16.321  21.093  0.00  0.00    +0.000 A 
ATOM     30  C   UNL     1      -1.408  16.761  19.824  0.00  0.00    +0.000 A 
ATOM     31  C   UNL     1      -0.602  16.473  18.725  0.00  0.00    +0.000 A 
ATOM     32  C   UNL     1       0.575  15.734  18.898  0.00  0.00    +0.000 A 
ENDBRANCH  26  27
ENDBRANCH  25  26
ENDBRANCH  24  25
ENDBRANCH   3  24
TORSDOF 7
ENDMDL
MODEL 9
REMARK VINA RESULT:      -7.2      1.149      1.611
REMARK  Name = 
REMARK  8 active torsions:
REMARK  status: ('A' for Active; 'I' for Inactive)
REMARK    1  A    between atoms: C_1  and  O_2
REMARK    2  A    between atoms: O_2  and  C_3
REMARK    3  A    between atoms: C_6  and  C_7
REMARK    4  A    between atoms: C_7  and  N_8
REMARK    5  A    between atoms: C_10  and  C_11
REMARK    6  A    between atoms: C_11  and  O_12
REMARK    7  A    between atoms: O_12  and  C_13
REMARK    8  A    between atoms: C_13  and  C_14
REMARK                            x       y       z     vdW  Elec       q    Type
REMARK                         _______ _______ _______ _____ _____    ______ ____
ROOT
ATOM      1  N   UNL     1       1.037   8.764  19.615  0.00  0.00    +0.000 NA
ATOM      2  C   UNL     1       1.537   9.720  18.509  0.00  0.00    +0.000 C 
ATOM      3  C   UNL     1       1.155  11.162  18.803  0.00  0.00    +0.000 C 
ATOM      4  O   UNL     1      -0.195  11.331  18.317  0.00  0.00    +0.000 OA
ATOM      5  C   UNL     1      -1.203  10.903  19.242  0.00  0.00    +0.000 A 
ATOM      6  C   UNL     1      -2.393  11.559  18.905  0.00  0.00    +0.000 A 
ATOM      7  C   UNL     1      -2.839  12.560  19.759  0.00  0.00    +0.000 A 
ATOM      8  C   UNL     1      -2.133  12.790  20.941  0.00  0.00    +0.000 A 
ATOM      9  C   UNL     1      -1.171  11.857  21.374  0.00  0.00    +0.000 A 
ATOM     10  F   UNL     1      -0.494  12.132  22.497  0.00  0.00    +0.000 F 
ATOM     11  C   UNL     1      -0.851  10.761  20.581  0.00  0.00    +0.000 A 
ATOM     12  S   UNL     1       0.331   9.498  21.106  0.00  0.00    +0.000 S 
ATOM     13  O   UNL     1      -0.427   8.455  21.767  0.00  0.00    +0.000 OA
ATOM     14  O   UNL     1       1.436  10.146  21.792  0.00  0.00    +0.000 OA
ENDROOT
BRANCH   1  15
ATOM     15  C   UNL     1       2.143   7.804  19.996  0.00  0.00    +0.000 C 
BRANCH  15  19
ATOM     16  C   UNL     1       2.173   3.625  18.731  0.00  0.00    +0.000 A 
ATOM     17  C   UNL     1       2.331   4.651  17.808  0.00  0.00    +0.000 A 
ATOM     18  C   UNL     1       2.293   5.986  18.233  0.00  0.00    +0.000 A 
ATOM     19  C   UNL     1       2.025   6.338  19.572  0.00  0.00    +0.000 A 
ATOM     20  C   UNL     1       1.820   5.290  20.474  0.00  0.00    +0.000 A 
ATOM     21  C   UNL     1       1.904   3.939  20.065  0.00  0.00    +0.000 A 
BRANCH  16  23
ATOM     22  C   UNL     1       3.482   1.631  18.470  0.00  0.00    +0.000 C 
ATOM     23  O   UNL     1       2.279   2.349  18.218  0.00  0.00    +0.000 OA
ENDBRANCH  16  23
ENDBRANCH  15  19
ENDBRANCH   1  15
BRANCH   3  24
ATOM     24  C   UNL     1       2.032  12.425  18.941  0.00  0.00    +0.000 C 
BRANCH  24  25
ATOM     25  O   UNL     1       1.504  13.646  18.440  0.00  0.00    +0.000 OA
BRANCH  25  26
ATOM     26  C   UNL     1       1.761  14.727  19.367  0.00  0.00    +0.000 C 
BRANCH  26  27
ATOM     27  C   UNL     1       0.580  15.297  20.154  0.00  0.00    +0.000 A 
ATOM     28  C   UNL     1      -0.544  15.869  19.554  0.00  0.00    +0.000 A 
ATOM     29  C   UNL     1      -1.585  16.397  20.339  0.00  0.00    +0.000 A 
ATOM     30  C   UNL     1      -1.508  16.351  21.733  0.00  0.00    +0.000 A 
ATOM     31  C   UNL     1      -0.399  15.767  22.341  0.00  0.00    +0.000 A 
ATOM     32  C   UNL     1       0.634  15.243  21.554  0.00  0.00    +0.000 A 
ENDBRANCH  26  27
ENDBRANCH  25  26
ENDBRANCH  24  25
ENDBRANCH   3  24
TORSDOF 7
ENDMDL
