MODEL 1
REMARK VINA RESULT:      -7.5      0.000      0.000
REMARK  Name = 
REMARK  9 active torsions:
REMARK  status: ('A' for Active; 'I' for Inactive)
REMARK    1  A    between atoms: C_1  and  C_2
REMARK    2  A    between atoms: C_4  and  C_5
REMARK    3  A    between atoms: C_5  and  C_6
REMARK    4  A    between atoms: C_5  and  C_7
REMARK    5  A    between atoms: C_9  and  C_10
REMARK    6  A    between atoms: C_11  and  O_12
REMARK    7  A    between atoms: O_12  and  C_13
REMARK    8  A    between atoms: C_13  and  C_14
REMARK    9  A    between atoms: C_16  and  C_17
REMARK                            x       y       z     vdW  Elec       q    Type
REMARK                         _______ _______ _______ _____ _____    ______ ____
ROOT
ATOM      1  C   UNL     1       2.488   7.697  18.404  0.00  0.00    +0.000 C 
ATOM      2  C   UNL     1       2.929   6.315  18.773  0.00  0.00    +0.000 A 
ATOM      3  N   UNL     1       1.912   5.544  19.236  0.00  0.00    +0.000 NA
ATOM      4  C   UNL     1       2.166   4.255  19.516  0.00  0.00    +0.000 A 
ATOM      5  N   UNL     1       3.367   3.682  19.367  0.00  0.00    +0.000 NA
ATOM      6  C   UNL     1       4.375   4.470  18.916  0.00  0.00    +0.000 A 
ATOM      7  C   UNL     1       5.702   3.781  18.749  0.00  0.00    +0.000 C 
ATOM      8  C   UNL     1       4.223   5.825  18.619  0.00  0.00    +0.000 A 
ENDROOT
BRANCH   4   9
ATOM      9  C   UNL     1       1.014   3.418  20.030  0.00  0.00    +0.000 C 
ATOM     10  C   UNL     1       0.603   2.349  19.017  0.00  0.00    +0.000 C 
ATOM     11  C   UNL     1       1.356   2.792  21.382  0.00  0.00    +0.000 C 
ENDBRANCH   4   9
BRANCH   8  12
ATOM     12  O   UNL     1       5.335   6.472  18.155  0.00  0.00    +0.000 OA
BRANCH  12  13
ATOM     13  C   UNL     1       5.298   7.025  16.836  0.00  0.00    +0.000 C 
BRANCH  13  14
ATOM     14  C   UNL     1       5.862   6.027  15.888  0.00  0.00    +0.000 A 
ATOM     15  N   UNL     1       5.256   5.130  15.132  0.00  0.00    +0.000 NA
ATOM     16  C   UNL     1       6.310   4.578  14.443  0.00  0.00    +0.000 A 
ATOM     17  N   UNL     1       7.505   5.116  14.724  0.00  0.00    +0.000 NA
ATOM     18  O   UNL     1       7.210   6.083  15.681  0.00  0.00    +0.000 OA
BRANCH  16  19
ATOM     19  C   UNL     1       6.178   3.424  13.460  0.00  0.00    +0.000 C 
ATOM     20  C   UNL     1       5.320   3.637  12.227  0.00  0.00    +0.000 C 
ATOM     21  C   UNL     1       6.798   3.512  12.080  0.00  0.00    +0.000 C 
ENDBRANCH  16  19
ENDBRANCH  13  14
ENDBRANCH  12  13
ENDBRANCH   8  12
TORSDOF 5
ENDMDL
MODEL 2
REMARK VINA RESULT:      -7.2      1.697      6.558
REMARK  Name = 
REMARK  9 active torsions:
REMARK  status: ('A' for Active; 'I' for Inactive)
REMARK    1  A    between atoms: C_1  and  C_2
REMARK    2  A    between atoms: C_4  and  C_5
REMARK    3  A    between atoms: C_5  and  C_6
REMARK    4  A    between atoms: C_5  and  C_7
REMARK    5  A    between atoms: C_9  and  C_10
REMARK    6  A    between atoms: C_11  and  O_12
REMARK    7  A    between atoms: O_12  and  C_13
REMARK    8  A    between atoms: C_13  and  C_14
REMARK    9  A    between atoms: C_16  and  C_17
REMARK                            x       y       z     vdW  Elec       q    Type
REMARK                         _______ _______ _______ _____ _____    ______ ____
ROOT
ATOM      1  C   UNL     1       3.807   3.825  16.547  0.00  0.00    +0.000 C 
ATOM      2  C   UNL     1       5.103   4.494  16.208  0.00  0.00    +0.000 A 
ATOM      3  N   UNL     1       5.597   4.106  15.005  0.00  0.00    +0.000 NA
ATOM      4  C   UNL     1       6.711   4.703  14.550  0.00  0.00    +0.000 A 
ATOM      5  N   UNL     1       7.368   5.661  15.216  0.00  0.00    +0.000 NA
ATOM      6  C   UNL     1       6.869   6.027  16.423  0.00  0.00    +0.000 A 
ATOM      7  C   UNL     1       7.629   7.117  17.128  0.00  0.00    +0.000 C 
ATOM      8  C   UNL     1       5.732   5.454  16.996  0.00  0.00    +0.000 A 
ENDROOT
BRANCH   4   9
ATOM      9  C   UNL     1       7.240   4.252  13.205  0.00  0.00    +0.000 C 
ATOM     10  C   UNL     1       6.170   3.508  12.405  0.00  0.00    +0.000 C 
ATOM     11  C   UNL     1       7.797   5.434  12.414  0.00  0.00    +0.000 C 
ENDBRANCH   4   9
BRANCH   8  12
ATOM     12  O   UNL     1       5.349   5.950  18.211  0.00  0.00    +0.000 OA
BRANCH  12  13
ATOM     13  C   UNL     1       5.777   5.263  19.390  0.00  0.00    +0.000 C 
BRANCH  13  14
ATOM     14  C   UNL     1       4.784   4.202  19.708  0.00  0.00    +0.000 A 
ATOM     15  N   UNL     1       3.471   4.271  19.830  0.00  0.00    +0.000 NA
ATOM     16  C   UNL     1       3.137   2.956  20.054  0.00  0.00    +0.000 A 
ATOM     17  N   UNL     1       4.172   2.105  20.042  0.00  0.00    +0.000 NA
ATOM     18  O   UNL     1       5.269   2.930  19.807  0.00  0.00    +0.000 OA
BRANCH  16  19
ATOM     19  C   UNL     1       1.722   2.471  20.333  0.00  0.00    +0.000 C 
ATOM     20  C   UNL     1       0.602   3.492  20.303  0.00  0.00    +0.000 C 
ATOM     21  C   UNL     1       0.680   2.457  19.234  0.00  0.00    +0.000 C 
ENDBRANCH  16  19
ENDBRANCH  13  14
ENDBRANCH  12  13
ENDBRANCH   8  12
TORSDOF 5
ENDMDL
MODEL 3
REMARK VINA RESULT:      -7.0      1.549      6.824
REMARK  Name = 
REMARK  9 active torsions:
REMARK  status: ('A' for Active; 'I' for Inactive)
REMARK    1  A    between atoms: C_1  and  C_2
REMARK    2  A    between atoms: C_4  and  C_5
REMARK    3  A    between atoms: C_5  and  C_6
REMARK    4  A    between atoms: C_5  and  C_7
REMARK    5  A    between atoms: C_9  and  C_10
REMARK    6  A    between atoms: C_11  and  O_12
REMARK    7  A    between atoms: O_12  and  C_13
REMARK    8  A    between atoms: C_13  and  C_14
REMARK    9  A    between atoms: C_16  and  C_17
REMARK                            x       y       z     vdW  Elec       q    Type
REMARK                         _______ _______ _______ _____ _____    ______ ____
ROOT
ATOM      1  C   UNL     1       3.940   3.598  16.656  0.00  0.00    +0.000 C 
ATOM      2  C   UNL     1       5.188   4.352  16.317  0.00  0.00    +0.000 A 
ATOM      3  N   UNL     1       5.699   4.009  15.107  0.00  0.00    +0.000 NA
ATOM      4  C   UNL     1       6.769   4.681  14.652  0.00  0.00    +0.000 A 
ATOM      5  N   UNL     1       7.367   5.673  15.325  0.00  0.00    +0.000 NA
ATOM      6  C   UNL     1       6.853   5.994  16.538  0.00  0.00    +0.000 A 
ATOM      7  C   UNL     1       7.545   7.124  17.250  0.00  0.00    +0.000 C 
ATOM      8  C   UNL     1       5.759   5.343  17.111  0.00  0.00    +0.000 A 
ENDROOT
BRANCH   4   9
ATOM      9  C   UNL     1       7.318   4.278  13.301  0.00  0.00    +0.000 C 
ATOM     10  C   UNL     1       6.259   3.567  12.457  0.00  0.00    +0.000 C 
ATOM     11  C   UNL     1       7.890   5.487  12.562  0.00  0.00    +0.000 C 
ENDBRANCH   4   9
BRANCH   8  12
ATOM     12  O   UNL     1       5.351   5.802  18.333  0.00  0.00    +0.000 OA
BRANCH  12  13
ATOM     13  C   UNL     1       4.233   6.693  18.385  0.00  0.00    +0.000 C 
BRANCH  13  14
ATOM     14  C   UNL     1       3.182   6.086  19.245  0.00  0.00    +0.000 A 
ATOM     15  N   UNL     1       2.949   4.821  19.542  0.00  0.00    +0.000 NA
ATOM     16  C   UNL     1       1.901   4.925  20.427  0.00  0.00    +0.000 A 
ATOM     17  N   UNL     1       1.519   6.181  20.696  0.00  0.00    +0.000 NA
ATOM     18  O   UNL     1       2.371   6.956  19.915  0.00  0.00    +0.000 OA
BRANCH  16  19
ATOM     19  C   UNL     1       1.184   3.734  21.045  0.00  0.00    +0.000 C 
ATOM     20  C   UNL     1       1.311   2.391  20.353  0.00  0.00    +0.000 C 
ATOM     21  C   UNL     1       1.969   2.601  21.673  0.00  0.00    +0.000 C 
ENDBRANCH  16  19
ENDBRANCH  13  14
ENDBRANCH  12  13
ENDBRANCH   8  12
TORSDOF 5
ENDMDL
MODEL 4
REMARK VINA RESULT:      -6.9      0.556      2.065
REMARK  Name = 
REMARK  9 active torsions:
REMARK  status: ('A' for Active; 'I' for Inactive)
REMARK    1  A    between atoms: C_1  and  C_2
REMARK    2  A    between atoms: C_4  and  C_5
REMARK    3  A    between atoms: C_5  and  C_6
REMARK    4  A    between atoms: C_5  and  C_7
REMARK    5  A    between atoms: C_9  and  C_10
REMARK    6  A    between atoms: C_11  and  O_12
REMARK    7  A    between atoms: O_12  and  C_13
REMARK    8  A    between atoms: C_13  and  C_14
REMARK    9  A    between atoms: C_16  and  C_17
REMARK                            x       y       z     vdW  Elec       q    Type
REMARK                         _______ _______ _______ _____ _____    ______ ____
ROOT
ATOM      1  C   UNL     1       6.348   4.395  18.875  0.00  0.00    +0.000 C 
ATOM      2  C   UNL     1       4.882   4.694  18.838  0.00  0.00    +0.000 A 
ATOM      3  N   UNL     1       4.128   3.699  19.370  0.00  0.00    +0.000 NA
ATOM      4  C   UNL     1       2.802   3.889  19.474  0.00  0.00    +0.000 A 
ATOM      5  N   UNL     1       2.177   5.006  19.080  0.00  0.00    +0.000 NA
ATOM      6  C   UNL     1       2.943   5.985  18.538  0.00  0.00    +0.000 A 
ATOM      7  C   UNL     1       2.201   7.227  18.126  0.00  0.00    +0.000 C 
ATOM      8  C   UNL     1       4.324   5.879  18.364  0.00  0.00    +0.000 A 
ENDROOT
BRANCH   4   9
ATOM      9  C   UNL     1       1.985   2.764  20.071  0.00  0.00    +0.000 C 
ATOM     10  C   UNL     1       1.638   3.040  21.534  0.00  0.00    +0.000 C 
ATOM     11  C   UNL     1       0.725   2.508  19.245  0.00  0.00    +0.000 C 
ENDBRANCH   4   9
BRANCH   8  12
ATOM     12  O   UNL     1       4.952   6.965  17.821  0.00  0.00    +0.000 OA
BRANCH  12  13
ATOM     13  C   UNL     1       4.792   7.211  16.421  0.00  0.00    +0.000 C 
BRANCH  13  14
ATOM     14  C   UNL     1       5.547   6.174  15.667  0.00  0.00    +0.000 A 
ATOM     15  N   UNL     1       5.121   5.256  14.819  0.00  0.00    +0.000 NA
ATOM     16  C   UNL     1       6.299   4.670  14.419  0.00  0.00    +0.000 A 
ATOM     17  N   UNL     1       7.403   5.207  14.957  0.00  0.00    +0.000 NA
ATOM     18  O   UNL     1       6.907   6.210  15.784  0.00  0.00    +0.000 OA
BRANCH  16  19
ATOM     19  C   UNL     1       6.383   3.483  13.471  0.00  0.00    +0.000 C 
ATOM     20  C   UNL     1       5.463   3.470  12.265  0.00  0.00    +0.000 C 
ATOM     21  C   UNL     1       6.928   3.653  12.067  0.00  0.00    +0.000 C 
ENDBRANCH  16  19
ENDBRANCH  13  14
ENDBRANCH  12  13
ENDBRANCH   8  12
TORSDOF 5
ENDMDL
MODEL 5
REMARK VINA RESULT:      -6.7      1.671      2.422
REMARK  Name = 
REMARK  9 active torsions:
REMARK  status: ('A' for Active; 'I' for Inactive)
REMARK    1  A    between atoms: C_1  and  C_2
REMARK    2  A    between atoms: C_4  and  C_5
REMARK    3  A    between atoms: C_5  and  C_6
REMARK    4  A    between atoms: C_5  and  C_7
REMARK    5  A    between atoms: C_9  and  C_10
REMARK    6  A    between atoms: C_11  and  O_12
REMARK    7  A    between atoms: O_12  and  C_13
REMARK    8  A    between atoms: C_13  and  C_14
REMARK    9  A    between atoms: C_16  and  C_17
REMARK                            x       y       z     vdW  Elec       q    Type
REMARK                         _______ _______ _______ _____ _____    ______ ____
ROOT
ATOM      1  C   UNL     1       3.644   3.089  16.445  0.00  0.00    +0.000 C 
ATOM      2  C   UNL     1       4.086   3.894  17.628  0.00  0.00    +0.000 A 
ATOM      3  N   UNL     1       3.088   4.103  18.524  0.00  0.00    +0.000 NA
ATOM      4  C   UNL     1       3.384   4.738  19.671  0.00  0.00    +0.000 A 
ATOM      5  N   UNL     1       4.609   5.179  19.983  0.00  0.00    +0.000 NA
ATOM      6  C   UNL     1       5.591   4.974  19.071  0.00  0.00    +0.000 A 
ATOM      7  C   UNL     1       6.953   5.471  19.471  0.00  0.00    +0.000 C 
ATOM      8  C   UNL     1       5.385   4.346  17.841  0.00  0.00    +0.000 A 
ENDROOT
BRANCH   4   9
ATOM      9  C   UNL     1       2.253   4.959  20.652  0.00  0.00    +0.000 C 
ATOM     10  C   UNL     1       1.676   6.370  20.532  0.00  0.00    +0.000 C 
ATOM     11  C   UNL     1       1.164   3.902  20.475  0.00  0.00    +0.000 C 
ENDBRANCH   4   9
BRANCH   8  12
ATOM     12  O   UNL     1       6.486   4.199  17.043  0.00  0.00    +0.000 OA
BRANCH  12  13
ATOM     13  C   UNL     1       6.950   5.337  16.311  0.00  0.00    +0.000 C 
BRANCH  13  14
ATOM     14  C   UNL     1       7.039   4.970  14.872  0.00  0.00    +0.000 A 
ATOM     15  N   UNL     1       6.277   4.175  14.145  0.00  0.00    +0.000 NA
ATOM     16  C   UNL     1       6.831   4.313  12.894  0.00  0.00    +0.000 A 
ATOM     17  N   UNL     1       7.860   5.170  12.830  0.00  0.00    +0.000 NA
ATOM     18  O   UNL     1       7.999   5.612  14.142  0.00  0.00    +0.000 OA
BRANCH  16  19
ATOM     19  C   UNL     1       6.366   3.548  11.664  0.00  0.00    +0.000 C 
ATOM     20  C   UNL     1       6.929   2.158  11.438  0.00  0.00    +0.000 C 
ATOM     21  C   UNL     1       5.494   2.317  11.805  0.00  0.00    +0.000 C 
ENDBRANCH  16  19
ENDBRANCH  13  14
ENDBRANCH  12  13
ENDBRANCH   8  12
TORSDOF 5
ENDMDL
MODEL 6
REMARK VINA RESULT:      -6.7      1.038      2.160
REMARK  Name = 
REMARK  9 active torsions:
REMARK  status: ('A' for Active; 'I' for Inactive)
REMARK    1  A    between atoms: C_1  and  C_2
REMARK    2  A    between atoms: C_4  and  C_5
REMARK    3  A    between atoms: C_5  and  C_6
REMARK    4  A    between atoms: C_5  and  C_7
REMARK    5  A    between atoms: C_9  and  C_10
REMARK    6  A    between atoms: C_11  and  O_12
REMARK    7  A    between atoms: O_12  and  C_13
REMARK    8  A    between atoms: C_13  and  C_14
REMARK    9  A    between atoms: C_16  and  C_17
REMARK                            x       y       z     vdW  Elec       q    Type
REMARK                         _______ _______ _______ _____ _____    ______ ____
ROOT
ATOM      1  C   UNL     1       4.895   3.244  17.360  0.00  0.00    +0.000 C 
ATOM      2  C   UNL     1       3.958   4.277  17.905  0.00  0.00    +0.000 A 
ATOM      3  N   UNL     1       3.124   3.782  18.854  0.00  0.00    +0.000 NA
ATOM      4  C   UNL     1       2.295   4.633  19.482  0.00  0.00    +0.000 A 
ATOM      5  N   UNL     1       2.242   5.946  19.225  0.00  0.00    +0.000 NA
ATOM      6  C   UNL     1       3.072   6.422  18.264  0.00  0.00    +0.000 A 
ATOM      7  C   UNL     1       2.989   7.904  18.021  0.00  0.00    +0.000 C 
ATOM      8  C   UNL     1       3.953   5.620  17.537  0.00  0.00    +0.000 A 
ENDROOT
BRANCH   4   9
ATOM      9  C   UNL     1       1.376   4.055  20.536  0.00  0.00    +0.000 C 
ATOM     10  C   UNL     1       0.538   2.904  19.977  0.00  0.00    +0.000 C 
ATOM     11  C   UNL     1       2.168   3.611  21.766  0.00  0.00    +0.000 C 
ENDBRANCH   4   9
BRANCH   8  12
ATOM     12  O   UNL     1       4.737   6.259  16.617  0.00  0.00    +0.000 OA
BRANCH  12  13
ATOM     13  C   UNL     1       6.144   5.999  16.627  0.00  0.00    +0.000 C 
BRANCH  13  14
ATOM     14  C   UNL     1       6.535   5.458  15.297  0.00  0.00    +0.000 A 
ATOM     15  N   UNL     1       5.815   4.828  14.386  0.00  0.00    +0.000 NA
ATOM     16  C   UNL     1       6.726   4.660  13.370  0.00  0.00    +0.000 A 
ATOM     17  N   UNL     1       7.937   5.182  13.611  0.00  0.00    +0.000 NA
ATOM     18  O   UNL     1       7.812   5.717  14.890  0.00  0.00    +0.000 OA
BRANCH  16  19
ATOM     19  C   UNL     1       6.433   3.918  12.075  0.00  0.00    +0.000 C 
ATOM     20  C   UNL     1       6.357   2.404  12.125  0.00  0.00    +0.000 C 
ATOM     21  C   UNL     1       5.117   3.193  11.882  0.00  0.00    +0.000 C 
ENDBRANCH  16  19
ENDBRANCH  13  14
ENDBRANCH  12  13
ENDBRANCH   8  12
TORSDOF 5
ENDMDL
MODEL 7
REMARK VINA RESULT:      -6.7      1.766      2.567
REMARK  Name = 
REMARK  9 active torsions:
REMARK  status: ('A' for Active; 'I' for Inactive)
REMARK    1  A    between atoms: C_1  and  C_2
REMARK    2  A    between atoms: C_4  and  C_5
REMARK    3  A    between atoms: C_5  and  C_6
REMARK    4  A    between atoms: C_5  and  C_7
REMARK    5  A    between atoms: C_9  and  C_10
REMARK    6  A    between atoms: C_11  and  O_12
REMARK    7  A    between atoms: O_12  and  C_13
REMARK    8  A    between atoms: C_13  and  C_14
REMARK    9  A    between atoms: C_16  and  C_17
REMARK                            x       y       z     vdW  Elec       q    Type
REMARK                         _______ _______ _______ _____ _____    ______ ____
ROOT
ATOM      1  C   UNL     1       6.925   5.674  19.459  0.00  0.00    +0.000 C 
ATOM      2  C   UNL     1       5.615   5.058  19.076  0.00  0.00    +0.000 A 
ATOM      3  N   UNL     1       4.606   5.403  19.916  0.00  0.00    +0.000 NA
ATOM      4  C   UNL     1       3.363   4.984  19.625  0.00  0.00    +0.000 A 
ATOM      5  N   UNL     1       3.059   4.242  18.554  0.00  0.00    +0.000 NA
ATOM      6  C   UNL     1       4.080   3.895  17.732  0.00  0.00    +0.000 A 
ATOM      7  C   UNL     1       3.690   3.075  16.533  0.00  0.00    +0.000 C 
ATOM      8  C   UNL     1       5.410   4.258  17.955  0.00  0.00    +0.000 A 
ENDROOT
BRANCH   4   9
ATOM      9  C   UNL     1       2.257   5.383  20.578  0.00  0.00    +0.000 C 
ATOM     10  C   UNL     1       1.843   6.842  20.376  0.00  0.00    +0.000 C 
ATOM     11  C   UNL     1       1.057   4.447  20.443  0.00  0.00    +0.000 C 
ENDBRANCH   4   9
BRANCH   8  12
ATOM     12  O   UNL     1       6.317   3.844  17.020  0.00  0.00    +0.000 OA
BRANCH  12  13
ATOM     13  C   UNL     1       7.163   4.826  16.415  0.00  0.00    +0.000 C 
BRANCH  13  14
ATOM     14  C   UNL     1       7.093   4.667  14.937  0.00  0.00    +0.000 A 
ATOM     15  N   UNL     1       6.340   3.872  14.199  0.00  0.00    +0.000 NA
ATOM     16  C   UNL     1       6.690   4.250  12.925  0.00  0.00    +0.000 A 
ATOM     17  N   UNL     1       7.584   5.246  12.862  0.00  0.00    +0.000 NA
ATOM     18  O   UNL     1       7.851   5.529  14.199  0.00  0.00    +0.000 OA
BRANCH  16  19
ATOM     19  C   UNL     1       6.155   3.593  11.661  0.00  0.00    +0.000 C 
ATOM     20  C   UNL     1       5.775   2.126  11.730  0.00  0.00    +0.000 C 
ATOM     21  C   UNL     1       4.707   3.153  11.574  0.00  0.00    +0.000 C 
ENDBRANCH  16  19
ENDBRANCH  13  14
ENDBRANCH  12  13
ENDBRANCH   8  12
TORSDOF 5
ENDMDL
MODEL 8
REMARK VINA RESULT:      -6.7      1.504      6.818
REMARK  Name = 
REMARK  9 active torsions:
REMARK  status: ('A' for Active; 'I' for Inactive)
REMARK    1  A    between atoms: C_1  and  C_2
REMARK    2  A    between atoms: C_4  and  C_5
REMARK    3  A    between atoms: C_5  and  C_6
REMARK    4  A    between atoms: C_5  and  C_7
REMARK    5  A    between atoms: C_9  and  C_10
REMARK    6  A    between atoms: C_11  and  O_12
REMARK    7  A    between atoms: O_12  and  C_13
REMARK    8  A    between atoms: C_13  and  C_14
REMARK    9  A    between atoms: C_16  and  C_17
REMARK                            x       y       z     vdW  Elec       q    Type
REMARK                         _______ _______ _______ _____ _____    ______ ____
ROOT
ATOM      1  C   UNL     1       7.611   7.079  16.900  0.00  0.00    +0.000 C 
ATOM      2  C   UNL     1       6.825   5.931  16.348  0.00  0.00    +0.000 A 
ATOM      3  N   UNL     1       7.225   5.570  15.102  0.00  0.00    +0.000 NA
ATOM      4  C   UNL     1       6.654   4.494  14.535  0.00  0.00    +0.000 A 
ATOM      5  N   UNL     1       5.709   3.754  15.127  0.00  0.00    +0.000 NA
ATOM      6  C   UNL     1       5.311   4.136  16.366  0.00  0.00    +0.000 A 
ATOM      7  C   UNL     1       4.259   3.266  16.999  0.00  0.00    +0.000 C 
ATOM      8  C   UNL     1       5.823   5.250  17.033  0.00  0.00    +0.000 A 
ENDROOT
BRANCH   4   9
ATOM      9  C   UNL     1       7.119   4.114  13.146  0.00  0.00    +0.000 C 
ATOM     10  C   UNL     1       5.999   3.450  12.344  0.00  0.00    +0.000 C 
ATOM     11  C   UNL     1       7.679   5.329  12.407  0.00  0.00    +0.000 C 
ENDBRANCH   4   9
BRANCH   8  12
ATOM     12  O   UNL     1       5.329   5.487  18.286  0.00  0.00    +0.000 OA
BRANCH  12  13
ATOM     13  C   UNL     1       4.318   6.487  18.439  0.00  0.00    +0.000 C 
BRANCH  13  14
ATOM     14  C   UNL     1       3.220   5.929  19.274  0.00  0.00    +0.000 A 
ATOM     15  N   UNL     1       2.940   4.677  19.590  0.00  0.00    +0.000 NA
ATOM     16  C   UNL     1       1.866   4.831  20.434  0.00  0.00    +0.000 A 
ATOM     17  N   UNL     1       1.511   6.102  20.664  0.00  0.00    +0.000 NA
ATOM     18  O   UNL     1       2.412   6.836  19.897  0.00  0.00    +0.000 OA
BRANCH  16  19
ATOM     19  C   UNL     1       1.093   3.674  21.051  0.00  0.00    +0.000 C 
ATOM     20  C   UNL     1       1.257   2.300  20.432  0.00  0.00    +0.000 C 
ATOM     21  C   UNL     1       1.819   2.566  21.786  0.00  0.00    +0.000 C 
ENDBRANCH  16  19
ENDBRANCH  13  14
ENDBRANCH  12  13
ENDBRANCH   8  12
TORSDOF 5
ENDMDL
MODEL 9
REMARK VINA RESULT:      -6.7      3.305      4.836
REMARK  Name = 
REMARK  9 active torsions:
REMARK  status: ('A' for Active; 'I' for Inactive)
REMARK    1  A    between atoms: C_1  and  C_2
REMARK    2  A    between atoms: C_4  and  C_5
REMARK    3  A    between atoms: C_5  and  C_6
REMARK    4  A    between atoms: C_5  and  C_7
REMARK    5  A    between atoms: C_9  and  C_10
REMARK    6  A    between atoms: C_11  and  O_12
REMARK    7  A    between atoms: O_12  and  C_13
REMARK    8  A    between atoms: C_13  and  C_14
REMARK    9  A    between atoms: C_16  and  C_17
REMARK                            x       y       z     vdW  Elec       q    Type
REMARK                         _______ _______ _______ _____ _____    ______ ____
ROOT
ATOM      1  C   UNL     1       1.562   4.074  20.906  0.00  0.00    +0.000 C 
ATOM      2  C   UNL     1       1.717   5.436  20.306  0.00  0.00    +0.000 A 
ATOM      3  N   UNL     1       1.275   6.425  21.124  0.00  0.00    +0.000 NA
ATOM      4  C   UNL     1       1.443   7.699  20.733  0.00  0.00    +0.000 A 
ATOM      5  N   UNL     1       2.021   8.055  19.579  0.00  0.00    +0.000 NA
ATOM      6  C   UNL     1       2.445   7.055  18.767  0.00  0.00    +0.000 A 
ATOM      7  C   UNL     1       3.102   7.500  17.489  0.00  0.00    +0.000 C 
ATOM      8  C   UNL     1       2.298   5.699  19.068  0.00  0.00    +0.000 A 
ENDROOT
BRANCH   4   9
ATOM      9  C   UNL     1       0.940   8.782  21.665  0.00  0.00    +0.000 C 
ATOM     10  C   UNL     1       1.062  10.167  21.029  0.00  0.00    +0.000 C 
ATOM     11  C   UNL     1      -0.497   8.501  22.101  0.00  0.00    +0.000 C 
ENDBRANCH   4   9
BRANCH   8  12
ATOM     12  O   UNL     1       2.798   4.817  18.151  0.00  0.00    +0.000 OA
BRANCH  12  13
ATOM     13  C   UNL     1       3.825   3.913  18.570  0.00  0.00    +0.000 C 
BRANCH  13  14
ATOM     14  C   UNL     1       5.111   4.658  18.641  0.00  0.00    +0.000 A 
ATOM     15  N   UNL     1       5.696   5.439  17.752  0.00  0.00    +0.000 NA
ATOM     16  C   UNL     1       6.805   5.874  18.440  0.00  0.00    +0.000 A 
ATOM     17  N   UNL     1       6.896   5.421  19.698  0.00  0.00    +0.000 NA
ATOM     18  O   UNL     1       5.769   4.616  19.837  0.00  0.00    +0.000 OA
BRANCH  16  19
ATOM     19  C   UNL     1       7.882   6.769  17.845  0.00  0.00    +0.000 C 
ATOM     20  C   UNL     1       7.493   8.180  17.449  0.00  0.00    +0.000 C 
ATOM     21  C   UNL     1       8.399   7.968  18.613  0.00  0.00    +0.000 C 
ENDBRANCH  16  19
ENDBRANCH  13  14
ENDBRANCH  12  13
ENDBRANCH   8  12
TORSDOF 5
ENDMDL
