MODEL 1
REMARK VINA RESULT:      -7.2      0.000      0.000
REMARK  Name = 
REMARK  7 active torsions:
REMARK  status: ('A' for Active; 'I' for Inactive)
REMARK    1  A    between atoms: C_1  and  C_2
REMARK    2  A    between atoms: C_2  and  C_3
REMARK    3  A    between atoms: C_3  and  C_4
REMARK    4  A    between atoms: C_4  and  C_5
REMARK    5  A    between atoms: N_8  and  C_9
REMARK    6  A    between atoms: C_9  and  C_10
REMARK    7  A    between atoms: C_9  and  C_11
REMARK                            x       y       z     vdW  Elec       q    Type
REMARK                         _______ _______ _______ _____ _____    ______ ____
ROOT
ATOM      1  C   UNL     1       2.674   3.132  19.915  0.00  0.00    +0.000 C 
ATOM      2  O   UNL     1       2.926   3.843  18.684  0.00  0.00    +0.000 OA
ATOM      3  C   UNL     1       4.254   3.662  18.419  0.00  0.00    +0.000 C 
ATOM      4  N   UNL     1       4.690   4.279  17.293  0.00  0.00    +0.000 N 
ATOM      5  N   UNL     1       4.918   2.944  19.234  0.00  0.00    +0.000 NA
ATOM      6  C   UNL     1       4.053   2.583  20.236  0.00  0.00    +0.000 C 
ATOM      7  O   UNL     1       4.334   1.901  21.206  0.00  0.00    +0.000 OA
ATOM      8  H   UNL     1       4.029   4.892  16.845  0.00  0.00    +0.000 HD
ENDROOT
BRANCH   1  10
ATOM      9  C   UNL     1       0.515   2.344  18.783  0.00  0.00    +0.000 C 
ATOM     10  C   UNL     1       1.684   1.974  19.694  0.00  0.00    +0.000 C 
ENDBRANCH   1  10
BRANCH   1  11
ATOM     11  C   UNL     1       2.175   4.099  21.007  0.00  0.00    +0.000 C 
ATOM     12  C   UNL     1       1.853   5.507  20.514  0.00  0.00    +0.000 C 
ENDBRANCH   1  11
BRANCH   4  13
ATOM     13  C   UNL     1       6.064   4.261  16.803  0.00  0.00    +0.000 C 
ATOM     14  C   UNL     1       6.069   4.382  15.270  0.00  0.00    +0.000 C 
BRANCH  13  15
ATOM     15  C   UNL     1       6.862   5.422  17.391  0.00  0.00    +0.000 A 
ATOM     16  C   UNL     1       7.588   5.294  18.591  0.00  0.00    +0.000 A 
ATOM     17  C   UNL     1       8.249   6.399  19.145  0.00  0.00    +0.000 A 
ATOM     18  C   UNL     1       8.203   7.636  18.506  0.00  0.00    +0.000 A 
ATOM     19  C   UNL     1       7.517   7.767  17.303  0.00  0.00    +0.000 A 
ATOM     20  C   UNL     1       6.874   6.666  16.741  0.00  0.00    +0.000 A 
ENDBRANCH  13  15
ENDBRANCH   4  13
TORSDOF 4
ENDMDL
MODEL 2
REMARK VINA RESULT:      -7.1      2.098      6.271
REMARK  Name = 
REMARK  7 active torsions:
REMARK  status: ('A' for Active; 'I' for Inactive)
REMARK    1  A    between atoms: C_1  and  C_2
REMARK    2  A    between atoms: C_2  and  C_3
REMARK    3  A    between atoms: C_3  and  C_4
REMARK    4  A    between atoms: C_4  and  C_5
REMARK    5  A    between atoms: N_8  and  C_9
REMARK    6  A    between atoms: C_9  and  C_10
REMARK    7  A    between atoms: C_9  and  C_11
REMARK                            x       y       z     vdW  Elec       q    Type
REMARK                         _______ _______ _______ _____ _____    ______ ____
ROOT
ATOM      1  C   UNL     1       6.691   5.776  16.847  0.00  0.00    +0.000 C 
ATOM      2  O   UNL     1       5.346   6.295  16.919  0.00  0.00    +0.000 OA
ATOM      3  C   UNL     1       4.907   6.006  18.180  0.00  0.00    +0.000 C 
ATOM      4  N   UNL     1       3.637   6.406  18.436  0.00  0.00    +0.000 N 
ATOM      5  N   UNL     1       5.722   5.415  18.960  0.00  0.00    +0.000 NA
ATOM      6  C   UNL     1       6.862   5.180  18.233  0.00  0.00    +0.000 C 
ATOM      7  O   UNL     1       7.862   4.618  18.644  0.00  0.00    +0.000 OA
ATOM      8  H   UNL     1       3.121   6.760  17.648  0.00  0.00    +0.000 HD
ENDROOT
BRANCH   1  10
ATOM      9  C   UNL     1       7.667   7.978  17.722  0.00  0.00    +0.000 C 
ATOM     10  C   UNL     1       7.713   6.909  16.632  0.00  0.00    +0.000 C 
ENDBRANCH   1  10
BRANCH   1  11
ATOM     11  C   UNL     1       6.800   4.703  15.746  0.00  0.00    +0.000 C 
ATOM     12  C   UNL     1       5.550   4.541  14.887  0.00  0.00    +0.000 C 
ENDBRANCH   1  11
BRANCH   4  13
ATOM     13  C   UNL     1       2.927   6.198  19.694  0.00  0.00    +0.000 C 
ATOM     14  C   UNL     1       1.961   7.367  19.944  0.00  0.00    +0.000 C 
BRANCH  13  15
ATOM     15  C   UNL     1       2.128   4.898  19.653  0.00  0.00    +0.000 A 
ATOM     16  C   UNL     1       1.721   4.237  20.828  0.00  0.00    +0.000 A 
ATOM     17  C   UNL     1       1.053   3.006  20.759  0.00  0.00    +0.000 A 
ATOM     18  C   UNL     1       0.775   2.429  19.522  0.00  0.00    +0.000 A 
ATOM     19  C   UNL     1       1.142   3.088  18.353  0.00  0.00    +0.000 A 
ATOM     20  C   UNL     1       1.790   4.320  18.419  0.00  0.00    +0.000 A 
ENDBRANCH  13  15
ENDBRANCH   4  13
TORSDOF 4
ENDMDL
MODEL 3
REMARK VINA RESULT:      -6.9      2.105      6.346
REMARK  Name = 
REMARK  7 active torsions:
REMARK  status: ('A' for Active; 'I' for Inactive)
REMARK    1  A    between atoms: C_1  and  C_2
REMARK    2  A    between atoms: C_2  and  C_3
REMARK    3  A    between atoms: C_3  and  C_4
REMARK    4  A    between atoms: C_4  and  C_5
REMARK    5  A    between atoms: N_8  and  C_9
REMARK    6  A    between atoms: C_9  and  C_10
REMARK    7  A    between atoms: C_9  and  C_11
REMARK                            x       y       z     vdW  Elec       q    Type
REMARK                         _______ _______ _______ _____ _____    ______ ____
ROOT
ATOM      1  C   UNL     1       6.695   5.864  16.806  0.00  0.00    +0.000 C 
ATOM      2  O   UNL     1       5.357   6.393  16.918  0.00  0.00    +0.000 OA
ATOM      3  C   UNL     1       4.927   6.042  18.167  0.00  0.00    +0.000 C 
ATOM      4  N   UNL     1       3.664   6.441  18.457  0.00  0.00    +0.000 N 
ATOM      5  N   UNL     1       5.742   5.402  18.906  0.00  0.00    +0.000 NA
ATOM      6  C   UNL     1       6.872   5.194  18.156  0.00  0.00    +0.000 C 
ATOM      7  O   UNL     1       7.870   4.601  18.526  0.00  0.00    +0.000 OA
ATOM      8  H   UNL     1       3.144   6.842  17.694  0.00  0.00    +0.000 HD
ENDROOT
BRANCH   1  10
ATOM      9  C   UNL     1       7.655   8.045  17.748  0.00  0.00    +0.000 C 
ATOM     10  C   UNL     1       7.727   6.996  16.640  0.00  0.00    +0.000 C 
ENDBRANCH   1  10
BRANCH   1  11
ATOM     11  C   UNL     1       6.782   4.850  15.648  0.00  0.00    +0.000 C 
ATOM     12  C   UNL     1       5.435   4.329  15.153  0.00  0.00    +0.000 C 
ENDBRANCH   1  11
BRANCH   4  13
ATOM     13  C   UNL     1       2.963   6.174  19.709  0.00  0.00    +0.000 C 
ATOM     14  C   UNL     1       1.952   7.297  19.988  0.00  0.00    +0.000 C 
BRANCH  13  15
ATOM     15  C   UNL     1       2.216   4.845  19.636  0.00  0.00    +0.000 A 
ATOM     16  C   UNL     1       1.841   4.269  18.407  0.00  0.00    +0.000 A 
ATOM     17  C   UNL     1       1.089   3.086  18.374  0.00  0.00    +0.000 A 
ATOM     18  C   UNL     1       0.713   2.461  19.562  0.00  0.00    +0.000 A 
ATOM     19  C   UNL     1       1.106   3.003  20.782  0.00  0.00    +0.000 A 
ATOM     20  C   UNL     1       1.868   4.169  20.816  0.00  0.00    +0.000 A 
ENDBRANCH  13  15
ENDBRANCH   4  13
TORSDOF 4
ENDMDL
MODEL 4
REMARK VINA RESULT:      -6.8      1.958      3.650
REMARK  Name = 
REMARK  7 active torsions:
REMARK  status: ('A' for Active; 'I' for Inactive)
REMARK    1  A    between atoms: C_1  and  C_2
REMARK    2  A    between atoms: C_2  and  C_3
REMARK    3  A    between atoms: C_3  and  C_4
REMARK    4  A    between atoms: C_4  and  C_5
REMARK    5  A    between atoms: N_8  and  C_9
REMARK    6  A    between atoms: C_9  and  C_10
REMARK    7  A    between atoms: C_9  and  C_11
REMARK                            x       y       z     vdW  Elec       q    Type
REMARK                         _______ _______ _______ _____ _____    ______ ____
ROOT
ATOM      1  C   UNL     1       2.920   3.504  19.210  0.00  0.00    +0.000 C 
ATOM      2  O   UNL     1       3.752   3.044  18.124  0.00  0.00    +0.000 OA
ATOM      3  C   UNL     1       4.566   4.096  17.814  0.00  0.00    +0.000 C 
ATOM      4  N   UNL     1       5.421   3.859  16.788  0.00  0.00    +0.000 N 
ATOM      5  N   UNL     1       4.442   5.155  18.509  0.00  0.00    +0.000 NA
ATOM      6  C   UNL     1       3.417   4.927  19.393  0.00  0.00    +0.000 C 
ATOM      7  O   UNL     1       2.999   5.722  20.216  0.00  0.00    +0.000 OA
ATOM      8  H   UNL     1       5.287   2.991  16.296  0.00  0.00    +0.000 HD
ENDROOT
BRANCH   1  10
ATOM      9  C   UNL     1       1.950   2.575  21.393  0.00  0.00    +0.000 C 
ATOM     10  C   UNL     1       3.178   2.687  20.491  0.00  0.00    +0.000 C 
ENDBRANCH   1  10
BRANCH   1  11
ATOM     11  C   UNL     1       1.432   3.465  18.808  0.00  0.00    +0.000 C 
ATOM     12  C   UNL     1       1.103   4.200  17.512  0.00  0.00    +0.000 C 
ENDBRANCH   1  11
BRANCH   4  13
ATOM     13  C   UNL     1       6.375   4.823  16.248  0.00  0.00    +0.000 C 
ATOM     14  C   UNL     1       7.735   4.651  16.943  0.00  0.00    +0.000 C 
BRANCH  13  15
ATOM     15  C   UNL     1       6.560   4.615  14.747  0.00  0.00    +0.000 A 
ATOM     16  C   UNL     1       5.747   3.731  14.012  0.00  0.00    +0.000 A 
ATOM     17  C   UNL     1       5.989   3.506  12.650  0.00  0.00    +0.000 A 
ATOM     18  C   UNL     1       7.035   4.164  12.005  0.00  0.00    +0.000 A 
ATOM     19  C   UNL     1       7.824   5.065  12.713  0.00  0.00    +0.000 A 
ATOM     20  C   UNL     1       7.574   5.304  14.063  0.00  0.00    +0.000 A 
ENDBRANCH  13  15
ENDBRANCH   4  13
TORSDOF 4
ENDMDL
MODEL 5
REMARK VINA RESULT:      -6.7      0.607      1.352
REMARK  Name = 
REMARK  7 active torsions:
REMARK  status: ('A' for Active; 'I' for Inactive)
REMARK    1  A    between atoms: C_1  and  C_2
REMARK    2  A    between atoms: C_2  and  C_3
REMARK    3  A    between atoms: C_3  and  C_4
REMARK    4  A    between atoms: C_4  and  C_5
REMARK    5  A    between atoms: N_8  and  C_9
REMARK    6  A    between atoms: C_9  and  C_10
REMARK    7  A    between atoms: C_9  and  C_11
REMARK                            x       y       z     vdW  Elec       q    Type
REMARK                         _______ _______ _______ _____ _____    ______ ____
ROOT
ATOM      1  C   UNL     1       2.903   3.127  19.483  0.00  0.00    +0.000 C 
ATOM      2  O   UNL     1       3.074   3.922  18.290  0.00  0.00    +0.000 OA
ATOM      3  C   UNL     1       4.413   3.893  18.018  0.00  0.00    +0.000 C 
ATOM      4  N   UNL     1       4.778   4.610  16.927  0.00  0.00    +0.000 N 
ATOM      5  N   UNL     1       5.151   3.207  18.795  0.00  0.00    +0.000 NA
ATOM      6  C   UNL     1       4.332   2.707  19.776  0.00  0.00    +0.000 C 
ATOM      7  O   UNL     1       4.687   2.009  20.710  0.00  0.00    +0.000 OA
ATOM      8  H   UNL     1       4.056   5.173  16.510  0.00  0.00    +0.000 HD
ENDROOT
BRANCH   1  10
ATOM      9  C   UNL     1       0.606   2.227  18.789  0.00  0.00    +0.000 C 
ATOM     10  C   UNL     1       2.036   1.885  19.201  0.00  0.00    +0.000 C 
ENDBRANCH   1  10
BRANCH   1  11
ATOM     11  C   UNL     1       2.311   3.979  20.623  0.00  0.00    +0.000 C 
ATOM     12  C   UNL     1       2.021   3.210  21.909  0.00  0.00    +0.000 C 
ENDBRANCH   1  11
BRANCH   4  13
ATOM     13  C   UNL     1       6.145   4.760  16.437  0.00  0.00    +0.000 C 
ATOM     14  C   UNL     1       6.124   5.117  14.942  0.00  0.00    +0.000 C 
BRANCH  13  15
ATOM     15  C   UNL     1       6.872   5.866  17.197  0.00  0.00    +0.000 A 
ATOM     16  C   UNL     1       6.897   7.195  16.733  0.00  0.00    +0.000 A 
ATOM     17  C   UNL     1       7.636   8.173  17.414  0.00  0.00    +0.000 A 
ATOM     18  C   UNL     1       8.347   7.840  18.565  0.00  0.00    +0.000 A 
ATOM     19  C   UNL     1       8.303   6.538  19.052  0.00  0.00    +0.000 A 
ATOM     20  C   UNL     1       7.555   5.568  18.387  0.00  0.00    +0.000 A 
ENDBRANCH  13  15
ENDBRANCH   4  13
TORSDOF 4
ENDMDL
MODEL 6
REMARK VINA RESULT:      -6.7      1.175      2.187
REMARK  Name = 
REMARK  7 active torsions:
REMARK  status: ('A' for Active; 'I' for Inactive)
REMARK    1  A    between atoms: C_1  and  C_2
REMARK    2  A    between atoms: C_2  and  C_3
REMARK    3  A    between atoms: C_3  and  C_4
REMARK    4  A    between atoms: C_4  and  C_5
REMARK    5  A    between atoms: N_8  and  C_9
REMARK    6  A    between atoms: C_9  and  C_10
REMARK    7  A    between atoms: C_9  and  C_11
REMARK                            x       y       z     vdW  Elec       q    Type
REMARK                         _______ _______ _______ _____ _____    ______ ____
ROOT
ATOM      1  C   UNL     1       2.398   4.027  19.602  0.00  0.00    +0.000 C 
ATOM      2  O   UNL     1       3.358   3.170  18.948  0.00  0.00    +0.000 OA
ATOM      3  C   UNL     1       4.114   3.995  18.165  0.00  0.00    +0.000 C 
ATOM      4  N   UNL     1       5.074   3.361  17.446  0.00  0.00    +0.000 N 
ATOM      5  N   UNL     1       3.847   5.240  18.201  0.00  0.00    +0.000 NA
ATOM      6  C   UNL     1       2.767   5.386  19.035  0.00  0.00    +0.000 C 
ATOM      7  O   UNL     1       2.217   6.439  19.306  0.00  0.00    +0.000 OA
ATOM      8  H   UNL     1       5.051   2.356  17.475  0.00  0.00    +0.000 HD
ENDROOT
BRANCH   1  10
ATOM      9  C   UNL     1       1.990   2.801  21.815  0.00  0.00    +0.000 C 
ATOM     10  C   UNL     1       2.601   4.021  21.129  0.00  0.00    +0.000 C 
ENDBRANCH   1  10
BRANCH   1  11
ATOM     11  C   UNL     1       0.960   3.620  19.224  0.00  0.00    +0.000 C 
ATOM     12  C   UNL     1       0.836   2.243  18.577  0.00  0.00    +0.000 C 
ENDBRANCH   1  11
BRANCH   4  13
ATOM     13  C   UNL     1       5.997   4.009  16.519  0.00  0.00    +0.000 C 
ATOM     14  C   UNL     1       5.211   4.628  15.353  0.00  0.00    +0.000 C 
BRANCH  13  15
ATOM     15  C   UNL     1       6.782   5.112  17.224  0.00  0.00    +0.000 A 
ATOM     16  C   UNL     1       7.467   4.883  18.432  0.00  0.00    +0.000 A 
ATOM     17  C   UNL     1       8.118   5.934  19.094  0.00  0.00    +0.000 A 
ATOM     18  C   UNL     1       8.100   7.219  18.555  0.00  0.00    +0.000 A 
ATOM     19  C   UNL     1       7.454   7.452  17.345  0.00  0.00    +0.000 A 
ATOM     20  C   UNL     1       6.823   6.405  16.676  0.00  0.00    +0.000 A 
ENDBRANCH  13  15
ENDBRANCH   4  13
TORSDOF 4
ENDMDL
MODEL 7
REMARK VINA RESULT:      -6.7      1.497      3.418
REMARK  Name = 
REMARK  7 active torsions:
REMARK  status: ('A' for Active; 'I' for Inactive)
REMARK    1  A    between atoms: C_1  and  C_2
REMARK    2  A    between atoms: C_2  and  C_3
REMARK    3  A    between atoms: C_3  and  C_4
REMARK    4  A    between atoms: C_4  and  C_5
REMARK    5  A    between atoms: N_8  and  C_9
REMARK    6  A    between atoms: C_9  and  C_10
REMARK    7  A    between atoms: C_9  and  C_11
REMARK                            x       y       z     vdW  Elec       q    Type
REMARK                         _______ _______ _______ _____ _____    ______ ____
ROOT
ATOM      1  C   UNL     1       2.389   3.351  19.465  0.00  0.00    +0.000 C 
ATOM      2  O   UNL     1       3.732   3.653  19.901  0.00  0.00    +0.000 OA
ATOM      3  C   UNL     1       4.198   4.595  19.029  0.00  0.00    +0.000 C 
ATOM      4  N   UNL     1       5.471   4.998  19.268  0.00  0.00    +0.000 N 
ATOM      5  N   UNL     1       3.405   4.988  18.114  0.00  0.00    +0.000 NA
ATOM      6  C   UNL     1       2.251   4.257  18.255  0.00  0.00    +0.000 C 
ATOM      7  O   UNL     1       1.264   4.347  17.547  0.00  0.00    +0.000 OA
ATOM      8  H   UNL     1       5.968   4.484  19.976  0.00  0.00    +0.000 HD
ENDROOT
BRANCH   1  10
ATOM      9  C   UNL     1       1.343   2.799  21.738  0.00  0.00    +0.000 C 
ATOM     10  C   UNL     1       1.356   3.744  20.537  0.00  0.00    +0.000 C 
ENDBRANCH   1  10
BRANCH   1  11
ATOM     11  C   UNL     1       2.265   1.862  19.082  0.00  0.00    +0.000 C 
ATOM     12  C   UNL     1       3.442   1.308  18.284  0.00  0.00    +0.000 C 
ENDBRANCH   1  11
BRANCH   4  13
ATOM     13  C   UNL     1       6.208   5.974  18.472  0.00  0.00    +0.000 C 
ATOM     14  C   UNL     1       7.663   6.049  18.960  0.00  0.00    +0.000 C 
BRANCH  13  15
ATOM     15  C   UNL     1       6.203   5.581  16.997  0.00  0.00    +0.000 A 
ATOM     16  C   UNL     1       5.458   6.295  16.039  0.00  0.00    +0.000 A 
ATOM     17  C   UNL     1       5.414   5.865  14.705  0.00  0.00    +0.000 A 
ATOM     18  C   UNL     1       6.117   4.728  14.312  0.00  0.00    +0.000 A 
ATOM     19  C   UNL     1       6.883   4.033  15.242  0.00  0.00    +0.000 A 
ATOM     20  C   UNL     1       6.943   4.469  16.564  0.00  0.00    +0.000 A 
ENDBRANCH  13  15
ENDBRANCH   4  13
TORSDOF 4
ENDMDL
MODEL 8
REMARK VINA RESULT:      -6.6      1.152      2.446
REMARK  Name = 
REMARK  7 active torsions:
REMARK  status: ('A' for Active; 'I' for Inactive)
REMARK    1  A    between atoms: C_1  and  C_2
REMARK    2  A    between atoms: C_2  and  C_3
REMARK    3  A    between atoms: C_3  and  C_4
REMARK    4  A    between atoms: C_4  and  C_5
REMARK    5  A    between atoms: N_8  and  C_9
REMARK    6  A    between atoms: C_9  and  C_10
REMARK    7  A    between atoms: C_9  and  C_11
REMARK                            x       y       z     vdW  Elec       q    Type
REMARK                         _______ _______ _______ _____ _____    ______ ____
ROOT
ATOM      1  C   UNL     1       2.390   4.062  19.677  0.00  0.00    +0.000 C 
ATOM      2  O   UNL     1       3.362   3.233  19.006  0.00  0.00    +0.000 OA
ATOM      3  C   UNL     1       4.106   4.085  18.240  0.00  0.00    +0.000 C 
ATOM      4  N   UNL     1       5.076   3.481  17.510  0.00  0.00    +0.000 N 
ATOM      5  N   UNL     1       3.821   5.325  18.300  0.00  0.00    +0.000 NA
ATOM      6  C   UNL     1       2.738   5.438  19.137  0.00  0.00    +0.000 C 
ATOM      7  O   UNL     1       2.173   6.477  19.429  0.00  0.00    +0.000 OA
ATOM      8  H   UNL     1       5.068   2.474  17.517  0.00  0.00    +0.000 HD
ENDROOT
BRANCH   1  10
ATOM      9  C   UNL     1       1.918   2.834  21.875  0.00  0.00    +0.000 C 
ATOM     10  C   UNL     1       2.591   4.029  21.203  0.00  0.00    +0.000 C 
ENDBRANCH   1  10
BRANCH   1  11
ATOM     11  C   UNL     1       0.958   3.642  19.289  0.00  0.00    +0.000 C 
ATOM     12  C   UNL     1       0.857   2.285  18.598  0.00  0.00    +0.000 C 
ENDBRANCH   1  11
BRANCH   4  13
ATOM     13  C   UNL     1       5.989   4.161  16.596  0.00  0.00    +0.000 C 
ATOM     14  C   UNL     1       5.201   4.744  15.413  0.00  0.00    +0.000 C 
BRANCH  13  15
ATOM     15  C   UNL     1       6.718   5.296  17.310  0.00  0.00    +0.000 A 
ATOM     16  C   UNL     1       6.753   6.603  16.785  0.00  0.00    +0.000 A 
ATOM     17  C   UNL     1       7.494   7.608  17.425  0.00  0.00    +0.000 A 
ATOM     18  C   UNL     1       8.196   7.324  18.594  0.00  0.00    +0.000 A 
ATOM     19  C   UNL     1       8.142   6.045  19.140  0.00  0.00    +0.000 A 
ATOM     20  C   UNL     1       7.392   5.050  18.516  0.00  0.00    +0.000 A 
ENDBRANCH  13  15
ENDBRANCH   4  13
TORSDOF 4
ENDMDL
MODEL 9
REMARK VINA RESULT:      -6.5      0.891      1.422
REMARK  Name = 
REMARK  7 active torsions:
REMARK  status: ('A' for Active; 'I' for Inactive)
REMARK    1  A    between atoms: C_1  and  C_2
REMARK    2  A    between atoms: C_2  and  C_3
REMARK    3  A    between atoms: C_3  and  C_4
REMARK    4  A    between atoms: C_4  and  C_5
REMARK    5  A    between atoms: N_8  and  C_9
REMARK    6  A    between atoms: C_9  and  C_10
REMARK    7  A    between atoms: C_9  and  C_11
REMARK                            x       y       z     vdW  Elec       q    Type
REMARK                         _______ _______ _______ _____ _____    ______ ____
ROOT
ATOM      1  C   UNL     1       2.494   3.500  18.677  0.00  0.00    +0.000 C 
ATOM      2  O   UNL     1       3.020   4.054  17.453  0.00  0.00    +0.000 OA
ATOM      3  C   UNL     1       4.379   3.958  17.559  0.00  0.00    +0.000 C 
ATOM      4  N   UNL     1       5.060   4.452  16.496  0.00  0.00    +0.000 N 
ATOM      5  N   UNL     1       4.845   3.421  18.616  0.00  0.00    +0.000 NA
ATOM      6  C   UNL     1       3.768   3.125  19.414  0.00  0.00    +0.000 C 
ATOM      7  O   UNL     1       3.823   2.611  20.517  0.00  0.00    +0.000 OA
ATOM      8  H   UNL     1       4.509   4.936  15.807  0.00  0.00    +0.000 HD
ENDROOT
BRANCH   1  10
ATOM      9  C   UNL     1       0.323   2.222  19.145  0.00  0.00    +0.000 C 
ATOM     10  C   UNL     1       1.656   2.238  18.399  0.00  0.00    +0.000 C 
ENDBRANCH   1  10
BRANCH   1  11
ATOM     11  C   UNL     1       1.679   4.559  19.446  0.00  0.00    +0.000 C 
ATOM     12  C   UNL     1       2.479   5.781  19.889  0.00  0.00    +0.000 C 
ENDBRANCH   1  11
BRANCH   4  13
ATOM     13  C   UNL     1       6.514   4.490  16.373  0.00  0.00    +0.000 C 
ATOM     14  C   UNL     1       6.905   4.685  14.899  0.00  0.00    +0.000 C 
BRANCH  13  15
ATOM     15  C   UNL     1       7.095   5.640  17.191  0.00  0.00    +0.000 A 
ATOM     16  C   UNL     1       7.099   6.965  16.715  0.00  0.00    +0.000 A 
ATOM     17  C   UNL     1       7.707   7.988  17.458  0.00  0.00    +0.000 A 
ATOM     18  C   UNL     1       8.307   7.703  18.682  0.00  0.00    +0.000 A 
ATOM     19  C   UNL     1       8.281   6.403  19.179  0.00  0.00    +0.000 A 
ATOM     20  C   UNL     1       7.662   5.389  18.451  0.00  0.00    +0.000 A 
ENDBRANCH  13  15
ENDBRANCH   4  13
TORSDOF 4
ENDMDL
