MODEL 1
REMARK VINA RESULT:      -6.4      0.000      0.000
REMARK  Name = 
REMARK  12 active torsions:
REMARK  status: ('A' for Active; 'I' for Inactive)
REMARK    1  A    between atoms: C_1  and  C_2
REMARK    2  A    between atoms: C_2  and  O_3
REMARK    3  A    between atoms: O_3  and  C_4
REMARK    4  A    between atoms: C_4  and  C_6
REMARK    5  A    between atoms: C_6  and  C_7
REMARK    6  A    between atoms: C_6  and  O_8
REMARK    7  A    between atoms: C_6  and  C_9
REMARK    8  A    between atoms: C_11  and  C_12
REMARK    9  A    between atoms: C_13  and  N_14
REMARK   10  A    between atoms: N_16  and  C_17
REMARK   11  A    between atoms: N_16  and  C_18
REMARK   12  A    between atoms: C_19  and  C_20
REMARK                            x       y       z     vdW  Elec       q    Type
REMARK                         _______ _______ _______ _____ _____    ______ ____
ROOT
ATOM      1  C   UNL     1       4.591   5.786  17.172  0.00  0.00    +0.000 A 
ATOM      2  C   UNL     1       4.045   7.065  17.025  0.00  0.00    +0.000 A 
ATOM      3  C   UNL     1       2.984   7.517  17.835  0.00  0.00    +0.000 A 
ATOM      4  C   UNL     1       2.445   8.907  17.614  0.00  0.00    +0.000 C 
ATOM      5  C   UNL     1       2.444   6.690  18.847  0.00  0.00    +0.000 A 
ATOM      6  C   UNL     1       2.979   5.396  19.004  0.00  0.00    +0.000 A 
ATOM      7  C   UNL     1       2.525   4.416  20.051  0.00  0.00    +0.000 C 
ATOM      8  C   UNL     1       4.008   4.954  18.141  0.00  0.00    +0.000 A 
ENDROOT
BRANCH   5   9
ATOM      9  N   UNL     1       1.503   7.269  19.723  0.00  0.00    +0.000 NA
ATOM     10  C   UNL     1       1.877   7.920  20.772  0.00  0.00    +0.000 C 
ATOM     11  N   UNL     1       1.032   8.544  21.661  0.00  0.00    +0.000 N 
ATOM     12  C   UNL     1      -0.393   8.252  21.680  0.00  0.00    +0.000 C 
ATOM     13  C   UNL     1       1.516   9.413  22.718  0.00  0.00    +0.000 C 
ENDBRANCH   5   9
BRANCH   1  14
ATOM     14  C   UNL     1       5.759   5.309  16.307  0.00  0.00    +0.000 C 
ATOM     15  C   UNL     1       5.591   3.846  15.879  0.00  0.00    +0.000 C 
BRANCH  14  16
ATOM     16  C   UNL     1       7.148   5.459  16.981  0.00  0.00    +0.000 C 
ATOM     17  O   UNL     1       7.649   4.571  17.670  0.00  0.00    +0.000 OA
BRANCH  16  18
ATOM     18  O   UNL     1       7.633   6.726  16.877  0.00  0.00    +0.000 OA
BRANCH  18  20
ATOM     19  C   UNL     1       8.035   8.880  17.833  0.00  0.00    +0.000 C 
ATOM     20  C   UNL     1       7.926   7.391  18.113  0.00  0.00    +0.000 C 
ENDBRANCH  18  20
ENDBRANCH  16  18
ENDBRANCH  14  16
BRANCH  14  21
ATOM     21  O   UNL     1       5.795   6.067  15.078  0.00  0.00    +0.000 OA
ATOM     22  H   UNL     1       5.498   5.460  14.371  0.00  0.00    +0.000 HD
ENDBRANCH  14  21
ENDBRANCH   1  14
TORSDOF 6
ENDMDL
MODEL 2
REMARK VINA RESULT:      -6.3      0.676      2.002
REMARK  Name = 
REMARK  12 active torsions:
REMARK  status: ('A' for Active; 'I' for Inactive)
REMARK    1  A    between atoms: C_1  and  C_2
REMARK    2  A    between atoms: C_2  and  O_3
REMARK    3  A    between atoms: O_3  and  C_4
REMARK    4  A    between atoms: C_4  and  C_6
REMARK    5  A    between atoms: C_6  and  C_7
REMARK    6  A    between atoms: C_6  and  O_8
REMARK    7  A    between atoms: C_6  and  C_9
REMARK    8  A    between atoms: C_11  and  C_12
REMARK    9  A    between atoms: C_13  and  N_14
REMARK   10  A    between atoms: N_16  and  C_17
REMARK   11  A    between atoms: N_16  and  C_18
REMARK   12  A    between atoms: C_19  and  C_20
REMARK                            x       y       z     vdW  Elec       q    Type
REMARK                         _______ _______ _______ _____ _____    ______ ____
ROOT
ATOM      1  C   UNL     1       4.476   5.977  17.426  0.00  0.00    +0.000 A 
ATOM      2  C   UNL     1       4.051   5.300  18.574  0.00  0.00    +0.000 A 
ATOM      3  C   UNL     1       3.108   5.859  19.459  0.00  0.00    +0.000 A 
ATOM      4  C   UNL     1       2.703   5.070  20.679  0.00  0.00    +0.000 C 
ATOM      5  C   UNL     1       2.540   7.127  19.203  0.00  0.00    +0.000 A 
ATOM      6  C   UNL     1       2.962   7.825  18.054  0.00  0.00    +0.000 A 
ATOM      7  C   UNL     1       2.428   9.169  17.639  0.00  0.00    +0.000 C 
ATOM      8  C   UNL     1       3.947   7.259  17.214  0.00  0.00    +0.000 A 
ENDROOT
BRANCH   5   9
ATOM      9  N   UNL     1       1.484   7.546  20.040  0.00  0.00    +0.000 NA
ATOM     10  C   UNL     1       1.437   8.747  20.507  0.00  0.00    +0.000 C 
ATOM     11  N   UNL     1       0.431   9.251  21.300  0.00  0.00    +0.000 N 
ATOM     12  C   UNL     1      -0.522   8.370  21.959  0.00  0.00    +0.000 C 
ATOM     13  C   UNL     1       0.339  10.657  21.643  0.00  0.00    +0.000 C 
ENDBRANCH   5   9
BRANCH   1  14
ATOM     14  C   UNL     1       5.481   5.355  16.455  0.00  0.00    +0.000 C 
ATOM     15  C   UNL     1       5.229   3.855  16.258  0.00  0.00    +0.000 C 
BRANCH  14  16
ATOM     16  C   UNL     1       6.963   5.544  16.872  0.00  0.00    +0.000 C 
ATOM     17  O   UNL     1       7.652   4.623  17.309  0.00  0.00    +0.000 OA
BRANCH  16  18
ATOM     18  O   UNL     1       7.330   6.855  16.877  0.00  0.00    +0.000 OA
BRANCH  18  20
ATOM     19  C   UNL     1       8.137   8.840  17.937  0.00  0.00    +0.000 C 
ATOM     20  C   UNL     1       7.845   7.360  18.116  0.00  0.00    +0.000 C 
ENDBRANCH  18  20
ENDBRANCH  16  18
ENDBRANCH  14  16
BRANCH  14  21
ATOM     21  O   UNL     1       5.325   5.947  15.147  0.00  0.00    +0.000 OA
ATOM     22  H   UNL     1       5.765   6.819  15.184  0.00  0.00    +0.000 HD
ENDBRANCH  14  21
ENDBRANCH   1  14
TORSDOF 6
ENDMDL
MODEL 3
REMARK VINA RESULT:      -6.2      3.462      5.461
REMARK  Name = 
REMARK  12 active torsions:
REMARK  status: ('A' for Active; 'I' for Inactive)
REMARK    1  A    between atoms: C_1  and  C_2
REMARK    2  A    between atoms: C_2  and  O_3
REMARK    3  A    between atoms: O_3  and  C_4
REMARK    4  A    between atoms: C_4  and  C_6
REMARK    5  A    between atoms: C_6  and  C_7
REMARK    6  A    between atoms: C_6  and  O_8
REMARK    7  A    between atoms: C_6  and  C_9
REMARK    8  A    between atoms: C_11  and  C_12
REMARK    9  A    between atoms: C_13  and  N_14
REMARK   10  A    between atoms: N_16  and  C_17
REMARK   11  A    between atoms: N_16  and  C_18
REMARK   12  A    between atoms: C_19  and  C_20
REMARK                            x       y       z     vdW  Elec       q    Type
REMARK                         _______ _______ _______ _____ _____    ______ ____
ROOT
ATOM      1  C   UNL     1       2.021   6.760  20.063  0.00  0.00    +0.000 A 
ATOM      2  C   UNL     1       1.224   7.229  21.112  0.00  0.00    +0.000 A 
ATOM      3  C   UNL     1       0.655   8.518  21.093  0.00  0.00    +0.000 A 
ATOM      4  C   UNL     1      -0.189   8.955  22.264  0.00  0.00    +0.000 C 
ATOM      5  C   UNL     1       0.857   9.381  19.992  0.00  0.00    +0.000 A 
ATOM      6  C   UNL     1       1.663   8.926  18.929  0.00  0.00    +0.000 A 
ATOM      7  C   UNL     1       1.945   9.721  17.684  0.00  0.00    +0.000 C 
ATOM      8  C   UNL     1       2.261   7.648  19.002  0.00  0.00    +0.000 A 
ENDROOT
BRANCH   5   9
ATOM      9  N   UNL     1       0.122  10.584  19.968  0.00  0.00    +0.000 NA
ATOM     10  C   UNL     1      -0.995  10.674  19.330  0.00  0.00    +0.000 C 
ATOM     11  N   UNL     1      -1.794  11.794  19.281  0.00  0.00    +0.000 N 
ATOM     12  C   UNL     1      -1.288  13.099  19.682  0.00  0.00    +0.000 C 
ATOM     13  C   UNL     1      -3.123  11.779  18.701  0.00  0.00    +0.000 C 
ENDBRANCH   5   9
BRANCH   1  14
ATOM     14  C   UNL     1       2.616   5.351  20.077  0.00  0.00    +0.000 C 
ATOM     15  C   UNL     1       4.066   5.340  19.577  0.00  0.00    +0.000 C 
BRANCH  14  16
ATOM     16  C   UNL     1       1.812   4.316  19.248  0.00  0.00    +0.000 C 
ATOM     17  O   UNL     1       0.799   3.766  19.678  0.00  0.00    +0.000 OA
BRANCH  16  18
ATOM     18  O   UNL     1       2.459   3.963  18.103  0.00  0.00    +0.000 OA
BRANCH  18  20
ATOM     19  C   UNL     1       3.416   1.787  18.353  0.00  0.00    +0.000 C 
ATOM     20  C   UNL     1       2.314   2.597  17.694  0.00  0.00    +0.000 C 
ENDBRANCH  18  20
ENDBRANCH  16  18
ENDBRANCH  14  16
BRANCH  14  21
ATOM     21  O   UNL     1       2.674   4.861  21.435  0.00  0.00    +0.000 OA
ATOM     22  H   UNL     1       3.040   3.956  21.386  0.00  0.00    +0.000 HD
ENDBRANCH  14  21
ENDBRANCH   1  14
TORSDOF 6
ENDMDL
MODEL 4
REMARK VINA RESULT:      -6.2      1.335      2.359
REMARK  Name = 
REMARK  12 active torsions:
REMARK  status: ('A' for Active; 'I' for Inactive)
REMARK    1  A    between atoms: C_1  and  C_2
REMARK    2  A    between atoms: C_2  and  O_3
REMARK    3  A    between atoms: O_3  and  C_4
REMARK    4  A    between atoms: C_4  and  C_6
REMARK    5  A    between atoms: C_6  and  C_7
REMARK    6  A    between atoms: C_6  and  O_8
REMARK    7  A    between atoms: C_6  and  C_9
REMARK    8  A    between atoms: C_11  and  C_12
REMARK    9  A    between atoms: C_13  and  N_14
REMARK   10  A    between atoms: N_16  and  C_17
REMARK   11  A    between atoms: N_16  and  C_18
REMARK   12  A    between atoms: C_19  and  C_20
REMARK                            x       y       z     vdW  Elec       q    Type
REMARK                         _______ _______ _______ _____ _____    ______ ____
ROOT
ATOM      1  C   UNL     1       4.920   5.517  18.108  0.00  0.00    +0.000 A 
ATOM      2  C   UNL     1       4.338   6.704  17.653  0.00  0.00    +0.000 A 
ATOM      3  C   UNL     1       3.167   7.228  18.236  0.00  0.00    +0.000 A 
ATOM      4  C   UNL     1       2.595   8.511  17.687  0.00  0.00    +0.000 C 
ATOM      5  C   UNL     1       2.547   6.574  19.324  0.00  0.00    +0.000 A 
ATOM      6  C   UNL     1       3.117   5.373  19.791  0.00  0.00    +0.000 A 
ATOM      7  C   UNL     1       2.584   4.581  20.954  0.00  0.00    +0.000 C 
ATOM      8  C   UNL     1       4.263   4.847  19.151  0.00  0.00    +0.000 A 
ENDROOT
BRANCH   5   9
ATOM      9  N   UNL     1       1.480   7.242  19.961  0.00  0.00    +0.000 NA
ATOM     10  C   UNL     1       1.670   7.944  21.026  0.00  0.00    +0.000 C 
ATOM     11  N   UNL     1       0.698   8.656  21.691  0.00  0.00    +0.000 N 
ATOM     12  C   UNL     1      -0.716   8.420  21.438  0.00  0.00    +0.000 C 
ATOM     13  C   UNL     1       1.005   9.571  22.774  0.00  0.00    +0.000 C 
ENDBRANCH   5   9
BRANCH   1  14
ATOM     14  C   UNL     1       6.205   4.966  17.488  0.00  0.00    +0.000 C 
ATOM     15  C   UNL     1       7.347   4.899  18.509  0.00  0.00    +0.000 C 
BRANCH  14  16
ATOM     16  C   UNL     1       6.706   5.764  16.256  0.00  0.00    +0.000 C 
ATOM     17  O   UNL     1       7.465   6.728  16.354  0.00  0.00    +0.000 OA
BRANCH  16  18
ATOM     18  O   UNL     1       6.065   5.397  15.113  0.00  0.00    +0.000 OA
BRANCH  18  20
ATOM     19  C   UNL     1       6.069   3.811  13.324  0.00  0.00    +0.000 C 
ATOM     20  C   UNL     1       6.888   4.843  14.079  0.00  0.00    +0.000 C 
ENDBRANCH  18  20
ENDBRANCH  16  18
ENDBRANCH  14  16
BRANCH  14  21
ATOM     21  O   UNL     1       5.993   3.603  17.058  0.00  0.00    +0.000 OA
ATOM     22  H   UNL     1       6.317   3.550  16.137  0.00  0.00    +0.000 HD
ENDBRANCH  14  21
ENDBRANCH   1  14
TORSDOF 6
ENDMDL
MODEL 5
REMARK VINA RESULT:      -6.1      4.100      7.327
REMARK  Name = 
REMARK  12 active torsions:
REMARK  status: ('A' for Active; 'I' for Inactive)
REMARK    1  A    between atoms: C_1  and  C_2
REMARK    2  A    between atoms: C_2  and  O_3
REMARK    3  A    between atoms: O_3  and  C_4
REMARK    4  A    between atoms: C_4  and  C_6
REMARK    5  A    between atoms: C_6  and  C_7
REMARK    6  A    between atoms: C_6  and  O_8
REMARK    7  A    between atoms: C_6  and  C_9
REMARK    8  A    between atoms: C_11  and  C_12
REMARK    9  A    between atoms: C_13  and  N_14
REMARK   10  A    between atoms: N_16  and  C_17
REMARK   11  A    between atoms: N_16  and  C_18
REMARK   12  A    between atoms: C_19  and  C_20
REMARK                            x       y       z     vdW  Elec       q    Type
REMARK                         _______ _______ _______ _____ _____    ______ ____
ROOT
ATOM      1  C   UNL     1       1.286   8.350  20.843  0.00  0.00    +0.000 A 
ATOM      2  C   UNL     1       1.455   7.010  21.207  0.00  0.00    +0.000 A 
ATOM      3  C   UNL     1       2.052   6.075  20.338  0.00  0.00    +0.000 A 
ATOM      4  C   UNL     1       2.196   4.647  20.799  0.00  0.00    +0.000 C 
ATOM      5  C   UNL     1       2.520   6.469  19.064  0.00  0.00    +0.000 A 
ATOM      6  C   UNL     1       2.351   7.814  18.679  0.00  0.00    +0.000 A 
ATOM      7  C   UNL     1       2.821   8.383  17.368  0.00  0.00    +0.000 C 
ATOM      8  C   UNL     1       1.703   8.716  19.554  0.00  0.00    +0.000 A 
ENDROOT
BRANCH   5   9
ATOM      9  N   UNL     1       3.253   5.521  18.321  0.00  0.00    +0.000 NA
ATOM     10  C   UNL     1       4.542   5.548  18.286  0.00  0.00    +0.000 C 
ATOM     11  N   UNL     1       5.338   4.646  17.617  0.00  0.00    +0.000 N 
ATOM     12  C   UNL     1       4.784   3.754  16.610  0.00  0.00    +0.000 C 
ATOM     13  C   UNL     1       6.781   4.619  17.764  0.00  0.00    +0.000 C 
ENDBRANCH   5   9
BRANCH   1  14
ATOM     14  C   UNL     1       0.660   9.367  21.800  0.00  0.00    +0.000 C 
ATOM     15  C   UNL     1      -0.652   8.850  22.402  0.00  0.00    +0.000 C 
BRANCH  14  16
ATOM     16  C   UNL     1       0.385  10.753  21.159  0.00  0.00    +0.000 C 
ATOM     17  O   UNL     1       1.129  11.718  21.323  0.00  0.00    +0.000 OA
BRANCH  16  18
ATOM     18  O   UNL     1      -0.843  10.812  20.575  0.00  0.00    +0.000 OA
BRANCH  18  20
ATOM     19  C   UNL     1      -1.434  10.345  18.306  0.00  0.00    +0.000 C 
ATOM     20  C   UNL     1      -0.891  11.390  19.265  0.00  0.00    +0.000 C 
ENDBRANCH  18  20
ENDBRANCH  16  18
ENDBRANCH  14  16
BRANCH  14  21
ATOM     21  O   UNL     1       1.541   9.582  22.925  0.00  0.00    +0.000 OA
ATOM     22  H   UNL     1       1.639  10.551  23.017  0.00  0.00    +0.000 HD
ENDBRANCH  14  21
ENDBRANCH   1  14
TORSDOF 6
ENDMDL
MODEL 6
REMARK VINA RESULT:      -6.1      1.633      3.362
REMARK  Name = 
REMARK  12 active torsions:
REMARK  status: ('A' for Active; 'I' for Inactive)
REMARK    1  A    between atoms: C_1  and  C_2
REMARK    2  A    between atoms: C_2  and  O_3
REMARK    3  A    between atoms: O_3  and  C_4
REMARK    4  A    between atoms: C_4  and  C_6
REMARK    5  A    between atoms: C_6  and  C_7
REMARK    6  A    between atoms: C_6  and  O_8
REMARK    7  A    between atoms: C_6  and  C_9
REMARK    8  A    between atoms: C_11  and  C_12
REMARK    9  A    between atoms: C_13  and  N_14
REMARK   10  A    between atoms: N_16  and  C_17
REMARK   11  A    between atoms: N_16  and  C_18
REMARK   12  A    between atoms: C_19  and  C_20
REMARK                            x       y       z     vdW  Elec       q    Type
REMARK                         _______ _______ _______ _____ _____    ______ ____
ROOT
ATOM      1  C   UNL     1       4.461   5.385  17.780  0.00  0.00    +0.000 A 
ATOM      2  C   UNL     1       3.946   4.812  18.947  0.00  0.00    +0.000 A 
ATOM      3  C   UNL     1       3.000   5.481  19.748  0.00  0.00    +0.000 A 
ATOM      4  C   UNL     1       2.495   4.800  20.995  0.00  0.00    +0.000 C 
ATOM      5  C   UNL     1       2.520   6.759  19.384  0.00  0.00    +0.000 A 
ATOM      6  C   UNL     1       3.033   7.354  18.215  0.00  0.00    +0.000 A 
ATOM      7  C   UNL     1       2.600   8.696  17.689  0.00  0.00    +0.000 C 
ATOM      8  C   UNL     1       4.020   6.679  17.461  0.00  0.00    +0.000 A 
ENDROOT
BRANCH   5   9
ATOM      9  N   UNL     1       1.455   7.292  20.141  0.00  0.00    +0.000 NA
ATOM     10  C   UNL     1       1.483   8.507  20.572  0.00  0.00    +0.000 C 
ATOM     11  N   UNL     1       0.477   9.119  21.286  0.00  0.00    +0.000 N 
ATOM     12  C   UNL     1      -0.587   8.343  21.906  0.00  0.00    +0.000 C 
ATOM     13  C   UNL     1       0.486  10.538  21.585  0.00  0.00    +0.000 C 
ENDBRANCH   5   9
BRANCH   1  14
ATOM     14  C   UNL     1       5.469   4.644  16.901  0.00  0.00    +0.000 C 
ATOM     15  C   UNL     1       6.881   4.677  17.500  0.00  0.00    +0.000 C 
BRANCH  14  16
ATOM     16  C   UNL     1       5.551   5.176  15.445  0.00  0.00    +0.000 C 
ATOM     17  O   UNL     1       5.679   6.371  15.183  0.00  0.00    +0.000 OA
BRANCH  16  18
ATOM     18  O   UNL     1       5.275   4.207  14.530  0.00  0.00    +0.000 OA
BRANCH  18  20
ATOM     19  C   UNL     1       5.681   3.336  12.341  0.00  0.00    +0.000 C 
ATOM     20  C   UNL     1       6.319   3.910  13.594  0.00  0.00    +0.000 C 
ENDBRANCH  18  20
ENDBRANCH  16  18
ENDBRANCH  14  16
BRANCH  14  21
ATOM     21  O   UNL     1       5.116   3.245  16.827  0.00  0.00    +0.000 OA
ATOM     22  H   UNL     1       4.145   3.200  16.933  0.00  0.00    +0.000 HD
ENDBRANCH  14  21
ENDBRANCH   1  14
TORSDOF 6
ENDMDL
MODEL 7
REMARK VINA RESULT:      -6.0      1.385      2.408
REMARK  Name = 
REMARK  12 active torsions:
REMARK  status: ('A' for Active; 'I' for Inactive)
REMARK    1  A    between atoms: C_1  and  C_2
REMARK    2  A    between atoms: C_2  and  O_3
REMARK    3  A    between atoms: O_3  and  C_4
REMARK    4  A    between atoms: C_4  and  C_6
REMARK    5  A    between atoms: C_6  and  C_7
REMARK    6  A    between atoms: C_6  and  O_8
REMARK    7  A    between atoms: C_6  and  C_9
REMARK    8  A    between atoms: C_11  and  C_12
REMARK    9  A    between atoms: C_13  and  N_14
REMARK   10  A    between atoms: N_16  and  C_17
REMARK   11  A    between atoms: N_16  and  C_18
REMARK   12  A    between atoms: C_19  and  C_20
REMARK                            x       y       z     vdW  Elec       q    Type
REMARK                         _______ _______ _______ _____ _____    ______ ____
ROOT
ATOM      1  C   UNL     1       4.859   5.581  18.074  0.00  0.00    +0.000 A 
ATOM      2  C   UNL     1       4.267   6.771  17.639  0.00  0.00    +0.000 A 
ATOM      3  C   UNL     1       3.104   7.286  18.246  0.00  0.00    +0.000 A 
ATOM      4  C   UNL     1       2.521   8.573  17.720  0.00  0.00    +0.000 C 
ATOM      5  C   UNL     1       2.503   6.619  19.338  0.00  0.00    +0.000 A 
ATOM      6  C   UNL     1       3.084   5.415  19.784  0.00  0.00    +0.000 A 
ATOM      7  C   UNL     1       2.571   4.610  20.947  0.00  0.00    +0.000 C 
ATOM      8  C   UNL     1       4.220   4.898  19.120  0.00  0.00    +0.000 A 
ENDROOT
BRANCH   5   9
ATOM      9  N   UNL     1       1.445   7.279  19.998  0.00  0.00    +0.000 NA
ATOM     10  C   UNL     1       1.649   7.961  21.074  0.00  0.00    +0.000 C 
ATOM     11  N   UNL     1       0.686   8.662  21.763  0.00  0.00    +0.000 N 
ATOM     12  C   UNL     1      -0.731   8.434  21.521  0.00  0.00    +0.000 C 
ATOM     13  C   UNL     1       1.007   9.557  22.858  0.00  0.00    +0.000 C 
ENDBRANCH   5   9
BRANCH   1  14
ATOM     14  C   UNL     1       6.135   5.039  17.427  0.00  0.00    +0.000 C 
ATOM     15  C   UNL     1       7.131   6.160  17.107  0.00  0.00    +0.000 C 
BRANCH  14  16
ATOM     16  C   UNL     1       5.891   4.225  16.129  0.00  0.00    +0.000 C 
ATOM     17  O   UNL     1       4.935   3.462  15.996  0.00  0.00    +0.000 OA
BRANCH  16  18
ATOM     18  O   UNL     1       6.939   4.312  15.265  0.00  0.00    +0.000 OA
BRANCH  18  20
ATOM     19  C   UNL     1       7.634   5.098  13.117  0.00  0.00    +0.000 C 
ATOM     20  C   UNL     1       6.610   4.266  13.870  0.00  0.00    +0.000 C 
ENDBRANCH  18  20
ENDBRANCH  16  18
ENDBRANCH  14  16
BRANCH  14  21
ATOM     21  O   UNL     1       6.820   4.170  18.356  0.00  0.00    +0.000 OA
ATOM     22  H   UNL     1       6.127   3.657  18.816  0.00  0.00    +0.000 HD
ENDBRANCH  14  21
ENDBRANCH   1  14
TORSDOF 6
ENDMDL
MODEL 8
REMARK VINA RESULT:      -6.0      3.131      4.814
REMARK  Name = 
REMARK  12 active torsions:
REMARK  status: ('A' for Active; 'I' for Inactive)
REMARK    1  A    between atoms: C_1  and  C_2
REMARK    2  A    between atoms: C_2  and  O_3
REMARK    3  A    between atoms: O_3  and  C_4
REMARK    4  A    between atoms: C_4  and  C_6
REMARK    5  A    between atoms: C_6  and  C_7
REMARK    6  A    between atoms: C_6  and  O_8
REMARK    7  A    between atoms: C_6  and  C_9
REMARK    8  A    between atoms: C_11  and  C_12
REMARK    9  A    between atoms: C_13  and  N_14
REMARK   10  A    between atoms: N_16  and  C_17
REMARK   11  A    between atoms: N_16  and  C_18
REMARK   12  A    between atoms: C_19  and  C_20
REMARK                            x       y       z     vdW  Elec       q    Type
REMARK                         _______ _______ _______ _____ _____    ______ ____
ROOT
ATOM      1  C   UNL     1       1.805   5.732  20.127  0.00  0.00    +0.000 A 
ATOM      2  C   UNL     1       1.213   6.550  21.095  0.00  0.00    +0.000 A 
ATOM      3  C   UNL     1       1.121   7.947  20.931  0.00  0.00    +0.000 A 
ATOM      4  C   UNL     1       0.472   8.763  22.020  0.00  0.00    +0.000 C 
ATOM      5  C   UNL     1       1.614   8.571  19.763  0.00  0.00    +0.000 A 
ATOM      6  C   UNL     1       2.220   7.762  18.781  0.00  0.00    +0.000 A 
ATOM      7  C   UNL     1       2.766   8.280  17.479  0.00  0.00    +0.000 C 
ATOM      8  C   UNL     1       2.342   6.370  18.999  0.00  0.00    +0.000 A 
ENDROOT
BRANCH   5   9
ATOM      9  N   UNL     1       1.338   9.944  19.595  0.00  0.00    +0.000 NA
ATOM     10  C   UNL     1       0.293  10.343  18.954  0.00  0.00    +0.000 C 
ATOM     11  N   UNL     1      -0.072  11.658  18.772  0.00  0.00    +0.000 N 
ATOM     12  C   UNL     1       0.869  12.742  19.012  0.00  0.00    +0.000 C 
ATOM     13  C   UNL     1      -1.350  12.041  18.201  0.00  0.00    +0.000 C 
ENDBRANCH   5   9
BRANCH   1  14
ATOM     14  C   UNL     1       1.879   4.214  20.299  0.00  0.00    +0.000 C 
ATOM     15  C   UNL     1       2.347   3.822  21.706  0.00  0.00    +0.000 C 
BRANCH  14  16
ATOM     16  C   UNL     1       2.799   3.505  19.269  0.00  0.00    +0.000 C 
ATOM     17  O   UNL     1       2.357   2.903  18.291  0.00  0.00    +0.000 OA
BRANCH  16  18
ATOM     18  O   UNL     1       4.096   3.470  19.680  0.00  0.00    +0.000 OA
BRANCH  18  20
ATOM     19  C   UNL     1       5.722   5.166  19.241  0.00  0.00    +0.000 C 
ATOM     20  C   UNL     1       5.072   3.896  18.721  0.00  0.00    +0.000 C 
ENDBRANCH  18  20
ENDBRANCH  16  18
ENDBRANCH  14  16
BRANCH  14  21
ATOM     21  O   UNL     1       0.560   3.643  20.160  0.00  0.00    +0.000 OA
ATOM     22  H   UNL     1       0.036   4.283  19.637  0.00  0.00    +0.000 HD
ENDBRANCH  14  21
ENDBRANCH   1  14
TORSDOF 6
ENDMDL
MODEL 9
REMARK VINA RESULT:      -6.0      3.458      5.401
REMARK  Name = 
REMARK  12 active torsions:
REMARK  status: ('A' for Active; 'I' for Inactive)
REMARK    1  A    between atoms: C_1  and  C_2
REMARK    2  A    between atoms: C_2  and  O_3
REMARK    3  A    between atoms: O_3  and  C_4
REMARK    4  A    between atoms: C_4  and  C_6
REMARK    5  A    between atoms: C_6  and  C_7
REMARK    6  A    between atoms: C_6  and  O_8
REMARK    7  A    between atoms: C_6  and  C_9
REMARK    8  A    between atoms: C_11  and  C_12
REMARK    9  A    between atoms: C_13  and  N_14
REMARK   10  A    between atoms: N_16  and  C_17
REMARK   11  A    between atoms: N_16  and  C_18
REMARK   12  A    between atoms: C_19  and  C_20
REMARK                            x       y       z     vdW  Elec       q    Type
REMARK                         _______ _______ _______ _____ _____    ______ ____
ROOT
ATOM      1  C   UNL     1       2.014   6.723  20.111  0.00  0.00    +0.000 A 
ATOM      2  C   UNL     1       1.234   7.223  21.158  0.00  0.00    +0.000 A 
ATOM      3  C   UNL     1       0.695   8.525  21.126  0.00  0.00    +0.000 A 
ATOM      4  C   UNL     1      -0.133   8.996  22.295  0.00  0.00    +0.000 C 
ATOM      5  C   UNL     1       0.913   9.370  20.014  0.00  0.00    +0.000 A 
ATOM      6  C   UNL     1       1.703   8.884  18.954  0.00  0.00    +0.000 A 
ATOM      7  C   UNL     1       1.999   9.657  17.698  0.00  0.00    +0.000 C 
ATOM      8  C   UNL     1       2.271   7.592  19.039  0.00  0.00    +0.000 A 
ENDROOT
BRANCH   5   9
ATOM      9  N   UNL     1       0.207  10.591  19.979  0.00  0.00    +0.000 NA
ATOM     10  C   UNL     1       0.786  11.707  20.269  0.00  0.00    +0.000 C 
ATOM     11  N   UNL     1       0.186  12.945  20.228  0.00  0.00    +0.000 N 
ATOM     12  C   UNL     1      -1.262  13.080  20.166  0.00  0.00    +0.000 C 
ATOM     13  C   UNL     1       0.933  14.179  20.385  0.00  0.00    +0.000 C 
ENDBRANCH   5   9
BRANCH   1  14
ATOM     14  C   UNL     1       2.575   5.300  20.139  0.00  0.00    +0.000 C 
ATOM     15  C   UNL     1       4.016   5.246  19.617  0.00  0.00    +0.000 C 
BRANCH  14  16
ATOM     16  C   UNL     1       1.733   4.272  19.340  0.00  0.00    +0.000 C 
ATOM     17  O   UNL     1       0.731   3.731  19.806  0.00  0.00    +0.000 OA
BRANCH  16  18
ATOM     18  O   UNL     1       2.335   3.913  18.173  0.00  0.00    +0.000 OA
BRANCH  18  20
ATOM     19  C   UNL     1       3.402   1.786  18.405  0.00  0.00    +0.000 C 
ATOM     20  C   UNL     1       2.223   2.532  17.805  0.00  0.00    +0.000 C 
ENDBRANCH  18  20
ENDBRANCH  16  18
ENDBRANCH  14  16
BRANCH  14  21
ATOM     21  O   UNL     1       2.643   4.831  21.504  0.00  0.00    +0.000 OA
ATOM     22  H   UNL     1       1.884   5.232  21.972  0.00  0.00    +0.000 HD
ENDBRANCH  14  21
ENDBRANCH   1  14
TORSDOF 6
ENDMDL
