MODEL 1
REMARK VINA RESULT:      -6.2      0.000      0.000
REMARK  Name = 
REMARK  20 active torsions:
REMARK  status: ('A' for Active; 'I' for Inactive)
REMARK    1  A    between atoms: C_1  and  C_2
REMARK    2  A    between atoms: C_2  and  C_3
REMARK    3  A    between atoms: C_3  and  C_4
REMARK    4  A    between atoms: C_4  and  C_5
REMARK    5  A    between atoms: C_5  and  C_6
REMARK    6  A    between atoms: C_6  and  O_7
REMARK    7  A    between atoms: O_7  and  C_8
REMARK    8  A    between atoms: C_8  and  C_9
REMARK    9  A    between atoms: C_9  and  C_10
REMARK   10  A    between atoms: C_9  and  O_16
REMARK   11  A    between atoms: C_10  and  O_11
REMARK   12  A    between atoms: O_11  and  P_12
REMARK   13  A    between atoms: P_12  and  O_14
REMARK   14  A    between atoms: P_12  and  O_15
REMARK   15  A    between atoms: O_16  and  C_17
REMARK   16  A    between atoms: C_17  and  C_18
REMARK   17  A    between atoms: C_18  and  C_19
REMARK   18  A    between atoms: C_19  and  C_20
REMARK   19  A    between atoms: C_20  and  C_21
REMARK   20  A    between atoms: C_21  and  C_22
REMARK                            x       y       z     vdW  Elec       q    Type
REMARK                         _______ _______ _______ _____ _____    ______ ____
ROOT
ATOM      1  C   UNL     1       5.049   4.660  17.076  0.00  0.00    +0.000 C 
ENDROOT
BRANCH   1   2
ATOM      2  O   UNL     1       3.680   4.262  16.884  0.00  0.00    +0.000 OA
BRANCH   2   3
ATOM      3  C   UNL     1       2.749   4.930  17.732  0.00  0.00    +0.000 C 
BRANCH   3   4
ATOM      4  C   UNL     1       1.393   4.241  17.644  0.00  0.00    +0.000 C 
BRANCH   4   5
ATOM      5  C   UNL     1       1.388   2.917  18.414  0.00  0.00    +0.000 C 
BRANCH   5   6
ATOM      6  C   UNL     1       2.221   3.012  19.691  0.00  0.00    +0.000 C 
BRANCH   6   7
ATOM      7  C   UNL     1       1.359   3.449  20.874  0.00  0.00    +0.000 C 
ATOM      8  C   UNL     1       1.476   2.470  22.031  0.00  0.00    +0.000 C 
ENDBRANCH   6   7
ENDBRANCH   5   6
ENDBRANCH   4   5
ENDBRANCH   3   4
ENDBRANCH   2   3
ENDBRANCH   1   2
BRANCH   1   9
ATOM      9  C   UNL     1       5.105   5.692  18.214  0.00  0.00    +0.000 C 
BRANCH   9  10
ATOM     10  O   UNL     1       5.966   5.259  19.259  0.00  0.00    +0.000 OA
BRANCH  10  11
ATOM     11  P   UNL     1       7.511   5.634  19.074  0.00  0.00    +0.000 P 
ATOM     12  O   UNL     1       7.812   6.925  18.394  0.00  0.00    +0.000 OA
BRANCH  11  13
ATOM     13  O   UNL     1       8.141   4.381  18.312  0.00  0.00    +0.000 OA
ATOM     14  H   UNL     1       7.499   3.647  18.303  0.00  0.00    +0.000 HD
ENDBRANCH  11  13
BRANCH  11  15
ATOM     15  O   UNL     1       8.116   5.466  20.538  0.00  0.00    +0.000 OA
ATOM     16  H   UNL     1       9.089   5.439  20.501  0.00  0.00    +0.000 HD
ENDBRANCH  11  15
ENDBRANCH  10  11
ENDBRANCH   9  10
ENDBRANCH   1   9
BRANCH   1  17
ATOM     17  C   UNL     1       5.610   5.305  15.801  0.00  0.00    +0.000 C 
BRANCH  17  18
ATOM     18  O   UNL     1       5.283   4.537  14.647  0.00  0.00    +0.000 OA
BRANCH  18  19
ATOM     19  C   UNL     1       6.452   3.912  14.125  0.00  0.00    +0.000 C 
BRANCH  19  20
ATOM     20  C   UNL     1       6.459   4.096  12.619  0.00  0.00    +0.000 C 
BRANCH  20  21
ATOM     21  C   UNL     1       6.537   2.747  11.917  0.00  0.00    +0.000 C 
BRANCH  21  22
ATOM     22  C   UNL     1       5.166   2.313  11.409  0.00  0.00    +0.000 C 
BRANCH  22  24
ATOM     23  C   UNL     1       3.296   3.496  10.223  0.00  0.00    +0.000 C 
ATOM     24  C   UNL     1       4.173   3.469  11.463  0.00  0.00    +0.000 C 
ENDBRANCH  22  24
ENDBRANCH  21  22
ENDBRANCH  20  21
ENDBRANCH  19  20
ENDBRANCH  18  19
ENDBRANCH  17  18
ENDBRANCH   1  17
TORSDOF 18
ENDMDL
MODEL 2
REMARK VINA RESULT:      -6.2      0.989      6.677
REMARK  Name = 
REMARK  20 active torsions:
REMARK  status: ('A' for Active; 'I' for Inactive)
REMARK    1  A    between atoms: C_1  and  C_2
REMARK    2  A    between atoms: C_2  and  C_3
REMARK    3  A    between atoms: C_3  and  C_4
REMARK    4  A    between atoms: C_4  and  C_5
REMARK    5  A    between atoms: C_5  and  C_6
REMARK    6  A    between atoms: C_6  and  O_7
REMARK    7  A    between atoms: O_7  and  C_8
REMARK    8  A    between atoms: C_8  and  C_9
REMARK    9  A    between atoms: C_9  and  C_10
REMARK   10  A    between atoms: C_9  and  O_16
REMARK   11  A    between atoms: C_10  and  O_11
REMARK   12  A    between atoms: O_11  and  P_12
REMARK   13  A    between atoms: P_12  and  O_14
REMARK   14  A    between atoms: P_12  and  O_15
REMARK   15  A    between atoms: O_16  and  C_17
REMARK   16  A    between atoms: C_17  and  C_18
REMARK   17  A    between atoms: C_18  and  C_19
REMARK   18  A    between atoms: C_19  and  C_20
REMARK   19  A    between atoms: C_20  and  C_21
REMARK   20  A    between atoms: C_21  and  C_22
REMARK                            x       y       z     vdW  Elec       q    Type
REMARK                         _______ _______ _______ _____ _____    ______ ____
ROOT
ATOM      1  C   UNL     1       5.064   5.425  16.024  0.00  0.00    +0.000 C 
ENDROOT
BRANCH   1   2
ATOM      2  O   UNL     1       6.074   5.649  15.025  0.00  0.00    +0.000 OA
BRANCH   2   3
ATOM      3  C   UNL     1       6.567   4.460  14.411  0.00  0.00    +0.000 C 
BRANCH   3   4
ATOM      4  C   UNL     1       7.349   4.822  13.154  0.00  0.00    +0.000 C 
BRANCH   4   5
ATOM      5  C   UNL     1       6.931   3.951  11.966  0.00  0.00    +0.000 C 
BRANCH   5   6
ATOM      6  C   UNL     1       5.656   3.166  12.272  0.00  0.00    +0.000 C 
BRANCH   6   7
ATOM      7  C   UNL     1       4.437   3.835  11.641  0.00  0.00    +0.000 C 
ATOM      8  C   UNL     1       3.618   2.839  10.836  0.00  0.00    +0.000 C 
ENDBRANCH   6   7
ENDBRANCH   5   6
ENDBRANCH   4   5
ENDBRANCH   3   4
ENDBRANCH   2   3
ENDBRANCH   1   2
BRANCH   1   9
ATOM      9  C   UNL     1       5.346   6.346  17.222  0.00  0.00    +0.000 C 
BRANCH   9  10
ATOM     10  O   UNL     1       6.743   6.535  17.408  0.00  0.00    +0.000 OA
BRANCH  10  11
ATOM     11  P   UNL     1       7.412   5.630  18.546  0.00  0.00    +0.000 P 
ATOM     12  O   UNL     1       8.021   4.343  18.108  0.00  0.00    +0.000 OA
BRANCH  11  13
ATOM     13  O   UNL     1       6.256   5.422  19.627  0.00  0.00    +0.000 OA
ATOM     14  H   UNL     1       6.616   5.562  20.523  0.00  0.00    +0.000 HD
ENDBRANCH  11  13
BRANCH  11  15
ATOM     15  O   UNL     1       8.389   6.637  19.300  0.00  0.00    +0.000 OA
ATOM     16  H   UNL     1       9.277   6.246  19.385  0.00  0.00    +0.000 HD
ENDBRANCH  11  15
ENDBRANCH  10  11
ENDBRANCH   9  10
ENDBRANCH   1   9
BRANCH   1  17
ATOM     17  C   UNL     1       5.092   3.969  16.508  0.00  0.00    +0.000 C 
BRANCH  17  18
ATOM     18  O   UNL     1       4.245   3.783  17.637  0.00  0.00    +0.000 OA
BRANCH  18  19
ATOM     19  C   UNL     1       2.938   3.402  17.215  0.00  0.00    +0.000 C 
BRANCH  19  20
ATOM     20  C   UNL     1       1.927   4.204  18.012  0.00  0.00    +0.000 C 
BRANCH  20  21
ATOM     21  C   UNL     1       1.071   3.280  18.869  0.00  0.00    +0.000 C 
BRANCH  21  22
ATOM     22  C   UNL     1       0.859   3.864  20.261  0.00  0.00    +0.000 C 
BRANCH  22  24
ATOM     23  C   UNL     1       2.713   2.713  21.503  0.00  0.00    +0.000 C 
ATOM     24  C   UNL     1       1.208   2.843  21.340  0.00  0.00    +0.000 C 
ENDBRANCH  22  24
ENDBRANCH  21  22
ENDBRANCH  20  21
ENDBRANCH  19  20
ENDBRANCH  18  19
ENDBRANCH  17  18
ENDBRANCH   1  17
TORSDOF 18
ENDMDL
MODEL 3
REMARK VINA RESULT:      -6.1      1.171      6.629
REMARK  Name = 
REMARK  20 active torsions:
REMARK  status: ('A' for Active; 'I' for Inactive)
REMARK    1  A    between atoms: C_1  and  C_2
REMARK    2  A    between atoms: C_2  and  C_3
REMARK    3  A    between atoms: C_3  and  C_4
REMARK    4  A    between atoms: C_4  and  C_5
REMARK    5  A    between atoms: C_5  and  C_6
REMARK    6  A    between atoms: C_6  and  O_7
REMARK    7  A    between atoms: O_7  and  C_8
REMARK    8  A    between atoms: C_8  and  C_9
REMARK    9  A    between atoms: C_9  and  C_10
REMARK   10  A    between atoms: C_9  and  O_16
REMARK   11  A    between atoms: C_10  and  O_11
REMARK   12  A    between atoms: O_11  and  P_12
REMARK   13  A    between atoms: P_12  and  O_14
REMARK   14  A    between atoms: P_12  and  O_15
REMARK   15  A    between atoms: O_16  and  C_17
REMARK   16  A    between atoms: C_17  and  C_18
REMARK   17  A    between atoms: C_18  and  C_19
REMARK   18  A    between atoms: C_19  and  C_20
REMARK   19  A    between atoms: C_20  and  C_21
REMARK   20  A    between atoms: C_21  and  C_22
REMARK                            x       y       z     vdW  Elec       q    Type
REMARK                         _______ _______ _______ _____ _____    ______ ____
ROOT
ATOM      1  C   UNL     1       4.960   5.467  17.497  0.00  0.00    +0.000 C 
ENDROOT
BRANCH   1   2
ATOM      2  O   UNL     1       4.818   4.569  16.382  0.00  0.00    +0.000 OA
BRANCH   2   3
ATOM      3  C   UNL     1       5.642   4.887  15.263  0.00  0.00    +0.000 C 
BRANCH   3   4
ATOM      4  C   UNL     1       5.813   3.652  14.388  0.00  0.00    +0.000 C 
BRANCH   4   5
ATOM      5  C   UNL     1       6.431   4.009  13.033  0.00  0.00    +0.000 C 
BRANCH   5   6
ATOM      6  C   UNL     1       5.796   3.202  11.901  0.00  0.00    +0.000 C 
BRANCH   6   7
ATOM      7  C   UNL     1       4.277   3.369  11.896  0.00  0.00    +0.000 C 
ATOM      8  C   UNL     1       3.730   3.379  10.478  0.00  0.00    +0.000 C 
ENDBRANCH   6   7
ENDBRANCH   5   6
ENDBRANCH   4   5
ENDBRANCH   3   4
ENDBRANCH   2   3
ENDBRANCH   1   2
BRANCH   1   9
ATOM      9  C   UNL     1       5.424   4.661  18.720  0.00  0.00    +0.000 C 
BRANCH   9  10
ATOM     10  O   UNL     1       6.165   5.474  19.621  0.00  0.00    +0.000 OA
BRANCH  10  11
ATOM     11  P   UNL     1       7.715   5.658  19.262  0.00  0.00    +0.000 P 
ATOM     12  O   UNL     1       8.116   6.965  18.671  0.00  0.00    +0.000 OA
BRANCH  11  13
ATOM     13  O   UNL     1       8.056   4.425  18.308  0.00  0.00    +0.000 OA
ATOM     14  H   UNL     1       7.887   3.588  18.780  0.00  0.00    +0.000 HD
ENDBRANCH  11  13
BRANCH  11  15
ATOM     15  O   UNL     1       8.462   5.249  20.608  0.00  0.00    +0.000 OA
ATOM     16  H   UNL     1       7.817   5.118  21.326  0.00  0.00    +0.000 HD
ENDBRANCH  11  15
ENDBRANCH  10  11
ENDBRANCH   9  10
ENDBRANCH   1   9
BRANCH   1  17
ATOM     17  C   UNL     1       3.618   6.135  17.830  0.00  0.00    +0.000 C 
BRANCH  17  18
ATOM     18  O   UNL     1       2.952   5.456  18.889  0.00  0.00    +0.000 OA
BRANCH  18  19
ATOM     19  C   UNL     1       2.135   6.367  19.620  0.00  0.00    +0.000 C 
BRANCH  19  20
ATOM     20  C   UNL     1       1.602   5.651  20.846  0.00  0.00    +0.000 C 
BRANCH  20  21
ATOM     21  C   UNL     1       2.418   4.397  21.129  0.00  0.00    +0.000 C 
BRANCH  21  22
ATOM     22  C   UNL     1       1.534   3.154  21.123  0.00  0.00    +0.000 C 
BRANCH  22  24
ATOM     23  C   UNL     1       1.040   2.402  18.779  0.00  0.00    +0.000 C 
ATOM     24  C   UNL     1       0.537   3.200  19.969  0.00  0.00    +0.000 C 
ENDBRANCH  22  24
ENDBRANCH  21  22
ENDBRANCH  20  21
ENDBRANCH  19  20
ENDBRANCH  18  19
ENDBRANCH  17  18
ENDBRANCH   1  17
TORSDOF 18
ENDMDL
MODEL 4
REMARK VINA RESULT:      -6.1      1.679      2.678
REMARK  Name = 
REMARK  20 active torsions:
REMARK  status: ('A' for Active; 'I' for Inactive)
REMARK    1  A    between atoms: C_1  and  C_2
REMARK    2  A    between atoms: C_2  and  C_3
REMARK    3  A    between atoms: C_3  and  C_4
REMARK    4  A    between atoms: C_4  and  C_5
REMARK    5  A    between atoms: C_5  and  C_6
REMARK    6  A    between atoms: C_6  and  O_7
REMARK    7  A    between atoms: O_7  and  C_8
REMARK    8  A    between atoms: C_8  and  C_9
REMARK    9  A    between atoms: C_9  and  C_10
REMARK   10  A    between atoms: C_9  and  O_16
REMARK   11  A    between atoms: C_10  and  O_11
REMARK   12  A    between atoms: O_11  and  P_12
REMARK   13  A    between atoms: P_12  and  O_14
REMARK   14  A    between atoms: P_12  and  O_15
REMARK   15  A    between atoms: O_16  and  C_17
REMARK   16  A    between atoms: C_17  and  C_18
REMARK   17  A    between atoms: C_18  and  C_19
REMARK   18  A    between atoms: C_19  and  C_20
REMARK   19  A    between atoms: C_20  and  C_21
REMARK   20  A    between atoms: C_21  and  C_22
REMARK                            x       y       z     vdW  Elec       q    Type
REMARK                         _______ _______ _______ _____ _____    ______ ____
ROOT
ATOM      1  C   UNL     1       3.878   5.355  18.966  0.00  0.00    +0.000 C 
ENDROOT
BRANCH   1   2
ATOM      2  O   UNL     1       2.966   6.385  19.385  0.00  0.00    +0.000 OA
BRANCH   2   3
ATOM      3  C   UNL     1       1.917   5.930  20.237  0.00  0.00    +0.000 C 
BRANCH   3   4
ATOM      4  C   UNL     1       2.327   4.618  20.895  0.00  0.00    +0.000 C 
BRANCH   4   5
ATOM      5  C   UNL     1       1.203   3.580  20.817  0.00  0.00    +0.000 C 
BRANCH   5   6
ATOM      6  C   UNL     1       0.986   3.100  19.383  0.00  0.00    +0.000 C 
BRANCH   6   7
ATOM      7  C   UNL     1       1.866   1.891  19.072  0.00  0.00    +0.000 C 
ATOM      8  C   UNL     1       2.525   2.027  17.709  0.00  0.00    +0.000 C 
ENDBRANCH   6   7
ENDBRANCH   5   6
ENDBRANCH   4   5
ENDBRANCH   3   4
ENDBRANCH   2   3
ENDBRANCH   1   2
BRANCH   1   9
ATOM      9  C   UNL     1       5.291   5.726  19.445  0.00  0.00    +0.000 C 
BRANCH   9  10
ATOM     10  O   UNL     1       6.235   4.728  19.082  0.00  0.00    +0.000 OA
BRANCH  10  11
ATOM     11  P   UNL     1       7.680   5.273  18.659  0.00  0.00    +0.000 P 
ATOM     12  O   UNL     1       7.724   6.588  17.962  0.00  0.00    +0.000 OA
BRANCH  11  13
ATOM     13  O   UNL     1       8.314   4.097  17.786  0.00  0.00    +0.000 OA
ATOM     14  H   UNL     1       8.071   3.235  18.172  0.00  0.00    +0.000 HD
ENDBRANCH  11  13
BRANCH  11  15
ATOM     15  O   UNL     1       8.526   5.175  20.006  0.00  0.00    +0.000 OA
ATOM     16  H   UNL     1       7.958   5.357  20.776  0.00  0.00    +0.000 HD
ENDBRANCH  11  15
ENDBRANCH  10  11
ENDBRANCH   9  10
ENDBRANCH   1   9
BRANCH   1  17
ATOM     17  C   UNL     1       3.895   5.236  17.435  0.00  0.00    +0.000 C 
BRANCH  17  18
ATOM     18  O   UNL     1       4.516   6.368  16.835  0.00  0.00    +0.000 OA
BRANCH  18  19
ATOM     19  C   UNL     1       5.180   5.985  15.634  0.00  0.00    +0.000 C 
BRANCH  19  20
ATOM     20  C   UNL     1       5.292   4.473  15.612  0.00  0.00    +0.000 C 
BRANCH  20  21
ATOM     21  C   UNL     1       6.407   4.034  14.672  0.00  0.00    +0.000 C 
BRANCH  21  22
ATOM     22  C   UNL     1       5.860   3.704  13.288  0.00  0.00    +0.000 C 
BRANCH  22  24
ATOM     23  C   UNL     1       7.715   5.215  12.524  0.00  0.00    +0.000 C 
ATOM     24  C   UNL     1       6.909   3.966  12.210  0.00  0.00    +0.000 C 
ENDBRANCH  22  24
ENDBRANCH  21  22
ENDBRANCH  20  21
ENDBRANCH  19  20
ENDBRANCH  18  19
ENDBRANCH  17  18
ENDBRANCH   1  17
TORSDOF 18
ENDMDL
MODEL 5
REMARK VINA RESULT:      -6.0      3.135      5.654
REMARK  Name = 
REMARK  20 active torsions:
REMARK  status: ('A' for Active; 'I' for Inactive)
REMARK    1  A    between atoms: C_1  and  C_2
REMARK    2  A    between atoms: C_2  and  C_3
REMARK    3  A    between atoms: C_3  and  C_4
REMARK    4  A    between atoms: C_4  and  C_5
REMARK    5  A    between atoms: C_5  and  C_6
REMARK    6  A    between atoms: C_6  and  O_7
REMARK    7  A    between atoms: O_7  and  C_8
REMARK    8  A    between atoms: C_8  and  C_9
REMARK    9  A    between atoms: C_9  and  C_10
REMARK   10  A    between atoms: C_9  and  O_16
REMARK   11  A    between atoms: C_10  and  O_11
REMARK   12  A    between atoms: O_11  and  P_12
REMARK   13  A    between atoms: P_12  and  O_14
REMARK   14  A    between atoms: P_12  and  O_15
REMARK   15  A    between atoms: O_16  and  C_17
REMARK   16  A    between atoms: C_17  and  C_18
REMARK   17  A    between atoms: C_18  and  C_19
REMARK   18  A    between atoms: C_19  and  C_20
REMARK   19  A    between atoms: C_20  and  C_21
REMARK   20  A    between atoms: C_21  and  C_22
REMARK                            x       y       z     vdW  Elec       q    Type
REMARK                         _______ _______ _______ _____ _____    ______ ____
ROOT
ATOM      1  C   UNL     1       3.854   4.340  17.796  0.00  0.00    +0.000 C 
ENDROOT
BRANCH   1   2
ATOM      2  O   UNL     1       3.989   2.952  18.147  0.00  0.00    +0.000 OA
BRANCH   2   3
ATOM      3  C   UNL     1       2.811   2.176  17.940  0.00  0.00    +0.000 C 
BRANCH   3   4
ATOM      4  C   UNL     1       1.583   3.065  18.083  0.00  0.00    +0.000 C 
BRANCH   4   5
ATOM      5  C   UNL     1       0.885   2.842  19.428  0.00  0.00    +0.000 C 
BRANCH   5   6
ATOM      6  C   UNL     1       0.969   4.086  20.312  0.00  0.00    +0.000 C 
BRANCH   6   7
ATOM      7  C   UNL     1       2.106   3.962  21.325  0.00  0.00    +0.000 C 
ATOM      8  C   UNL     1       2.357   2.508  21.693  0.00  0.00    +0.000 C 
ENDBRANCH   6   7
ENDBRANCH   5   6
ENDBRANCH   4   5
ENDBRANCH   3   4
ENDBRANCH   2   3
ENDBRANCH   1   2
BRANCH   1   9
ATOM      9  C   UNL     1       4.503   4.565  16.422  0.00  0.00    +0.000 C 
BRANCH   9  10
ATOM     10  O   UNL     1       5.707   5.312  16.537  0.00  0.00    +0.000 OA
BRANCH  10  11
ATOM     11  P   UNL     1       6.959   4.725  15.729  0.00  0.00    +0.000 P 
ATOM     12  O   UNL     1       7.622   5.642  14.761  0.00  0.00    +0.000 OA
BRANCH  11  13
ATOM     13  O   UNL     1       6.403   3.400  15.033  0.00  0.00    +0.000 OA
ATOM     14  H   UNL     1       6.269   2.708  15.707  0.00  0.00    +0.000 HD
ENDBRANCH  11  13
BRANCH  11  15
ATOM     15  O   UNL     1       7.895   4.129  16.871  0.00  0.00    +0.000 OA
ATOM     16  H   UNL     1       7.442   4.164  17.732  0.00  0.00    +0.000 HD
ENDBRANCH  11  15
ENDBRANCH  10  11
ENDBRANCH   9  10
ENDBRANCH   1   9
BRANCH   1  17
ATOM     17  C   UNL     1       4.563   5.232  18.825  0.00  0.00    +0.000 C 
BRANCH  17  18
ATOM     18  O   UNL     1       3.703   6.266  19.291  0.00  0.00    +0.000 OA
BRANCH  18  19
ATOM     19  C   UNL     1       2.712   6.561  18.311  0.00  0.00    +0.000 C 
BRANCH  19  20
ATOM     20  C   UNL     1       2.915   7.988  17.840  0.00  0.00    +0.000 C 
BRANCH  20  21
ATOM     21  C   UNL     1       1.595   8.747  17.854  0.00  0.00    +0.000 C 
BRANCH  21  22
ATOM     22  C   UNL     1       1.817  10.228  18.141  0.00  0.00    +0.000 C 
BRANCH  22  24
ATOM     23  C   UNL     1       0.066   9.939  19.918  0.00  0.00    +0.000 C 
ATOM     24  C   UNL     1       0.593  10.842  18.816  0.00  0.00    +0.000 C 
ENDBRANCH  22  24
ENDBRANCH  21  22
ENDBRANCH  20  21
ENDBRANCH  19  20
ENDBRANCH  18  19
ENDBRANCH  17  18
ENDBRANCH   1  17
TORSDOF 18
ENDMDL
MODEL 6
REMARK VINA RESULT:      -5.9      3.778      6.051
REMARK  Name = 
REMARK  20 active torsions:
REMARK  status: ('A' for Active; 'I' for Inactive)
REMARK    1  A    between atoms: C_1  and  C_2
REMARK    2  A    between atoms: C_2  and  C_3
REMARK    3  A    between atoms: C_3  and  C_4
REMARK    4  A    between atoms: C_4  and  C_5
REMARK    5  A    between atoms: C_5  and  C_6
REMARK    6  A    between atoms: C_6  and  O_7
REMARK    7  A    between atoms: O_7  and  C_8
REMARK    8  A    between atoms: C_8  and  C_9
REMARK    9  A    between atoms: C_9  and  C_10
REMARK   10  A    between atoms: C_9  and  O_16
REMARK   11  A    between atoms: C_10  and  O_11
REMARK   12  A    between atoms: O_11  and  P_12
REMARK   13  A    between atoms: P_12  and  O_14
REMARK   14  A    between atoms: P_12  and  O_15
REMARK   15  A    between atoms: O_16  and  C_17
REMARK   16  A    between atoms: C_17  and  C_18
REMARK   17  A    between atoms: C_18  and  C_19
REMARK   18  A    between atoms: C_19  and  C_20
REMARK   19  A    between atoms: C_20  and  C_21
REMARK   20  A    between atoms: C_21  and  C_22
REMARK                            x       y       z     vdW  Elec       q    Type
REMARK                         _______ _______ _______ _____ _____    ______ ____
ROOT
ATOM      1  C   UNL     1       6.729   5.911  17.101  0.00  0.00    +0.000 C 
ENDROOT
BRANCH   1   2
ATOM      2  O   UNL     1       7.615   7.035  16.963  0.00  0.00    +0.000 OA
BRANCH   2   3
ATOM      3  C   UNL     1       7.971   7.659  18.195  0.00  0.00    +0.000 C 
BRANCH   3   4
ATOM      4  C   UNL     1       8.204   9.147  17.966  0.00  0.00    +0.000 C 
BRANCH   4   5
ATOM      5  C   UNL     1       9.183   9.724  18.992  0.00  0.00    +0.000 C 
BRANCH   5   6
ATOM      6  C   UNL     1       9.667  11.113  18.580  0.00  0.00    +0.000 C 
BRANCH   6   7
ATOM      7  C   UNL     1      10.957  11.482  19.311  0.00  0.00    +0.000 C 
ATOM      8  C   UNL     1      10.671  12.352  20.524  0.00  0.00    +0.000 C 
ENDBRANCH   6   7
ENDBRANCH   5   6
ENDBRANCH   4   5
ENDBRANCH   3   4
ENDBRANCH   2   3
ENDBRANCH   1   2
BRANCH   1   9
ATOM      9  C   UNL     1       6.438   5.697  18.595  0.00  0.00    +0.000 C 
BRANCH   9  10
ATOM     10  O   UNL     1       5.042   5.742  18.859  0.00  0.00    +0.000 OA
BRANCH  10  11
ATOM     11  P   UNL     1       4.330   4.318  19.033  0.00  0.00    +0.000 P 
ATOM     12  O   UNL     1       3.259   4.226  20.064  0.00  0.00    +0.000 OA
BRANCH  11  13
ATOM     13  O   UNL     1       5.529   3.300  19.304  0.00  0.00    +0.000 OA
ATOM     14  H   UNL     1       5.842   3.400  20.223  0.00  0.00    +0.000 HD
ENDBRANCH  11  13
BRANCH  11  15
ATOM     15  O   UNL     1       3.899   3.931  17.549  0.00  0.00    +0.000 OA
ATOM     16  H   UNL     1       3.021   4.302  17.345  0.00  0.00    +0.000 HD
ENDBRANCH  11  15
ENDBRANCH  10  11
ENDBRANCH   9  10
ENDBRANCH   1   9
BRANCH   1  17
ATOM     17  C   UNL     1       7.376   4.637  16.540  0.00  0.00    +0.000 C 
BRANCH  17  18
ATOM     18  O   UNL     1       7.330   4.620  15.117  0.00  0.00    +0.000 OA
BRANCH  18  19
ATOM     19  C   UNL     1       6.044   5.030  14.661  0.00  0.00    +0.000 C 
BRANCH  19  20
ATOM     20  C   UNL     1       5.405   3.868  13.926  0.00  0.00    +0.000 C 
BRANCH  20  21
ATOM     21  C   UNL     1       6.263   3.451  12.739  0.00  0.00    +0.000 C 
BRANCH  21  22
ATOM     22  C   UNL     1       5.414   2.815  11.644  0.00  0.00    +0.000 C 
BRANCH  22  24
ATOM     23  C   UNL     1       3.143   3.029  10.594  0.00  0.00    +0.000 C 
ATOM     24  C   UNL     1       4.335   3.780  11.161  0.00  0.00    +0.000 C 
ENDBRANCH  22  24
ENDBRANCH  21  22
ENDBRANCH  20  21
ENDBRANCH  19  20
ENDBRANCH  18  19
ENDBRANCH  17  18
ENDBRANCH   1  17
TORSDOF 18
ENDMDL
MODEL 7
REMARK VINA RESULT:      -5.9      1.318      6.784
REMARK  Name = 
REMARK  20 active torsions:
REMARK  status: ('A' for Active; 'I' for Inactive)
REMARK    1  A    between atoms: C_1  and  C_2
REMARK    2  A    between atoms: C_2  and  C_3
REMARK    3  A    between atoms: C_3  and  C_4
REMARK    4  A    between atoms: C_4  and  C_5
REMARK    5  A    between atoms: C_5  and  C_6
REMARK    6  A    between atoms: C_6  and  O_7
REMARK    7  A    between atoms: O_7  and  C_8
REMARK    8  A    between atoms: C_8  and  C_9
REMARK    9  A    between atoms: C_9  and  C_10
REMARK   10  A    between atoms: C_9  and  O_16
REMARK   11  A    between atoms: C_10  and  O_11
REMARK   12  A    between atoms: O_11  and  P_12
REMARK   13  A    between atoms: P_12  and  O_14
REMARK   14  A    between atoms: P_12  and  O_15
REMARK   15  A    between atoms: O_16  and  C_17
REMARK   16  A    between atoms: C_17  and  C_18
REMARK   17  A    between atoms: C_18  and  C_19
REMARK   18  A    between atoms: C_19  and  C_20
REMARK   19  A    between atoms: C_20  and  C_21
REMARK   20  A    between atoms: C_21  and  C_22
REMARK                            x       y       z     vdW  Elec       q    Type
REMARK                         _______ _______ _______ _____ _____    ______ ____
ROOT
ATOM      1  C   UNL     1       4.490   4.361  17.229  0.00  0.00    +0.000 C 
ENDROOT
BRANCH   1   2
ATOM      2  O   UNL     1       5.390   3.750  16.288  0.00  0.00    +0.000 OA
BRANCH   2   3
ATOM      3  C   UNL     1       5.800   4.606  15.224  0.00  0.00    +0.000 C 
BRANCH   3   4
ATOM      4  C   UNL     1       5.734   3.847  13.905  0.00  0.00    +0.000 C 
BRANCH   4   5
ATOM      5  C   UNL     1       6.844   4.291  12.949  0.00  0.00    +0.000 C 
BRANCH   5   6
ATOM      6  C   UNL     1       7.012   3.305  11.793  0.00  0.00    +0.000 C 
BRANCH   6   7
ATOM      7  C   UNL     1       5.802   2.379  11.684  0.00  0.00    +0.000 C 
ATOM      8  C   UNL     1       6.192   1.033  11.096  0.00  0.00    +0.000 C 
ENDBRANCH   6   7
ENDBRANCH   5   6
ENDBRANCH   4   5
ENDBRANCH   3   4
ENDBRANCH   2   3
ENDBRANCH   1   2
BRANCH   1   9
ATOM      9  C   UNL     1       5.139   4.330  18.621  0.00  0.00    +0.000 C 
BRANCH   9  10
ATOM     10  O   UNL     1       5.801   5.555  18.908  0.00  0.00    +0.000 OA
BRANCH  10  11
ATOM     11  P   UNL     1       7.386   5.447  19.106  0.00  0.00    +0.000 P 
ATOM     12  O   UNL     1       7.874   5.221  20.495  0.00  0.00    +0.000 OA
BRANCH  11  13
ATOM     13  O   UNL     1       7.964   6.791  18.466  0.00  0.00    +0.000 OA
ATOM     14  H   UNL     1       8.026   6.691  17.498  0.00  0.00    +0.000 HD
ENDBRANCH  11  13
BRANCH  11  15
ATOM     15  O   UNL     1       7.824   4.356  18.032  0.00  0.00    +0.000 OA
ATOM     16  H   UNL     1       8.413   3.697  18.441  0.00  0.00    +0.000 HD
ENDBRANCH  11  15
ENDBRANCH  10  11
ENDBRANCH   9  10
ENDBRANCH   1   9
BRANCH   1  17
ATOM     17  C   UNL     1       3.163   3.592  17.288  0.00  0.00    +0.000 C 
BRANCH  17  18
ATOM     18  O   UNL     1       3.383   2.193  17.436  0.00  0.00    +0.000 OA
BRANCH  18  19
ATOM     19  C   UNL     1       3.141   1.798  18.784  0.00  0.00    +0.000 C 
BRANCH  19  20
ATOM     20  C   UNL     1       1.663   1.974  19.075  0.00  0.00    +0.000 C 
BRANCH  20  21
ATOM     21  C   UNL     1       1.462   2.652  20.423  0.00  0.00    +0.000 C 
BRANCH  21  22
ATOM     22  C   UNL     1       1.039   4.107  20.247  0.00  0.00    +0.000 C 
BRANCH  22  24
ATOM     23  C   UNL     1       1.732   6.470  20.736  0.00  0.00    +0.000 C 
ATOM     24  C   UNL     1       2.213   5.050  20.495  0.00  0.00    +0.000 C 
ENDBRANCH  22  24
ENDBRANCH  21  22
ENDBRANCH  20  21
ENDBRANCH  19  20
ENDBRANCH  18  19
ENDBRANCH  17  18
ENDBRANCH   1  17
TORSDOF 18
ENDMDL
MODEL 8
REMARK VINA RESULT:      -5.9      1.036      6.720
REMARK  Name = 
REMARK  20 active torsions:
REMARK  status: ('A' for Active; 'I' for Inactive)
REMARK    1  A    between atoms: C_1  and  C_2
REMARK    2  A    between atoms: C_2  and  C_3
REMARK    3  A    between atoms: C_3  and  C_4
REMARK    4  A    between atoms: C_4  and  C_5
REMARK    5  A    between atoms: C_5  and  C_6
REMARK    6  A    between atoms: C_6  and  O_7
REMARK    7  A    between atoms: O_7  and  C_8
REMARK    8  A    between atoms: C_8  and  C_9
REMARK    9  A    between atoms: C_9  and  C_10
REMARK   10  A    between atoms: C_9  and  O_16
REMARK   11  A    between atoms: C_10  and  O_11
REMARK   12  A    between atoms: O_11  and  P_12
REMARK   13  A    between atoms: P_12  and  O_14
REMARK   14  A    between atoms: P_12  and  O_15
REMARK   15  A    between atoms: O_16  and  C_17
REMARK   16  A    between atoms: C_17  and  C_18
REMARK   17  A    between atoms: C_18  and  C_19
REMARK   18  A    between atoms: C_19  and  C_20
REMARK   19  A    between atoms: C_20  and  C_21
REMARK   20  A    between atoms: C_21  and  C_22
REMARK                            x       y       z     vdW  Elec       q    Type
REMARK                         _______ _______ _______ _____ _____    ______ ____
ROOT
ATOM      1  C   UNL     1       6.169   4.740  15.896  0.00  0.00    +0.000 C 
ENDROOT
BRANCH   1   2
ATOM      2  O   UNL     1       6.708   4.201  14.676  0.00  0.00    +0.000 OA
BRANCH   2   3
ATOM      3  C   UNL     1       5.782   4.159  13.592  0.00  0.00    +0.000 C 
BRANCH   3   4
ATOM      4  C   UNL     1       6.438   3.498  12.386  0.00  0.00    +0.000 C 
BRANCH   4   5
ATOM      5  C   UNL     1       5.476   2.535  11.685  0.00  0.00    +0.000 C 
BRANCH   5   6
ATOM      6  C   UNL     1       4.073   3.131  11.574  0.00  0.00    +0.000 C 
BRANCH   6   7
ATOM      7  C   UNL     1       3.948   4.006  10.329  0.00  0.00    +0.000 C 
ATOM      8  C   UNL     1       2.697   3.660   9.537  0.00  0.00    +0.000 C 
ENDBRANCH   6   7
ENDBRANCH   5   6
ENDBRANCH   4   5
ENDBRANCH   3   4
ENDBRANCH   2   3
ENDBRANCH   1   2
BRANCH   1   9
ATOM      9  C   UNL     1       7.011   4.224  17.074  0.00  0.00    +0.000 C 
BRANCH   9  10
ATOM     10  O   UNL     1       7.994   5.176  17.458  0.00  0.00    +0.000 OA
BRANCH  10  11
ATOM     11  P   UNL     1       7.799   5.814  18.913  0.00  0.00    +0.000 P 
ATOM     12  O   UNL     1       8.425   5.090  20.054  0.00  0.00    +0.000 OA
BRANCH  11  13
ATOM     13  O   UNL     1       6.218   5.963  19.078  0.00  0.00    +0.000 OA
ATOM     14  H   UNL     1       5.977   5.869  20.019  0.00  0.00    +0.000 HD
ENDBRANCH  11  13
BRANCH  11  15
ATOM     15  O   UNL     1       8.253   7.329  18.722  0.00  0.00    +0.000 OA
ATOM     16  H   UNL     1       8.895   7.579  19.410  0.00  0.00    +0.000 HD
ENDBRANCH  11  15
ENDBRANCH  10  11
ENDBRANCH   9  10
ENDBRANCH   1   9
BRANCH   1  17
ATOM     17  C   UNL     1       4.716   4.286  16.094  0.00  0.00    +0.000 C 
BRANCH  17  18
ATOM     18  O   UNL     1       4.194   4.752  17.334  0.00  0.00    +0.000 OA
BRANCH  18  19
ATOM     19  C   UNL     1       3.685   3.659  18.095  0.00  0.00    +0.000 C 
BRANCH  19  20
ATOM     20  C   UNL     1       2.416   3.164  17.428  0.00  0.00    +0.000 C 
BRANCH  20  21
ATOM     21  C   UNL     1       1.188   3.710  18.145  0.00  0.00    +0.000 C 
BRANCH  21  22
ATOM     22  C   UNL     1       0.805   2.826  19.327  0.00  0.00    +0.000 C 
BRANCH  22  24
ATOM     23  C   UNL     1       1.725   2.754  21.662  0.00  0.00    +0.000 C 
ATOM     24  C   UNL     1       0.959   3.581  20.644  0.00  0.00    +0.000 C 
ENDBRANCH  22  24
ENDBRANCH  21  22
ENDBRANCH  20  21
ENDBRANCH  19  20
ENDBRANCH  18  19
ENDBRANCH  17  18
ENDBRANCH   1  17
TORSDOF 18
ENDMDL
MODEL 9
REMARK VINA RESULT:      -5.9      1.149      6.640
REMARK  Name = 
REMARK  20 active torsions:
REMARK  status: ('A' for Active; 'I' for Inactive)
REMARK    1  A    between atoms: C_1  and  C_2
REMARK    2  A    between atoms: C_2  and  C_3
REMARK    3  A    between atoms: C_3  and  C_4
REMARK    4  A    between atoms: C_4  and  C_5
REMARK    5  A    between atoms: C_5  and  C_6
REMARK    6  A    between atoms: C_6  and  O_7
REMARK    7  A    between atoms: O_7  and  C_8
REMARK    8  A    between atoms: C_8  and  C_9
REMARK    9  A    between atoms: C_9  and  C_10
REMARK   10  A    between atoms: C_9  and  O_16
REMARK   11  A    between atoms: C_10  and  O_11
REMARK   12  A    between atoms: O_11  and  P_12
REMARK   13  A    between atoms: P_12  and  O_14
REMARK   14  A    between atoms: P_12  and  O_15
REMARK   15  A    between atoms: O_16  and  C_17
REMARK   16  A    between atoms: C_17  and  C_18
REMARK   17  A    between atoms: C_18  and  C_19
REMARK   18  A    between atoms: C_19  and  C_20
REMARK   19  A    between atoms: C_20  and  C_21
REMARK   20  A    between atoms: C_21  and  C_22
REMARK                            x       y       z     vdW  Elec       q    Type
REMARK                         _______ _______ _______ _____ _____    ______ ____
ROOT
ATOM      1  C   UNL     1       4.976   4.137  17.053  0.00  0.00    +0.000 C 
ENDROOT
BRANCH   1   2
ATOM      2  O   UNL     1       5.803   3.532  16.044  0.00  0.00    +0.000 OA
BRANCH   2   3
ATOM      3  C   UNL     1       6.211   4.422  15.007  0.00  0.00    +0.000 C 
BRANCH   3   4
ATOM      4  C   UNL     1       5.423   4.124  13.738  0.00  0.00    +0.000 C 
BRANCH   4   5
ATOM      5  C   UNL     1       6.279   3.381  12.710  0.00  0.00    +0.000 C 
BRANCH   5   6
ATOM      6  C   UNL     1       5.425   2.827  11.570  0.00  0.00    +0.000 C 
BRANCH   6   7
ATOM      7  C   UNL     1       3.997   3.361  11.647  0.00  0.00    +0.000 C 
ATOM      8  C   UNL     1       3.433   3.625  10.260  0.00  0.00    +0.000 C 
ENDBRANCH   6   7
ENDBRANCH   5   6
ENDBRANCH   4   5
ENDBRANCH   3   4
ENDBRANCH   2   3
ENDBRANCH   1   2
BRANCH   1   9
ATOM      9  C   UNL     1       5.563   5.511  17.410  0.00  0.00    +0.000 C 
BRANCH   9  10
ATOM     10  O   UNL     1       6.034   5.537  18.751  0.00  0.00    +0.000 OA
BRANCH  10  11
ATOM     11  P   UNL     1       7.611   5.756  18.921  0.00  0.00    +0.000 P 
ATOM     12  O   UNL     1       8.160   7.062  18.460  0.00  0.00    +0.000 OA
BRANCH  11  13
ATOM     13  O   UNL     1       8.273   4.514  18.167  0.00  0.00    +0.000 OA
ATOM     14  H   UNL     1       7.686   4.217  17.447  0.00  0.00    +0.000 HD
ENDBRANCH  11  13
BRANCH  11  15
ATOM     15  O   UNL     1       7.877   5.393  20.449  0.00  0.00    +0.000 OA
ATOM     16  H   UNL     1       8.423   4.589  20.515  0.00  0.00    +0.000 HD
ENDBRANCH  11  15
ENDBRANCH  10  11
ENDBRANCH   9  10
ENDBRANCH   1   9
BRANCH   1  17
ATOM     17  C   UNL     1       4.946   3.271  18.320  0.00  0.00    +0.000 C 
BRANCH  17  18
ATOM     18  O   UNL     1       3.611   3.044  18.760  0.00  0.00    +0.000 OA
BRANCH  18  19
ATOM     19  C   UNL     1       2.907   2.253  17.805  0.00  0.00    +0.000 C 
BRANCH  19  20
ATOM     20  C   UNL     1       1.427   2.323  18.126  0.00  0.00    +0.000 C 
BRANCH  20  21
ATOM     21  C   UNL     1       1.213   2.488  19.625  0.00  0.00    +0.000 C 
BRANCH  21  22
ATOM     22  C   UNL     1       0.933   3.943  19.982  0.00  0.00    +0.000 C 
BRANCH  22  24
ATOM     23  C   UNL     1       2.247   3.202  21.989  0.00  0.00    +0.000 C 
ATOM     24  C   UNL     1       1.792   4.391  21.161  0.00  0.00    +0.000 C 
ENDBRANCH  22  24
ENDBRANCH  21  22
ENDBRANCH  20  21
ENDBRANCH  19  20
ENDBRANCH  18  19
ENDBRANCH  17  18
ENDBRANCH   1  17
TORSDOF 18
ENDMDL
