MODEL 1
REMARK VINA RESULT:      -7.1      0.000      0.000
REMARK  Name = 
REMARK  7 active torsions:
REMARK  status: ('A' for Active; 'I' for Inactive)
REMARK    1  A    between atoms: N_1  and  S_2
REMARK    2  A    between atoms: S_2  and  C_5
REMARK    3  A    between atoms: C_8  and  C_9
REMARK    4  A    between atoms: C_9  and  C_10
REMARK    5  A    between atoms: C_10  and  N_11
REMARK    6  A    between atoms: C_12  and  C_14
REMARK    7  A    between atoms: C_14  and  N_15
REMARK                            x       y       z     vdW  Elec       q    Type
REMARK                         _______ _______ _______ _____ _____    ______ ____
ROOT
ATOM      1  C   UNL     1       6.050   5.867  16.222  0.00  0.00    +0.000 C 
ENDROOT
BRANCH   1   5
ATOM      2  C   UNL     1       3.140   3.930  18.771  0.00  0.00    +0.000 A 
ATOM      3  C   UNL     1       3.625   5.194  19.103  0.00  0.00    +0.000 A 
ATOM      4  C   UNL     1       4.551   5.821  18.261  0.00  0.00    +0.000 A 
ATOM      5  C   UNL     1       5.006   5.187  17.091  0.00  0.00    +0.000 A 
ATOM      6  C   UNL     1       4.493   3.920  16.772  0.00  0.00    +0.000 A 
ATOM      7  C   UNL     1       3.560   3.293  17.601  0.00  0.00    +0.000 A 
BRANCH   2   8
ATOM      8  S   UNL     1       1.990   3.112  19.839  0.00  0.00    +0.000 S 
ATOM      9  O   UNL     1       0.815   3.947  19.980  0.00  0.00    +0.000 OA
ATOM     10  O   UNL     1       2.699   2.579  20.980  0.00  0.00    +0.000 OA
BRANCH   8  11
ATOM     11  N   UNL     1       1.528   1.765  18.944  0.00  0.00    +0.000 NA
ATOM     12  H   UNL     1       1.619   0.936  19.527  0.00  0.00    +0.000 HD
ATOM     13  H   UNL     1       2.076   1.700  18.080  0.00  0.00    +0.000 HD
ENDBRANCH   8  11
ENDBRANCH   2   8
ENDBRANCH   1   5
BRANCH   1  14
ATOM     14  C   UNL     1       7.242   6.389  17.037  0.00  0.00    +0.000 C 
BRANCH  14  15
ATOM     15  N   UNL     1       7.370   7.841  17.047  0.00  0.00    +0.000 N 
ATOM     16  C   UNL     1       8.130   8.438  18.026  0.00  0.00    +0.000 C 
ATOM     17  O   UNL     1       8.703   7.792  18.908  0.00  0.00    +0.000 OA
ATOM     18  H   UNL     1       6.921   8.421  16.365  0.00  0.00    +0.000 HD
BRANCH  16  19
ATOM     19  C   UNL     1       8.247   9.967  17.967  0.00  0.00    +0.000 C 
BRANCH  19  20
ATOM     20  N   UNL     1       9.450  10.428  18.693  0.00  0.00    +0.000 NA
ATOM     21  C   UNL     1      10.288  11.279  17.824  0.00  0.00    +0.000 C 
ATOM     22  C   UNL     1      11.577  11.673  18.541  0.00  0.00    +0.000 C 
ATOM     23  C   UNL     1      11.290  12.372  19.865  0.00  0.00    +0.000 C 
ATOM     24  C   UNL     1      10.330  11.543  20.709  0.00  0.00    +0.000 C 
ATOM     25  C   UNL     1       9.077  11.167  19.914  0.00  0.00    +0.000 C 
ENDBRANCH  19  20
ENDBRANCH  16  19
ENDBRANCH  14  15
ENDBRANCH   1  14
TORSDOF 7
ENDMDL
MODEL 2
REMARK VINA RESULT:      -6.8      5.432      7.973
REMARK  Name = 
REMARK  7 active torsions:
REMARK  status: ('A' for Active; 'I' for Inactive)
REMARK    1  A    between atoms: N_1  and  S_2
REMARK    2  A    between atoms: S_2  and  C_5
REMARK    3  A    between atoms: C_8  and  C_9
REMARK    4  A    between atoms: C_9  and  C_10
REMARK    5  A    between atoms: C_10  and  N_11
REMARK    6  A    between atoms: C_12  and  C_14
REMARK    7  A    between atoms: C_14  and  N_15
REMARK                            x       y       z     vdW  Elec       q    Type
REMARK                         _______ _______ _______ _____ _____    ______ ____
ROOT
ATOM      1  C   UNL     1       1.797   5.019  19.805  0.00  0.00    +0.000 C 
ENDROOT
BRANCH   1   5
ATOM      2  C   UNL     1       5.476   4.937  17.530  0.00  0.00    +0.000 A 
ATOM      3  C   UNL     1       4.338   5.537  16.992  0.00  0.00    +0.000 A 
ATOM      4  C   UNL     1       3.158   5.577  17.745  0.00  0.00    +0.000 A 
ATOM      5  C   UNL     1       3.103   5.009  19.031  0.00  0.00    +0.000 A 
ATOM      6  C   UNL     1       4.266   4.422  19.554  0.00  0.00    +0.000 A 
ATOM      7  C   UNL     1       5.450   4.389  18.815  0.00  0.00    +0.000 A 
BRANCH   2   8
ATOM      8  S   UNL     1       6.968   4.854  16.581  0.00  0.00    +0.000 S 
ATOM      9  O   UNL     1       7.453   6.201  16.364  0.00  0.00    +0.000 OA
ATOM     10  O   UNL     1       6.789   3.915  15.497  0.00  0.00    +0.000 OA
BRANCH   8  11
ATOM     11  N   UNL     1       8.049   4.108  17.631  0.00  0.00    +0.000 NA
ATOM     12  H   UNL     1       7.744   4.271  18.587  0.00  0.00    +0.000 HD
ATOM     13  H   UNL     1       9.004   4.438  17.460  0.00  0.00    +0.000 HD
ENDBRANCH   8  11
ENDBRANCH   2   8
ENDBRANCH   1   5
BRANCH   1  14
ATOM     14  C   UNL     1       1.760   6.118  20.878  0.00  0.00    +0.000 C 
BRANCH  14  15
ATOM     15  N   UNL     1       1.783   7.475  20.345  0.00  0.00    +0.000 N 
ATOM     16  C   UNL     1       0.858   8.387  20.799  0.00  0.00    +0.000 C 
ATOM     17  O   UNL     1      -0.002   8.099  21.636  0.00  0.00    +0.000 OA
ATOM     18  H   UNL     1       2.450   7.767  19.657  0.00  0.00    +0.000 HD
BRANCH  16  19
ATOM     19  C   UNL     1       0.952   9.805  20.221  0.00  0.00    +0.000 C 
BRANCH  19  20
ATOM     20  N   UNL     1      -0.344  10.219  19.641  0.00  0.00    +0.000 NA
ATOM     21  C   UNL     1      -0.666  11.608  20.027  0.00  0.00    +0.000 C 
ATOM     22  C   UNL     1      -2.048  12.002  19.511  0.00  0.00    +0.000 C 
ATOM     23  C   UNL     1      -2.153  11.824  18.000  0.00  0.00    +0.000 C 
ATOM     24  C   UNL     1      -1.706  10.424  17.595  0.00  0.00    +0.000 C 
ATOM     25  C   UNL     1      -0.326  10.096  18.171  0.00  0.00    +0.000 C 
ENDBRANCH  19  20
ENDBRANCH  16  19
ENDBRANCH  14  15
ENDBRANCH   1  14
TORSDOF 7
ENDMDL
MODEL 3
REMARK VINA RESULT:      -6.8      5.193      7.937
REMARK  Name = 
REMARK  7 active torsions:
REMARK  status: ('A' for Active; 'I' for Inactive)
REMARK    1  A    between atoms: N_1  and  S_2
REMARK    2  A    between atoms: S_2  and  C_5
REMARK    3  A    between atoms: C_8  and  C_9
REMARK    4  A    between atoms: C_9  and  C_10
REMARK    5  A    between atoms: C_10  and  N_11
REMARK    6  A    between atoms: C_12  and  C_14
REMARK    7  A    between atoms: C_14  and  N_15
REMARK                            x       y       z     vdW  Elec       q    Type
REMARK                         _______ _______ _______ _____ _____    ______ ____
ROOT
ATOM      1  C   UNL     1       3.685   6.976  17.049  0.00  0.00    +0.000 C 
ENDROOT
BRANCH   1   5
ATOM      2  C   UNL     1       1.261   8.545  20.270  0.00  0.00    +0.000 A 
ATOM      3  C   UNL     1       1.917   7.324  20.423  0.00  0.00    +0.000 A 
ATOM      4  C   UNL     1       2.716   6.835  19.383  0.00  0.00    +0.000 A 
ATOM      5  C   UNL     1       2.855   7.553  18.181  0.00  0.00    +0.000 A 
ATOM      6  C   UNL     1       2.194   8.785  18.057  0.00  0.00    +0.000 A 
ATOM      7  C   UNL     1       1.404   9.286  19.094  0.00  0.00    +0.000 A 
BRANCH   2   8
ATOM      8  S   UNL     1       0.225   9.164  21.564  0.00  0.00    +0.000 S 
ATOM      9  O   UNL     1       1.067   9.718  22.605  0.00  0.00    +0.000 OA
ATOM     10  O   UNL     1      -0.813   8.197  21.846  0.00  0.00    +0.000 OA
BRANCH   8  11
ATOM     11  N   UNL     1      -0.568  10.456  20.836  0.00  0.00    +0.000 NA
ATOM     12  H   UNL     1      -0.084  11.317  21.078  0.00  0.00    +0.000 HD
ATOM     13  H   UNL     1      -1.558  10.470  21.106  0.00  0.00    +0.000 HD
ENDBRANCH   8  11
ENDBRANCH   2   8
ENDBRANCH   1   5
BRANCH   1  14
ATOM     14  C   UNL     1       4.822   6.075  17.555  0.00  0.00    +0.000 C 
BRANCH  14  15
ATOM     15  N   UNL     1       4.448   4.675  17.717  0.00  0.00    +0.000 N 
ATOM     16  C   UNL     1       5.018   3.945  18.735  0.00  0.00    +0.000 C 
ATOM     17  O   UNL     1       5.845   4.427  19.514  0.00  0.00    +0.000 OA
ATOM     18  H   UNL     1       3.790   4.224  17.111  0.00  0.00    +0.000 HD
BRANCH  16  19
ATOM     19  C   UNL     1       4.564   2.486  18.871  0.00  0.00    +0.000 C 
BRANCH  19  20
ATOM     20  N   UNL     1       3.196   2.413  19.429  0.00  0.00    +0.000 NA
ATOM     21  C   UNL     1       3.067   3.300  20.603  0.00  0.00    +0.000 C 
ATOM     22  C   UNL     1       1.687   3.151  21.238  0.00  0.00    +0.000 C 
ATOM     23  C   UNL     1       0.575   3.422  20.232  0.00  0.00    +0.000 C 
ATOM     24  C   UNL     1       0.780   2.588  18.972  0.00  0.00    +0.000 C 
ATOM     25  C   UNL     1       2.192   2.773  18.411  0.00  0.00    +0.000 C 
ENDBRANCH  19  20
ENDBRANCH  16  19
ENDBRANCH  14  15
ENDBRANCH   1  14
TORSDOF 7
ENDMDL
MODEL 4
REMARK VINA RESULT:      -6.8      5.036      7.096
REMARK  Name = 
REMARK  7 active torsions:
REMARK  status: ('A' for Active; 'I' for Inactive)
REMARK    1  A    between atoms: N_1  and  S_2
REMARK    2  A    between atoms: S_2  and  C_5
REMARK    3  A    between atoms: C_8  and  C_9
REMARK    4  A    between atoms: C_9  and  C_10
REMARK    5  A    between atoms: C_10  and  N_11
REMARK    6  A    between atoms: C_12  and  C_14
REMARK    7  A    between atoms: C_14  and  N_15
REMARK                            x       y       z     vdW  Elec       q    Type
REMARK                         _______ _______ _______ _____ _____    ______ ____
ROOT
ATOM      1  C   UNL     1       2.135   1.938  18.863  0.00  0.00    +0.000 C 
ENDROOT
BRANCH   1   5
ATOM      2  C   UNL     1       5.417   4.378  17.451  0.00  0.00    +0.000 A 
ATOM      3  C   UNL     1       4.336   4.111  16.611  0.00  0.00    +0.000 A 
ATOM      4  C   UNL     1       3.269   3.338  17.084  0.00  0.00    +0.000 A 
ATOM      5  C   UNL     1       3.280   2.817  18.391  0.00  0.00    +0.000 A 
ATOM      6  C   UNL     1       4.374   3.110  19.220  0.00  0.00    +0.000 A 
ATOM      7  C   UNL     1       5.437   3.891  18.760  0.00  0.00    +0.000 A 
BRANCH   2   8
ATOM      8  S   UNL     1       6.786   5.331  16.859  0.00  0.00    +0.000 S 
ATOM      9  O   UNL     1       7.026   6.419  17.784  0.00  0.00    +0.000 OA
ATOM     10  O   UNL     1       6.635   5.547  15.437  0.00  0.00    +0.000 OA
BRANCH   8  11
ATOM     11  N   UNL     1       8.082   4.270  17.003  0.00  0.00    +0.000 NA
ATOM     12  H   UNL     1       8.937   4.809  17.116  0.00  0.00    +0.000 HD
ATOM     13  H   UNL     1       8.120   3.634  16.199  0.00  0.00    +0.000 HD
ENDBRANCH   8  11
ENDBRANCH   2   8
ENDBRANCH   1   5
BRANCH   1  14
ATOM     14  C   UNL     1       0.876   2.748  19.203  0.00  0.00    +0.000 C 
BRANCH  14  15
ATOM     15  N   UNL     1       1.134   4.145  19.534  0.00  0.00    +0.000 N 
ATOM     16  C   UNL     1       1.566   4.462  20.802  0.00  0.00    +0.000 C 
ATOM     17  O   UNL     1       1.735   3.610  21.678  0.00  0.00    +0.000 OA
ATOM     18  H   UNL     1       1.005   4.883  18.871  0.00  0.00    +0.000 HD
BRANCH  16  19
ATOM     19  C   UNL     1       1.846   5.945  21.080  0.00  0.00    +0.000 C 
BRANCH  19  20
ATOM     20  N   UNL     1       1.815   6.727  19.825  0.00  0.00    +0.000 NA
ATOM     21  C   UNL     1       1.508   8.144  20.104  0.00  0.00    +0.000 C 
ATOM     22  C   UNL     1       1.379   8.932  18.802  0.00  0.00    +0.000 C 
ATOM     23  C   UNL     1       2.635   8.810  17.948  0.00  0.00    +0.000 C 
ATOM     24  C   UNL     1       3.015   7.346  17.762  0.00  0.00    +0.000 C 
ATOM     25  C   UNL     1       3.099   6.621  19.107  0.00  0.00    +0.000 C 
ENDBRANCH  19  20
ENDBRANCH  16  19
ENDBRANCH  14  15
ENDBRANCH   1  14
TORSDOF 7
ENDMDL
MODEL 5
REMARK VINA RESULT:      -6.7      4.940      7.109
REMARK  Name = 
REMARK  7 active torsions:
REMARK  status: ('A' for Active; 'I' for Inactive)
REMARK    1  A    between atoms: N_1  and  S_2
REMARK    2  A    between atoms: S_2  and  C_5
REMARK    3  A    between atoms: C_8  and  C_9
REMARK    4  A    between atoms: C_9  and  C_10
REMARK    5  A    between atoms: C_10  and  N_11
REMARK    6  A    between atoms: C_12  and  C_14
REMARK    7  A    between atoms: C_14  and  N_15
REMARK                            x       y       z     vdW  Elec       q    Type
REMARK                         _______ _______ _______ _____ _____    ______ ____
ROOT
ATOM      1  C   UNL     1       2.406   1.973  18.939  0.00  0.00    +0.000 C 
ENDROOT
BRANCH   1   5
ATOM      2  C   UNL     1       5.564   4.501  17.406  0.00  0.00    +0.000 A 
ATOM      3  C   UNL     1       4.505   4.132  16.578  0.00  0.00    +0.000 A 
ATOM      4  C   UNL     1       3.477   3.331  17.090  0.00  0.00    +0.000 A 
ATOM      5  C   UNL     1       3.506   2.884  18.424  0.00  0.00    +0.000 A 
ATOM      6  C   UNL     1       4.578   3.280  19.239  0.00  0.00    +0.000 A 
ATOM      7  C   UNL     1       5.601   4.089  18.740  0.00  0.00    +0.000 A 
BRANCH   2   8
ATOM      8  S   UNL     1       6.885   5.491  16.767  0.00  0.00    +0.000 S 
ATOM      9  O   UNL     1       7.532   4.764  15.695  0.00  0.00    +0.000 OA
ATOM     10  O   UNL     1       7.627   6.060  17.869  0.00  0.00    +0.000 OA
BRANCH   8  11
ATOM     11  N   UNL     1       6.084   6.791  16.063  0.00  0.00    +0.000 NA
ATOM     12  H   UNL     1       5.776   6.522  15.132  0.00  0.00    +0.000 HD
ATOM     13  H   UNL     1       6.683   7.623  16.055  0.00  0.00    +0.000 HD
ENDBRANCH   8  11
ENDBRANCH   2   8
ENDBRANCH   1   5
BRANCH   1  14
ATOM     14  C   UNL     1       1.080   2.718  19.153  0.00  0.00    +0.000 C 
BRANCH  14  15
ATOM     15  N   UNL     1       1.234   4.125  19.503  0.00  0.00    +0.000 N 
ATOM     16  C   UNL     1       1.640   4.457  20.775  0.00  0.00    +0.000 C 
ATOM     17  O   UNL     1       1.869   3.609  21.641  0.00  0.00    +0.000 OA
ATOM     18  H   UNL     1       1.053   4.861  18.848  0.00  0.00    +0.000 HD
BRANCH  16  19
ATOM     19  C   UNL     1       1.809   5.953  21.073  0.00  0.00    +0.000 C 
BRANCH  19  20
ATOM     20  N   UNL     1       1.777   6.742  19.822  0.00  0.00    +0.000 NA
ATOM     21  C   UNL     1       1.499   8.163  20.111  0.00  0.00    +0.000 C 
ATOM     22  C   UNL     1       1.368   8.959  18.816  0.00  0.00    +0.000 C 
ATOM     23  C   UNL     1       2.611   8.819  17.945  0.00  0.00    +0.000 C 
ATOM     24  C   UNL     1       2.962   7.349  17.747  0.00  0.00    +0.000 C 
ATOM     25  C   UNL     1       3.050   6.616  19.088  0.00  0.00    +0.000 C 
ENDBRANCH  19  20
ENDBRANCH  16  19
ENDBRANCH  14  15
ENDBRANCH   1  14
TORSDOF 7
ENDMDL
MODEL 6
REMARK VINA RESULT:      -6.7      4.995      6.997
REMARK  Name = 
REMARK  7 active torsions:
REMARK  status: ('A' for Active; 'I' for Inactive)
REMARK    1  A    between atoms: N_1  and  S_2
REMARK    2  A    between atoms: S_2  and  C_5
REMARK    3  A    between atoms: C_8  and  C_9
REMARK    4  A    between atoms: C_9  and  C_10
REMARK    5  A    between atoms: C_10  and  N_11
REMARK    6  A    between atoms: C_12  and  C_14
REMARK    7  A    between atoms: C_14  and  N_15
REMARK                            x       y       z     vdW  Elec       q    Type
REMARK                         _______ _______ _______ _____ _____    ______ ____
ROOT
ATOM      1  C   UNL     1       1.917   2.768  18.063  0.00  0.00    +0.000 C 
ENDROOT
BRANCH   1   5
ATOM      2  C   UNL     1       5.885   4.492  18.037  0.00  0.00    +0.000 A 
ATOM      3  C   UNL     1       5.010   4.742  16.980  0.00  0.00    +0.000 A 
ATOM      4  C   UNL     1       3.722   4.196  17.007  0.00  0.00    +0.000 A 
ATOM      5  C   UNL     1       3.302   3.390  18.082  0.00  0.00    +0.000 A 
ATOM      6  C   UNL     1       4.197   3.164  19.139  0.00  0.00    +0.000 A 
ATOM      7  C   UNL     1       5.481   3.715  19.125  0.00  0.00    +0.000 A 
BRANCH   2   8
ATOM      8  S   UNL     1       7.527   5.151  18.004  0.00  0.00    +0.000 S 
ATOM      9  O   UNL     1       7.523   6.364  17.212  0.00  0.00    +0.000 OA
ATOM     10  O   UNL     1       8.465   4.078  17.765  0.00  0.00    +0.000 OA
BRANCH   8  11
ATOM     11  N   UNL     1       7.787   5.611  19.601  0.00  0.00    +0.000 NA
ATOM     12  H   UNL     1       8.751   5.405  19.849  0.00  0.00    +0.000 HD
ATOM     13  H   UNL     1       7.113   5.152  20.223  0.00  0.00    +0.000 HD
ENDBRANCH   8  11
ENDBRANCH   2   8
ENDBRANCH   1   5
BRANCH   1  14
ATOM     14  C   UNL     1       1.080   3.162  19.288  0.00  0.00    +0.000 C 
BRANCH  14  15
ATOM     15  N   UNL     1       1.117   4.585  19.605  0.00  0.00    +0.000 N 
ATOM     16  C   UNL     1       1.691   4.992  20.787  0.00  0.00    +0.000 C 
ATOM     17  O   UNL     1       2.170   4.196  21.600  0.00  0.00    +0.000 OA
ATOM     18  H   UNL     1       0.736   5.279  18.991  0.00  0.00    +0.000 HD
BRANCH  16  19
ATOM     19  C   UNL     1       1.723   6.503  21.050  0.00  0.00    +0.000 C 
BRANCH  19  20
ATOM     20  N   UNL     1       1.611   7.257  19.783  0.00  0.00    +0.000 NA
ATOM     21  C   UNL     1       1.243   8.663  20.046  0.00  0.00    +0.000 C 
ATOM     22  C   UNL     1       1.032   9.416  18.735  0.00  0.00    +0.000 C 
ATOM     23  C   UNL     1       2.263   9.339  17.840  0.00  0.00    +0.000 C 
ATOM     24  C   UNL     1       2.708   7.891  17.668  0.00  0.00    +0.000 C 
ATOM     25  C   UNL     1       2.874   7.200  19.023  0.00  0.00    +0.000 C 
ENDBRANCH  19  20
ENDBRANCH  16  19
ENDBRANCH  14  15
ENDBRANCH   1  14
TORSDOF 7
ENDMDL
MODEL 7
REMARK VINA RESULT:      -6.7      1.366      1.436
REMARK  Name = 
REMARK  7 active torsions:
REMARK  status: ('A' for Active; 'I' for Inactive)
REMARK    1  A    between atoms: N_1  and  S_2
REMARK    2  A    between atoms: S_2  and  C_5
REMARK    3  A    between atoms: C_8  and  C_9
REMARK    4  A    between atoms: C_9  and  C_10
REMARK    5  A    between atoms: C_10  and  N_11
REMARK    6  A    between atoms: C_12  and  C_14
REMARK    7  A    between atoms: C_14  and  N_15
REMARK                            x       y       z     vdW  Elec       q    Type
REMARK                         _______ _______ _______ _____ _____    ______ ____
ROOT
ATOM      1  C   UNL     1       6.858   6.554  16.668  0.00  0.00    +0.000 C 
ENDROOT
BRANCH   1   5
ATOM      2  C   UNL     1       4.178   3.556  18.262  0.00  0.00    +0.000 A 
ATOM      3  C   UNL     1       4.965   4.316  19.126  0.00  0.00    +0.000 A 
ATOM      4  C   UNL     1       5.814   5.298  18.602  0.00  0.00    +0.000 A 
ATOM      5  C   UNL     1       5.891   5.518  17.215  0.00  0.00    +0.000 A 
ATOM      6  C   UNL     1       5.079   4.749  16.368  0.00  0.00    +0.000 A 
ATOM      7  C   UNL     1       4.220   3.775  16.884  0.00  0.00    +0.000 A 
BRANCH   2   8
ATOM      8  S   UNL     1       3.119   2.292  18.907  0.00  0.00    +0.000 S 
ATOM      9  O   UNL     1       1.863   2.330  18.188  0.00  0.00    +0.000 OA
ATOM     10  O   UNL     1       3.182   2.312  20.351  0.00  0.00    +0.000 OA
BRANCH   8  11
ATOM     11  N   UNL     1       3.899   0.872  18.456  0.00  0.00    +0.000 NA
ATOM     12  H   UNL     1       4.773   1.110  17.994  0.00  0.00    +0.000 HD
ATOM     13  H   UNL     1       3.287   0.295  17.868  0.00  0.00    +0.000 HD
ENDBRANCH   8  11
ENDBRANCH   2   8
ENDBRANCH   1   5
BRANCH   1  14
ATOM     14  C   UNL     1       7.565   7.341  17.781  0.00  0.00    +0.000 C 
BRANCH  14  15
ATOM     15  N   UNL     1       7.793   8.747  17.466  0.00  0.00    +0.000 N 
ATOM     16  C   UNL     1       8.582   9.500  18.306  0.00  0.00    +0.000 C 
ATOM     17  O   UNL     1       9.098   9.035  19.325  0.00  0.00    +0.000 OA
ATOM     18  H   UNL     1       7.393   9.185  16.660  0.00  0.00    +0.000 HD
BRANCH  16  19
ATOM     19  C   UNL     1       8.805  10.965  17.906  0.00  0.00    +0.000 C 
BRANCH  19  20
ATOM     20  N   UNL     1       9.905  11.560  18.696  0.00  0.00    +0.000 NA
ATOM     21  C   UNL     1      10.875  12.234  17.811  0.00  0.00    +0.000 C 
ATOM     22  C   UNL     1      12.059  12.763  18.616  0.00  0.00    +0.000 C 
ATOM     23  C   UNL     1      11.605  13.699  19.730  0.00  0.00    +0.000 C 
ATOM     24  C   UNL     1      10.518  13.040  20.571  0.00  0.00    +0.000 C 
ATOM     25  C   UNL     1       9.381  12.515  19.691  0.00  0.00    +0.000 C 
ENDBRANCH  19  20
ENDBRANCH  16  19
ENDBRANCH  14  15
ENDBRANCH   1  14
TORSDOF 7
ENDMDL
MODEL 8
REMARK VINA RESULT:      -6.7      5.942      8.637
REMARK  Name = 
REMARK  7 active torsions:
REMARK  status: ('A' for Active; 'I' for Inactive)
REMARK    1  A    between atoms: N_1  and  S_2
REMARK    2  A    between atoms: S_2  and  C_5
REMARK    3  A    between atoms: C_8  and  C_9
REMARK    4  A    between atoms: C_9  and  C_10
REMARK    5  A    between atoms: C_10  and  N_11
REMARK    6  A    between atoms: C_12  and  C_14
REMARK    7  A    between atoms: C_14  and  N_15
REMARK                            x       y       z     vdW  Elec       q    Type
REMARK                         _______ _______ _______ _____ _____    ______ ____
ROOT
ATOM      1  C   UNL     1       1.987   6.763  18.599  0.00  0.00    +0.000 C 
ENDROOT
BRANCH   1   5
ATOM      2  C   UNL     1       5.517   5.301  16.570  0.00  0.00    +0.000 A 
ATOM      3  C   UNL     1       4.563   4.401  17.041  0.00  0.00    +0.000 A 
ATOM      4  C   UNL     1       3.414   4.885  17.678  0.00  0.00    +0.000 A 
ATOM      5  C   UNL     1       3.217   6.266  17.858  0.00  0.00    +0.000 A 
ATOM      6  C   UNL     1       4.186   7.152  17.363  0.00  0.00    +0.000 A 
ATOM      7  C   UNL     1       5.330   6.677  16.716  0.00  0.00    +0.000 A 
BRANCH   2   8
ATOM      8  S   UNL     1       6.988   4.705  15.787  0.00  0.00    +0.000 S 
ATOM      9  O   UNL     1       7.868   4.167  16.804  0.00  0.00    +0.000 OA
ATOM     10  O   UNL     1       7.436   5.677  14.815  0.00  0.00    +0.000 OA
BRANCH   8  11
ATOM     11  N   UNL     1       6.437   3.402  14.878  0.00  0.00    +0.000 NA
ATOM     12  H   UNL     1       7.233   2.830  14.607  0.00  0.00    +0.000 HD
ATOM     13  H   UNL     1       5.894   3.728  14.071  0.00  0.00    +0.000 HD
ENDBRANCH   8  11
ENDBRANCH   2   8
ENDBRANCH   1   5
BRANCH   1  14
ATOM     14  C   UNL     1       2.232   8.100  19.312  0.00  0.00    +0.000 C 
BRANCH  14  15
ATOM     15  N   UNL     1       1.475   9.219  18.762  0.00  0.00    +0.000 N 
ATOM     16  C   UNL     1       0.734  10.006  19.613  0.00  0.00    +0.000 C 
ATOM     17  O   UNL     1       0.673   9.797  20.827  0.00  0.00    +0.000 OA
ATOM     18  H   UNL     1       1.475   9.434  17.784  0.00  0.00    +0.000 HD
BRANCH  16  19
ATOM     19  C   UNL     1      -0.019  11.183  18.977  0.00  0.00    +0.000 C 
BRANCH  19  20
ATOM     20  N   UNL     1      -1.446  10.848  18.783  0.00  0.00    +0.000 NA
ATOM     21  C   UNL     1      -2.273  12.071  18.793  0.00  0.00    +0.000 C 
ATOM     22  C   UNL     1      -3.755  11.717  18.692  0.00  0.00    +0.000 C 
ATOM     23  C   UNL     1      -4.047  10.878  17.453  0.00  0.00    +0.000 C 
ATOM     24  C   UNL     1      -3.109   9.679  17.387  0.00  0.00    +0.000 C 
ATOM     25  C   UNL     1      -1.647  10.112  17.520  0.00  0.00    +0.000 C 
ENDBRANCH  19  20
ENDBRANCH  16  19
ENDBRANCH  14  15
ENDBRANCH   1  14
TORSDOF 7
ENDMDL
MODEL 9
REMARK VINA RESULT:      -6.6      5.438      8.029
REMARK  Name = 
REMARK  7 active torsions:
REMARK  status: ('A' for Active; 'I' for Inactive)
REMARK    1  A    between atoms: N_1  and  S_2
REMARK    2  A    between atoms: S_2  and  C_5
REMARK    3  A    between atoms: C_8  and  C_9
REMARK    4  A    between atoms: C_9  and  C_10
REMARK    5  A    between atoms: C_10  and  N_11
REMARK    6  A    between atoms: C_12  and  C_14
REMARK    7  A    between atoms: C_14  and  N_15
REMARK                            x       y       z     vdW  Elec       q    Type
REMARK                         _______ _______ _______ _____ _____    ______ ____
ROOT
ATOM      1  C   UNL     1       1.944   5.329  19.675  0.00  0.00    +0.000 C 
ENDROOT
BRANCH   1   5
ATOM      2  C   UNL     1       5.672   5.139  17.489  0.00  0.00    +0.000 A 
ATOM      3  C   UNL     1       5.566   4.530  18.738  0.00  0.00    +0.000 A 
ATOM      4  C   UNL     1       4.349   4.579  19.429  0.00  0.00    +0.000 A 
ATOM      5  C   UNL     1       3.237   5.245  18.883  0.00  0.00    +0.000 A 
ATOM      6  C   UNL     1       3.366   5.839  17.618  0.00  0.00    +0.000 A 
ATOM      7  C   UNL     1       4.573   5.785  16.917  0.00  0.00    +0.000 A 
BRANCH   2   8
ATOM      8  S   UNL     1       7.211   5.110  16.615  0.00  0.00    +0.000 S 
ATOM      9  O   UNL     1       8.120   4.222  17.309  0.00  0.00    +0.000 OA
ATOM     10  O   UNL     1       7.578   6.461  16.254  0.00  0.00    +0.000 OA
BRANCH   8  11
ATOM     11  N   UNL     1       6.813   4.363  15.162  0.00  0.00    +0.000 NA
ATOM     12  H   UNL     1       7.022   3.371  15.234  0.00  0.00    +0.000 HD
ATOM     13  H   UNL     1       7.300   4.813  14.379  0.00  0.00    +0.000 HD
ENDBRANCH   8  11
ENDBRANCH   2   8
ENDBRANCH   1   5
BRANCH   1  14
ATOM     14  C   UNL     1       1.928   6.517  20.648  0.00  0.00    +0.000 C 
BRANCH  14  15
ATOM     15  N   UNL     1       1.738   7.813  20.006  0.00  0.00    +0.000 N 
ATOM     16  C   UNL     1       1.106   8.817  20.703  0.00  0.00    +0.000 C 
ATOM     17  O   UNL     1       0.682   8.662  21.852  0.00  0.00    +0.000 OA
ATOM     18  H   UNL     1       2.050   7.997  19.073  0.00  0.00    +0.000 HD
BRANCH  16  19
ATOM     19  C   UNL     1       0.960  10.164  19.984  0.00  0.00    +0.000 C 
BRANCH  19  20
ATOM     20  N   UNL     1      -0.395  10.306  19.408  0.00  0.00    +0.000 NA
ATOM     21  C   UNL     1      -0.918  11.667  19.637  0.00  0.00    +0.000 C 
ATOM     22  C   UNL     1      -2.353  11.784  19.130  0.00  0.00    +0.000 C 
ATOM     23  C   UNL     1      -2.459  11.406  17.657  0.00  0.00    +0.000 C 
ATOM     24  C   UNL     1      -1.812  10.049  17.406  0.00  0.00    +0.000 C 
ATOM     25  C   UNL     1      -0.387  10.004  17.964  0.00  0.00    +0.000 C 
ENDBRANCH  19  20
ENDBRANCH  16  19
ENDBRANCH  14  15
ENDBRANCH   1  14
TORSDOF 7
ENDMDL
