MODEL 1
REMARK VINA RESULT:      -8.3      0.000      0.000
REMARK  Name = 
REMARK  5 active torsions:
REMARK  status: ('A' for Active; 'I' for Inactive)
REMARK    1  A    between atoms: C_1  and  O_2
REMARK    2  A    between atoms: O_2  and  C_3
REMARK    3  A    between atoms: C_8  and  O_9
REMARK    4  A    between atoms: O_9  and  C_10
REMARK    5  A    between atoms: C_16  and  C_17
REMARK                            x       y       z     vdW  Elec       q    Type
REMARK                         _______ _______ _______ _____ _____    ______ ____
ROOT
ATOM      1  C   UNL     1       4.125   4.912  18.086  0.00  0.00    +0.000 A 
ATOM      2  C   UNL     1       3.725   6.143  17.524  0.00  0.00    +0.000 A 
ATOM      3  C   UNL     1       2.932   6.994  18.272  0.00  0.00    +0.000 A 
ATOM      4  C   UNL     1       2.467   6.606  19.532  0.00  0.00    +0.000 A 
ATOM      5  C   UNL     1       2.773   5.369  20.060  0.00  0.00    +0.000 A 
ATOM      6  C   UNL     1       3.615   4.508  19.343  0.00  0.00    +0.000 A 
ATOM      7  C   UNL     1       1.714   7.721  20.080  0.00  0.00    +0.000 A 
ATOM      8  C   UNL     1       1.111   7.813  21.264  0.00  0.00    +0.000 A 
ATOM      9  C   UNL     1       0.443   9.072  21.597  0.00  0.00    +0.000 A 
ATOM     10  C   UNL     1      -0.208   9.218  22.825  0.00  0.00    +0.000 A 
ATOM     11  C   UNL     1      -0.846  10.419  23.144  0.00  0.00    +0.000 A 
ATOM     12  C   UNL     1      -0.838  11.491  22.241  0.00  0.00    +0.000 A 
ATOM     13  C   UNL     1      -1.531  12.779  22.576  0.00  0.00    +0.000 C 
ATOM     14  C   UNL     1      -0.180  11.351  21.010  0.00  0.00    +0.000 A 
ATOM     15  C   UNL     1       0.455  10.146  20.690  0.00  0.00    +0.000 A 
ATOM     16  C   UNL     1       1.150   9.989  19.377  0.00  0.00    +0.000 A 
ATOM     17  O   UNL     1       1.195  10.909  18.564  0.00  0.00    +0.000 OA
ATOM     18  N   UNL     1       1.733   8.755  19.168  0.00  0.00    +0.000 N 
ATOM     19  C   UNL     1       2.484   8.396  17.962  0.00  0.00    +0.000 C 
ENDROOT
BRANCH   1  21
ATOM     20  C   UNL     1       5.289   4.461  16.072  0.00  0.00    +0.000 C 
ATOM     21  O   UNL     1       4.997   4.090  17.420  0.00  0.00    +0.000 OA
ENDBRANCH   1  21
BRANCH   6  22
ATOM     22  O   UNL     1       3.843   3.352  20.042  0.00  0.00    +0.000 OA
ATOM     23  C   UNL     1       2.798   2.773  20.800  0.00  0.00    +0.000 C 
ENDBRANCH   6  22
TORSDOF 2
ENDMDL
MODEL 2
REMARK VINA RESULT:      -8.1      0.995      1.045
REMARK  Name = 
REMARK  5 active torsions:
REMARK  status: ('A' for Active; 'I' for Inactive)
REMARK    1  A    between atoms: C_1  and  O_2
REMARK    2  A    between atoms: O_2  and  C_3
REMARK    3  A    between atoms: C_8  and  O_9
REMARK    4  A    between atoms: O_9  and  C_10
REMARK    5  A    between atoms: C_16  and  C_17
REMARK                            x       y       z     vdW  Elec       q    Type
REMARK                         _______ _______ _______ _____ _____    ______ ____
ROOT
ATOM      1  C   UNL     1       3.479   4.386  18.902  0.00  0.00    +0.000 A 
ATOM      2  C   UNL     1       3.304   5.599  18.204  0.00  0.00    +0.000 A 
ATOM      3  C   UNL     1       2.597   6.623  18.807  0.00  0.00    +0.000 A 
ATOM      4  C   UNL     1       1.998   6.432  20.056  0.00  0.00    +0.000 A 
ATOM      5  C   UNL     1       2.082   5.223  20.714  0.00  0.00    +0.000 A 
ATOM      6  C   UNL     1       2.833   4.184  20.146  0.00  0.00    +0.000 A 
ATOM      7  C   UNL     1       1.384   7.691  20.441  0.00  0.00    +0.000 A 
ATOM      8  C   UNL     1       0.724   7.984  21.561  0.00  0.00    +0.000 A 
ATOM      9  C   UNL     1       0.229   9.351  21.726  0.00  0.00    +0.000 A 
ATOM     10  C   UNL     1      -0.472   9.709  22.881  0.00  0.00    +0.000 A 
ATOM     11  C   UNL     1      -0.945  11.013  23.040  0.00  0.00    +0.000 A 
ATOM     12  C   UNL     1      -0.720  11.978  22.049  0.00  0.00    +0.000 A 
ATOM     13  C   UNL     1      -1.235  13.378  22.213  0.00  0.00    +0.000 C 
ATOM     14  C   UNL     1      -0.010  11.626  20.892  0.00  0.00    +0.000 A 
ATOM     15  C   UNL     1       0.460  10.317  20.732  0.00  0.00    +0.000 A 
ATOM     16  C   UNL     1       1.210   9.935  19.498  0.00  0.00    +0.000 A 
ATOM     17  O   UNL     1       1.444  10.753  18.613  0.00  0.00    +0.000 OA
ATOM     18  N   UNL     1       1.616   8.616  19.445  0.00  0.00    +0.000 N 
ATOM     19  C   UNL     1       2.384   8.036  18.340  0.00  0.00    +0.000 C 
ENDROOT
BRANCH   1  21
ATOM     20  C   UNL     1       3.558   2.281  17.818  0.00  0.00    +0.000 C 
ATOM     21  O   UNL     1       4.262   3.387  18.384  0.00  0.00    +0.000 OA
ENDBRANCH   1  21
BRANCH   6  22
ATOM     22  O   UNL     1       2.842   3.084  20.961  0.00  0.00    +0.000 OA
ATOM     23  C   UNL     1       1.639   2.654  21.571  0.00  0.00    +0.000 C 
ENDBRANCH   6  22
TORSDOF 2
ENDMDL
MODEL 3
REMARK VINA RESULT:      -7.7      1.022      1.121
REMARK  Name = 
REMARK  5 active torsions:
REMARK  status: ('A' for Active; 'I' for Inactive)
REMARK    1  A    between atoms: C_1  and  O_2
REMARK    2  A    between atoms: O_2  and  C_3
REMARK    3  A    between atoms: C_8  and  O_9
REMARK    4  A    between atoms: O_9  and  C_10
REMARK    5  A    between atoms: C_16  and  C_17
REMARK                            x       y       z     vdW  Elec       q    Type
REMARK                         _______ _______ _______ _____ _____    ______ ____
ROOT
ATOM      1  C   UNL     1       4.007   6.128  17.956  0.00  0.00    +0.000 A 
ATOM      2  C   UNL     1       3.453   7.315  17.431  0.00  0.00    +0.000 A 
ATOM      3  C   UNL     1       2.588   8.055  18.216  0.00  0.00    +0.000 A 
ATOM      4  C   UNL     1       2.204   7.593  19.479  0.00  0.00    +0.000 A 
ATOM      5  C   UNL     1       2.664   6.389  19.971  0.00  0.00    +0.000 A 
ATOM      6  C   UNL     1       3.580   5.644  19.216  0.00  0.00    +0.000 A 
ATOM      7  C   UNL     1       1.343   8.602  20.069  0.00  0.00    +0.000 A 
ATOM      8  C   UNL     1       0.766   8.602  21.269  0.00  0.00    +0.000 A 
ATOM      9  C   UNL     1      -0.034   9.769  21.646  0.00  0.00    +0.000 A 
ATOM     10  C   UNL     1      -0.663   9.816  22.893  0.00  0.00    +0.000 A 
ATOM     11  C   UNL     1      -1.426  10.928  23.252  0.00  0.00    +0.000 A 
ATOM     12  C   UNL     1      -1.566  12.011  22.374  0.00  0.00    +0.000 A 
ATOM     13  C   UNL     1      -2.392  13.204  22.754  0.00  0.00    +0.000 C 
ATOM     14  C   UNL     1      -0.929  11.971  21.125  0.00  0.00    +0.000 A 
ATOM     15  C   UNL     1      -0.168  10.854  20.763  0.00  0.00    +0.000 A 
ATOM     16  C   UNL     1       0.505  10.804  19.431  0.00  0.00    +0.000 A 
ATOM     17  O   UNL     1       0.422  11.737  18.637  0.00  0.00    +0.000 OA
ATOM     18  N   UNL     1       1.219   9.648  19.180  0.00  0.00    +0.000 N 
ATOM     19  C   UNL     1       1.975   9.401  17.948  0.00  0.00    +0.000 C 
ENDROOT
BRANCH   1  21
ATOM     20  C   UNL     1       6.305   5.811  17.479  0.00  0.00    +0.000 C 
ATOM     21  O   UNL     1       4.949   5.425  17.251  0.00  0.00    +0.000 OA
ENDBRANCH   1  21
BRANCH   6  22
ATOM     22  O   UNL     1       3.958   4.510  19.884  0.00  0.00    +0.000 OA
ATOM     23  C   UNL     1       3.131   3.362  19.839  0.00  0.00    +0.000 C 
ENDBRANCH   6  22
TORSDOF 2
ENDMDL
MODEL 4
REMARK VINA RESULT:      -7.3      1.640      7.004
REMARK  Name = 
REMARK  5 active torsions:
REMARK  status: ('A' for Active; 'I' for Inactive)
REMARK    1  A    between atoms: C_1  and  O_2
REMARK    2  A    between atoms: O_2  and  C_3
REMARK    3  A    between atoms: C_8  and  O_9
REMARK    4  A    between atoms: O_9  and  C_10
REMARK    5  A    between atoms: C_16  and  C_17
REMARK                            x       y       z     vdW  Elec       q    Type
REMARK                         _______ _______ _______ _____ _____    ______ ____
ROOT
ATOM      1  C   UNL     1       0.306  11.351  19.619  0.00  0.00    +0.000 A 
ATOM      2  C   UNL     1       1.214  10.782  18.701  0.00  0.00    +0.000 A 
ATOM      3  C   UNL     1       1.632   9.478  18.893  0.00  0.00    +0.000 A 
ATOM      4  C   UNL     1       1.224   8.761  20.022  0.00  0.00    +0.000 A 
ATOM      5  C   UNL     1       0.410   9.332  20.978  0.00  0.00    +0.000 A 
ATOM      6  C   UNL     1      -0.067  10.636  20.783  0.00  0.00    +0.000 A 
ATOM      7  C   UNL     1       1.779   7.424  19.913  0.00  0.00    +0.000 A 
ATOM      8  C   UNL     1       1.633   6.394  20.745  0.00  0.00    +0.000 A 
ATOM      9  C   UNL     1       2.271   5.126  20.385  0.00  0.00    +0.000 A 
ATOM     10  C   UNL     1       2.151   4.017  21.226  0.00  0.00    +0.000 A 
ATOM     11  C   UNL     1       2.759   2.807  20.883  0.00  0.00    +0.000 A 
ATOM     12  C   UNL     1       3.491   2.689  19.694  0.00  0.00    +0.000 A 
ATOM     13  C   UNL     1       4.153   1.393  19.328  0.00  0.00    +0.000 C 
ATOM     14  C   UNL     1       3.607   3.798  18.844  0.00  0.00    +0.000 A 
ATOM     15  C   UNL     1       3.001   5.011  19.190  0.00  0.00    +0.000 A 
ATOM     16  C   UNL     1       3.129   6.197  18.291  0.00  0.00    +0.000 A 
ATOM     17  O   UNL     1       3.747   6.133  17.232  0.00  0.00    +0.000 OA
ATOM     18  N   UNL     1       2.499   7.341  18.739  0.00  0.00    +0.000 N 
ATOM     19  C   UNL     1       2.477   8.609  18.004  0.00  0.00    +0.000 C 
ENDROOT
BRANCH   1  21
ATOM     20  C   UNL     1      -1.019  12.744  18.234  0.00  0.00    +0.000 C 
ATOM     21  O   UNL     1      -0.214  12.602  19.405  0.00  0.00    +0.000 OA
ENDBRANCH   1  21
BRANCH   6  22
ATOM     22  O   UNL     1      -0.895  11.013  21.806  0.00  0.00    +0.000 OA
ATOM     23  C   UNL     1      -0.785  10.380  23.067  0.00  0.00    +0.000 C 
ENDBRANCH   6  22
TORSDOF 2
ENDMDL
MODEL 5
REMARK VINA RESULT:      -7.2      1.545      7.755
REMARK  Name = 
REMARK  5 active torsions:
REMARK  status: ('A' for Active; 'I' for Inactive)
REMARK    1  A    between atoms: C_1  and  O_2
REMARK    2  A    between atoms: O_2  and  C_3
REMARK    3  A    between atoms: C_8  and  O_9
REMARK    4  A    between atoms: O_9  and  C_10
REMARK    5  A    between atoms: C_16  and  C_17
REMARK                            x       y       z     vdW  Elec       q    Type
REMARK                         _______ _______ _______ _____ _____    ______ ____
ROOT
ATOM      1  C   UNL     1      -0.248  10.516  21.085  0.00  0.00    +0.000 A 
ATOM      2  C   UNL     1       0.088   9.190  21.432  0.00  0.00    +0.000 A 
ATOM      3  C   UNL     1       0.933   8.475  20.604  0.00  0.00    +0.000 A 
ATOM      4  C   UNL     1       1.383   9.028  19.401  0.00  0.00    +0.000 A 
ATOM      5  C   UNL     1       0.992  10.289  19.001  0.00  0.00    +0.000 A 
ATOM      6  C   UNL     1       0.174  11.053  19.845  0.00  0.00    +0.000 A 
ATOM      7  C   UNL     1       2.284   8.067  18.790  0.00  0.00    +0.000 A 
ATOM      8  C   UNL     1       2.966   8.176  17.651  0.00  0.00    +0.000 A 
ATOM      9  C   UNL     1       3.845   7.070  17.270  0.00  0.00    +0.000 A 
ATOM     10  C   UNL     1       4.580   7.134  16.082  0.00  0.00    +0.000 A 
ATOM     11  C   UNL     1       5.418   6.079  15.718  0.00  0.00    +0.000 A 
ATOM     12  C   UNL     1       5.538   4.948  16.536  0.00  0.00    +0.000 A 
ATOM     13  C   UNL     1       6.431   3.809  16.143  0.00  0.00    +0.000 C 
ATOM     14  C   UNL     1       4.809   4.883  17.733  0.00  0.00    +0.000 A 
ATOM     15  C   UNL     1       3.965   5.939  18.095  0.00  0.00    +0.000 A 
ATOM     16  C   UNL     1       3.180   5.870  19.364  0.00  0.00    +0.000 A 
ATOM     17  O   UNL     1       3.268   4.906  20.119  0.00  0.00    +0.000 OA
ATOM     18  N   UNL     1       2.375   6.965  19.613  0.00  0.00    +0.000 N 
ATOM     19  C   UNL     1       1.541   7.115  20.810  0.00  0.00    +0.000 C 
ENDROOT
BRANCH   1  21
ATOM     20  C   UNL     1      -1.194  10.761  23.244  0.00  0.00    +0.000 C 
ATOM     21  O   UNL     1      -0.996  11.292  21.933  0.00  0.00    +0.000 OA
ENDBRANCH   1  21
BRANCH   6  22
ATOM     22  O   UNL     1      -0.069  12.288  19.306  0.00  0.00    +0.000 OA
ATOM     23  C   UNL     1      -1.013  12.421  18.259  0.00  0.00    +0.000 C 
ENDBRANCH   6  22
TORSDOF 2
ENDMDL
MODEL 6
REMARK VINA RESULT:      -7.1      5.428      7.150
REMARK  Name = 
REMARK  5 active torsions:
REMARK  status: ('A' for Active; 'I' for Inactive)
REMARK    1  A    between atoms: C_1  and  O_2
REMARK    2  A    between atoms: O_2  and  C_3
REMARK    3  A    between atoms: C_8  and  O_9
REMARK    4  A    between atoms: O_9  and  C_10
REMARK    5  A    between atoms: C_16  and  C_17
REMARK                            x       y       z     vdW  Elec       q    Type
REMARK                         _______ _______ _______ _____ _____    ______ ____
ROOT
ATOM      1  C   UNL     1       7.294   4.849  13.490  0.00  0.00    +0.000 A 
ATOM      2  C   UNL     1       7.373   5.415  14.780  0.00  0.00    +0.000 A 
ATOM      3  C   UNL     1       6.440   5.045  15.732  0.00  0.00    +0.000 A 
ATOM      4  C   UNL     1       5.388   4.186  15.398  0.00  0.00    +0.000 A 
ATOM      5  C   UNL     1       5.243   3.695  14.117  0.00  0.00    +0.000 A 
ATOM      6  C   UNL     1       6.202   4.016  13.147  0.00  0.00    +0.000 A 
ATOM      7  C   UNL     1       4.619   3.950  16.607  0.00  0.00    +0.000 A 
ATOM      8  C   UNL     1       3.546   3.178  16.770  0.00  0.00    +0.000 A 
ATOM      9  C   UNL     1       2.972   3.078  18.113  0.00  0.00    +0.000 A 
ATOM     10  C   UNL     1       1.843   2.284  18.336  0.00  0.00    +0.000 A 
ATOM     11  C   UNL     1       1.294   2.188  19.617  0.00  0.00    +0.000 A 
ATOM     12  C   UNL     1       1.869   2.880  20.692  0.00  0.00    +0.000 A 
ATOM     13  C   UNL     1       1.276   2.786  22.067  0.00  0.00    +0.000 C 
ATOM     14  C   UNL     1       3.006   3.671  20.473  0.00  0.00    +0.000 A 
ATOM     15  C   UNL     1       3.552   3.770  19.189  0.00  0.00    +0.000 A 
ATOM     16  C   UNL     1       4.759   4.619  18.950  0.00  0.00    +0.000 A 
ATOM     17  O   UNL     1       5.303   5.228  19.867  0.00  0.00    +0.000 OA
ATOM     18  N   UNL     1       5.203   4.648  17.643  0.00  0.00    +0.000 N 
ATOM     19  C   UNL     1       6.381   5.395  17.193  0.00  0.00    +0.000 C 
ENDROOT
BRANCH   1  21
ATOM     20  C   UNL     1       8.023   6.239  11.715  0.00  0.00    +0.000 C 
ATOM     21  O   UNL     1       8.261   5.107  12.553  0.00  0.00    +0.000 OA
ENDBRANCH   1  21
BRANCH   6  22
ATOM     22  O   UNL     1       5.919   3.402  11.956  0.00  0.00    +0.000 OA
ATOM     23  C   UNL     1       4.571   3.203  11.573  0.00  0.00    +0.000 C 
ENDBRANCH   6  22
TORSDOF 2
ENDMDL
MODEL 7
REMARK VINA RESULT:      -7.0      2.090      7.369
REMARK  Name = 
REMARK  5 active torsions:
REMARK  status: ('A' for Active; 'I' for Inactive)
REMARK    1  A    between atoms: C_1  and  O_2
REMARK    2  A    between atoms: O_2  and  C_3
REMARK    3  A    between atoms: C_8  and  O_9
REMARK    4  A    between atoms: O_9  and  C_10
REMARK    5  A    between atoms: C_16  and  C_17
REMARK                            x       y       z     vdW  Elec       q    Type
REMARK                         _______ _______ _______ _____ _____    ______ ____
ROOT
ATOM      1  C   UNL     1      -0.389  12.757  21.049  0.00  0.00    +0.000 A 
ATOM      2  C   UNL     1       0.346  12.448  19.885  0.00  0.00    +0.000 A 
ATOM      3  C   UNL     1       0.832  11.164  19.722  0.00  0.00    +0.000 A 
ATOM      4  C   UNL     1       0.668  10.209  20.730  0.00  0.00    +0.000 A 
ATOM      5  C   UNL     1       0.031  10.519  21.913  0.00  0.00    +0.000 A 
ATOM      6  C   UNL     1      -0.514  11.799  22.084  0.00  0.00    +0.000 A 
ATOM      7  C   UNL     1       1.233   8.962  20.245  0.00  0.00    +0.000 A 
ATOM      8  C   UNL     1       1.278   7.779  20.854  0.00  0.00    +0.000 A 
ATOM      9  C   UNL     1       1.875   6.656  20.128  0.00  0.00    +0.000 A 
ATOM     10  C   UNL     1       1.950   5.395  20.725  0.00  0.00    +0.000 A 
ATOM     11  C   UNL     1       2.519   4.324  20.034  0.00  0.00    +0.000 A 
ATOM     12  C   UNL     1       3.017   4.497  18.736  0.00  0.00    +0.000 A 
ATOM     13  C   UNL     1       3.637   3.350  17.994  0.00  0.00    +0.000 C 
ATOM     14  C   UNL     1       2.937   5.760  18.130  0.00  0.00    +0.000 A 
ATOM     15  C   UNL     1       2.370   6.834  18.825  0.00  0.00    +0.000 A 
ATOM     16  C   UNL     1       2.290   8.182  18.187  0.00  0.00    +0.000 A 
ATOM     17  O   UNL     1       2.698   8.375  17.045  0.00  0.00    +0.000 OA
ATOM     18  N   UNL     1       1.720   9.167  18.971  0.00  0.00    +0.000 N 
ATOM     19  C   UNL     1       1.521  10.552  18.533  0.00  0.00    +0.000 C 
ENDROOT
BRANCH   1  21
ATOM     20  C   UNL     1      -0.135  15.016  21.716  0.00  0.00    +0.000 C 
ATOM     21  O   UNL     1      -0.978  13.986  21.198  0.00  0.00    +0.000 OA
ENDBRANCH   1  21
BRANCH   6  22
ATOM     22  O   UNL     1      -1.145  11.906  23.294  0.00  0.00    +0.000 OA
ATOM     23  C   UNL     1      -2.560  11.894  23.350  0.00  0.00    +0.000 C 
ENDBRANCH   6  22
TORSDOF 2
ENDMDL
MODEL 8
REMARK VINA RESULT:      -6.9      1.631      3.083
REMARK  Name = 
REMARK  5 active torsions:
REMARK  status: ('A' for Active; 'I' for Inactive)
REMARK    1  A    between atoms: C_1  and  O_2
REMARK    2  A    between atoms: O_2  and  C_3
REMARK    3  A    between atoms: C_8  and  O_9
REMARK    4  A    between atoms: O_9  and  C_10
REMARK    5  A    between atoms: C_16  and  C_17
REMARK                            x       y       z     vdW  Elec       q    Type
REMARK                         _______ _______ _______ _____ _____    ______ ____
ROOT
ATOM      1  C   UNL     1       3.771   4.447  18.717  0.00  0.00    +0.000 A 
ATOM      2  C   UNL     1       3.044   4.812  19.870  0.00  0.00    +0.000 A 
ATOM      3  C   UNL     1       2.472   6.069  19.931  0.00  0.00    +0.000 A 
ATOM      4  C   UNL     1       2.678   6.993  18.901  0.00  0.00    +0.000 A 
ATOM      5  C   UNL     1       3.461   6.686  17.809  0.00  0.00    +0.000 A 
ATOM      6  C   UNL     1       4.013   5.402  17.700  0.00  0.00    +0.000 A 
ATOM      7  C   UNL     1       1.915   8.185  19.227  0.00  0.00    +0.000 A 
ATOM      8  C   UNL     1       1.792   9.310  18.524  0.00  0.00    +0.000 A 
ATOM      9  C   UNL     1       0.924  10.361  19.059  0.00  0.00    +0.000 A 
ATOM     10  C   UNL     1       0.765  11.561  18.361  0.00  0.00    +0.000 A 
ATOM     11  C   UNL     1      -0.062  12.565  18.870  0.00  0.00    +0.000 A 
ATOM     12  C   UNL     1      -0.745  12.379  20.080  0.00  0.00    +0.000 A 
ATOM     13  C   UNL     1      -1.627  13.459  20.634  0.00  0.00    +0.000 C 
ATOM     14  C   UNL     1      -0.594  11.173  20.779  0.00  0.00    +0.000 A 
ATOM     15  C   UNL     1       0.239  10.170  20.271  0.00  0.00    +0.000 A 
ATOM     16  C   UNL     1       0.409   8.887  21.016  0.00  0.00    +0.000 A 
ATOM     17  O   UNL     1      -0.183   8.677  22.071  0.00  0.00    +0.000 OA
ATOM     18  N   UNL     1       1.262   7.976  20.424  0.00  0.00    +0.000 N 
ATOM     19  C   UNL     1       1.553   6.647  20.971  0.00  0.00    +0.000 C 
ENDROOT
BRANCH   1  21
ATOM     20  C   UNL     1       3.317   2.193  18.145  0.00  0.00    +0.000 C 
ATOM     21  O   UNL     1       4.262   3.175  18.574  0.00  0.00    +0.000 OA
ENDBRANCH   1  21
BRANCH   6  22
ATOM     22  O   UNL     1       4.716   5.267  16.532  0.00  0.00    +0.000 OA
ATOM     23  C   UNL     1       5.186   6.421  15.861  0.00  0.00    +0.000 C 
ENDBRANCH   6  22
TORSDOF 2
ENDMDL
