MODEL 1
REMARK VINA RESULT:      -7.8      0.000      0.000
REMARK  Name = 
REMARK  10 active torsions:
REMARK  status: ('A' for Active; 'I' for Inactive)
REMARK    1  A    between atoms: C_1  and  C_2
REMARK    2  A    between atoms: C_2  and  C_3
REMARK    3  A    between atoms: C_2  and  C_4
REMARK    4  A    between atoms: C_4  and  N_5
REMARK    5  A    between atoms: C_4  and  C_23
REMARK    6  A    between atoms: N_5  and  S_6
REMARK    7  A    between atoms: S_6  and  C_9
REMARK    8  A    between atoms: C_12  and  C_13
REMARK    9  A    between atoms: C_16  and  C_17
REMARK   10  A    between atoms: C_23  and  O_25
REMARK                            x       y       z     vdW  Elec       q    Type
REMARK                         _______ _______ _______ _____ _____    ______ ____
ROOT
ATOM      1  C   UNL     1       3.389   5.158  18.760  0.00  0.00    +0.000 A 
ATOM      2  C   UNL     1       3.270   6.375  18.087  0.00  0.00    +0.000 A 
ATOM      3  C   UNL     1       2.608   7.443  18.698  0.00  0.00    +0.000 A 
ATOM      4  C   UNL     1       2.033   7.319  19.977  0.00  0.00    +0.000 A 
ATOM      5  C   UNL     1       2.170   6.073  20.627  0.00  0.00    +0.000 A 
ATOM      6  C   UNL     1       2.843   5.000  20.030  0.00  0.00    +0.000 A 
ENDROOT
BRANCH   4   7
ATOM      7  C   UNL     1       1.299   8.449  20.600  0.00  0.00    +0.000 A 
ATOM      8  C   UNL     1       0.837   9.538  19.834  0.00  0.00    +0.000 A 
ATOM      9  C   UNL     1       0.164  10.619  20.419  0.00  0.00    +0.000 A 
ATOM     10  C   UNL     1      -0.080  10.629  21.793  0.00  0.00    +0.000 A 
ATOM     11  C   UNL     1       0.352   9.556  22.572  0.00  0.00    +0.000 A 
ATOM     12  C   UNL     1       1.037   8.485  21.982  0.00  0.00    +0.000 A 
BRANCH  10  13
ATOM     13  C   UNL     1      -0.765  11.733  22.397  0.00  0.00    +0.000 C 
ATOM     14  N   UNL     1      -1.315  12.630  22.886  0.00  0.00    +0.000 NA
ENDBRANCH  10  13
ENDBRANCH   4   7
BRANCH   1  15
ATOM     15  S   UNL     1       4.145   3.783  17.940  0.00  0.00    +0.000 S 
ATOM     16  O   UNL     1       3.692   3.802  16.568  0.00  0.00    +0.000 OA
ATOM     17  O   UNL     1       3.980   2.630  18.797  0.00  0.00    +0.000 OA
BRANCH  15  18
ATOM     18  N   UNL     1       5.789   4.163  17.959  0.00  0.00    +0.000 NA
ATOM     19  H   UNL     1       6.330   3.294  17.939  0.00  0.00    +0.000 HD
BRANCH  18  20
ATOM     20  C   UNL     1       6.282   5.218  17.036  0.00  0.00    +0.000 C 
BRANCH  20  22
ATOM     21  C   UNL     1       7.492   5.738  19.236  0.00  0.00    +0.000 C 
ATOM     22  C   UNL     1       7.422   6.016  17.730  0.00  0.00    +0.000 C 
ATOM     23  C   UNL     1       7.281   7.529  17.513  0.00  0.00    +0.000 C 
ENDBRANCH  20  22
BRANCH  20  24
ATOM     24  C   UNL     1       6.848   4.569  15.764  0.00  0.00    +0.000 C 
ATOM     25  O   UNL     1       7.581   5.156  14.979  0.00  0.00    +0.000 OA
BRANCH  24  26
ATOM     26  O   UNL     1       6.428   3.300  15.551  0.00  0.00    +0.000 OA
ATOM     27  H   UNL     1       6.953   2.622  16.017  0.00  0.00    +0.000 HD
ENDBRANCH  24  26
ENDBRANCH  20  24
ENDBRANCH  18  20
ENDBRANCH  15  18
ENDBRANCH   1  15
TORSDOF 8
ENDMDL
MODEL 2
REMARK VINA RESULT:      -7.7      2.793      4.097
REMARK  Name = 
REMARK  10 active torsions:
REMARK  status: ('A' for Active; 'I' for Inactive)
REMARK    1  A    between atoms: C_1  and  C_2
REMARK    2  A    between atoms: C_2  and  C_3
REMARK    3  A    between atoms: C_2  and  C_4
REMARK    4  A    between atoms: C_4  and  N_5
REMARK    5  A    between atoms: C_4  and  C_23
REMARK    6  A    between atoms: N_5  and  S_6
REMARK    7  A    between atoms: S_6  and  C_9
REMARK    8  A    between atoms: C_12  and  C_13
REMARK    9  A    between atoms: C_16  and  C_17
REMARK   10  A    between atoms: C_23  and  O_25
REMARK                            x       y       z     vdW  Elec       q    Type
REMARK                         _______ _______ _______ _____ _____    ______ ____
ROOT
ATOM      1  C   UNL     1       2.625   6.668  19.251  0.00  0.00    +0.000 A 
ATOM      2  C   UNL     1       2.071   6.417  20.507  0.00  0.00    +0.000 A 
ATOM      3  C   UNL     1       1.264   7.382  21.114  0.00  0.00    +0.000 A 
ATOM      4  C   UNL     1       1.008   8.622  20.498  0.00  0.00    +0.000 A 
ATOM      5  C   UNL     1       1.586   8.842  19.229  0.00  0.00    +0.000 A 
ATOM      6  C   UNL     1       2.386   7.877  18.604  0.00  0.00    +0.000 A 
ENDROOT
BRANCH   4   7
ATOM      7  C   UNL     1       0.180   9.655  21.169  0.00  0.00    +0.000 A 
ATOM      8  C   UNL     1      -0.187   9.538  22.525  0.00  0.00    +0.000 A 
ATOM      9  C   UNL     1      -0.987  10.497  23.158  0.00  0.00    +0.000 A 
ATOM     10  C   UNL     1      -1.430  11.615  22.451  0.00  0.00    +0.000 A 
ATOM     11  C   UNL     1      -1.068  11.765  21.112  0.00  0.00    +0.000 A 
ATOM     12  C   UNL     1      -0.279  10.793  20.481  0.00  0.00    +0.000 A 
BRANCH  10  13
ATOM     13  C   UNL     1      -2.252  12.598  23.093  0.00  0.00    +0.000 C 
ATOM     14  N   UNL     1      -2.916  13.398  23.608  0.00  0.00    +0.000 NA
ENDBRANCH  10  13
ENDBRANCH   4   7
BRANCH   1  15
ATOM     15  S   UNL     1       3.723   5.478  18.533  0.00  0.00    +0.000 S 
ATOM     16  O   UNL     1       4.849   5.341  19.428  0.00  0.00    +0.000 OA
ATOM     17  O   UNL     1       3.877   5.825  17.138  0.00  0.00    +0.000 OA
BRANCH  15  18
ATOM     18  N   UNL     1       2.836   4.042  18.575  0.00  0.00    +0.000 NA
ATOM     19  H   UNL     1       2.839   3.625  17.640  0.00  0.00    +0.000 HD
BRANCH  18  20
ATOM     20  C   UNL     1       3.096   3.083  19.680  0.00  0.00    +0.000 C 
BRANCH  20  22
ATOM     21  C   UNL     1       0.570   2.905  19.275  0.00  0.00    +0.000 C 
ATOM     22  C   UNL     1       1.747   2.474  20.157  0.00  0.00    +0.000 C 
ATOM     23  C   UNL     1       1.433   2.842  21.614  0.00  0.00    +0.000 C 
ENDBRANCH  20  22
BRANCH  20  24
ATOM     24  C   UNL     1       3.992   1.943  19.174  0.00  0.00    +0.000 C 
ATOM     25  O   UNL     1       3.705   1.237  18.216  0.00  0.00    +0.000 OA
BRANCH  24  26
ATOM     26  O   UNL     1       5.112   1.746  19.908  0.00  0.00    +0.000 OA
ATOM     27  H   UNL     1       5.718   1.077  19.539  0.00  0.00    +0.000 HD
ENDBRANCH  24  26
ENDBRANCH  20  24
ENDBRANCH  18  20
ENDBRANCH  15  18
ENDBRANCH   1  15
TORSDOF 8
ENDMDL
MODEL 3
REMARK VINA RESULT:      -7.7      2.159      4.008
REMARK  Name = 
REMARK  10 active torsions:
REMARK  status: ('A' for Active; 'I' for Inactive)
REMARK    1  A    between atoms: C_1  and  C_2
REMARK    2  A    between atoms: C_2  and  C_3
REMARK    3  A    between atoms: C_2  and  C_4
REMARK    4  A    between atoms: C_4  and  N_5
REMARK    5  A    between atoms: C_4  and  C_23
REMARK    6  A    between atoms: N_5  and  S_6
REMARK    7  A    between atoms: S_6  and  C_9
REMARK    8  A    between atoms: C_12  and  C_13
REMARK    9  A    between atoms: C_16  and  C_17
REMARK   10  A    between atoms: C_23  and  O_25
REMARK                            x       y       z     vdW  Elec       q    Type
REMARK                         _______ _______ _______ _____ _____    ______ ____
ROOT
ATOM      1  C   UNL     1       4.076   5.869  18.476  0.00  0.00    +0.000 A 
ATOM      2  C   UNL     1       3.310   5.854  19.642  0.00  0.00    +0.000 A 
ATOM      3  C   UNL     1       2.363   6.858  19.862  0.00  0.00    +0.000 A 
ATOM      4  C   UNL     1       2.174   7.907  18.941  0.00  0.00    +0.000 A 
ATOM      5  C   UNL     1       2.969   7.891  17.774  0.00  0.00    +0.000 A 
ATOM      6  C   UNL     1       3.911   6.882  17.537  0.00  0.00    +0.000 A 
ENDROOT
BRANCH   4   7
ATOM      7  C   UNL     1       1.192   8.989  19.203  0.00  0.00    +0.000 A 
ATOM      8  C   UNL     1       0.754   9.285  20.510  0.00  0.00    +0.000 A 
ATOM      9  C   UNL     1      -0.189  10.289  20.762  0.00  0.00    +0.000 A 
ATOM     10  C   UNL     1      -0.710  11.040  19.707  0.00  0.00    +0.000 A 
ATOM     11  C   UNL     1      -0.281  10.779  18.406  0.00  0.00    +0.000 A 
ATOM     12  C   UNL     1       0.652   9.763  18.160  0.00  0.00    +0.000 A 
BRANCH  10  13
ATOM     13  C   UNL     1      -1.677  12.066  19.959  0.00  0.00    +0.000 C 
ATOM     14  N   UNL     1      -2.458  12.901  20.158  0.00  0.00    +0.000 NA
ENDBRANCH  10  13
ENDBRANCH   4   7
BRANCH   1  15
ATOM     15  S   UNL     1       5.338   4.647  18.252  0.00  0.00    +0.000 S 
ATOM     16  O   UNL     1       6.194   4.698  19.415  0.00  0.00    +0.000 OA
ATOM     17  O   UNL     1       5.845   4.797  16.906  0.00  0.00    +0.000 OA
BRANCH  15  18
ATOM     18  N   UNL     1       4.490   3.188  18.284  0.00  0.00    +0.000 NA
ATOM     19  H   UNL     1       5.032   2.479  17.782  0.00  0.00    +0.000 HD
BRANCH  18  20
ATOM     20  C   UNL     1       3.921   2.729  19.578  0.00  0.00    +0.000 C 
BRANCH  20  22
ATOM     21  C   UNL     1       1.859   2.820  18.057  0.00  0.00    +0.000 C 
ATOM     22  C   UNL     1       2.452   2.269  19.359  0.00  0.00    +0.000 C 
ATOM     23  C   UNL     1       1.542   2.674  20.526  0.00  0.00    +0.000 C 
ENDBRANCH  20  22
BRANCH  20  24
ATOM     24  C   UNL     1       4.731   1.535  20.104  0.00  0.00    +0.000 C 
ATOM     25  O   UNL     1       5.320   1.543  21.178  0.00  0.00    +0.000 OA
BRANCH  24  26
ATOM     26  O   UNL     1       4.786   0.481  19.257  0.00  0.00    +0.000 OA
ATOM     27  H   UNL     1       4.588   0.704  18.328  0.00  0.00    +0.000 HD
ENDBRANCH  24  26
ENDBRANCH  20  24
ENDBRANCH  18  20
ENDBRANCH  15  18
ENDBRANCH   1  15
TORSDOF 8
ENDMDL
MODEL 4
REMARK VINA RESULT:      -7.6      0.196      1.372
REMARK  Name = 
REMARK  10 active torsions:
REMARK  status: ('A' for Active; 'I' for Inactive)
REMARK    1  A    between atoms: C_1  and  C_2
REMARK    2  A    between atoms: C_2  and  C_3
REMARK    3  A    between atoms: C_2  and  C_4
REMARK    4  A    between atoms: C_4  and  N_5
REMARK    5  A    between atoms: C_4  and  C_23
REMARK    6  A    between atoms: N_5  and  S_6
REMARK    7  A    between atoms: S_6  and  C_9
REMARK    8  A    between atoms: C_12  and  C_13
REMARK    9  A    between atoms: C_16  and  C_17
REMARK   10  A    between atoms: C_23  and  O_25
REMARK                            x       y       z     vdW  Elec       q    Type
REMARK                         _______ _______ _______ _____ _____    ______ ____
ROOT
ATOM      1  C   UNL     1       3.265   5.077  18.512  0.00  0.00    +0.000 A 
ATOM      2  C   UNL     1       2.588   4.867  19.714  0.00  0.00    +0.000 A 
ATOM      3  C   UNL     1       1.947   5.936  20.344  0.00  0.00    +0.000 A 
ATOM      4  C   UNL     1       1.984   7.238  19.808  0.00  0.00    +0.000 A 
ATOM      5  C   UNL     1       2.680   7.413  18.592  0.00  0.00    +0.000 A 
ATOM      6  C   UNL     1       3.314   6.347  17.944  0.00  0.00    +0.000 A 
ENDROOT
BRANCH   4   7
ATOM      7  C   UNL     1       1.331   8.373  20.506  0.00  0.00    +0.000 A 
ATOM      8  C   UNL     1       1.153   8.373  21.904  0.00  0.00    +0.000 A 
ATOM      9  C   UNL     1       0.517   9.431  22.567  0.00  0.00    +0.000 A 
ATOM     10  C   UNL     1       0.056  10.532  21.844  0.00  0.00    +0.000 A 
ATOM     11  C   UNL     1       0.235  10.566  20.461  0.00  0.00    +0.000 A 
ATOM     12  C   UNL     1       0.859   9.497  19.803  0.00  0.00    +0.000 A 
BRANCH  10  13
ATOM     13  C   UNL     1      -0.597  11.616  22.517  0.00  0.00    +0.000 C 
ATOM     14  N   UNL     1      -1.122  12.498  23.057  0.00  0.00    +0.000 NA
ENDBRANCH  10  13
ENDBRANCH   4   7
BRANCH   1  15
ATOM     15  S   UNL     1       4.153   3.736  17.771  0.00  0.00    +0.000 S 
ATOM     16  O   UNL     1       3.813   3.723  16.367  0.00  0.00    +0.000 OA
ATOM     17  O   UNL     1       3.975   2.582  18.624  0.00  0.00    +0.000 OA
BRANCH  15  18
ATOM     18  N   UNL     1       5.769   4.198  17.920  0.00  0.00    +0.000 NA
ATOM     19  H   UNL     1       6.350   3.357  17.983  0.00  0.00    +0.000 HD
BRANCH  18  20
ATOM     20  C   UNL     1       6.293   5.242  17.001  0.00  0.00    +0.000 C 
BRANCH  20  22
ATOM     21  C   UNL     1       7.427   5.778  19.238  0.00  0.00    +0.000 C 
ATOM     22  C   UNL     1       7.392   6.064  17.732  0.00  0.00    +0.000 C 
ATOM     23  C   UNL     1       7.218   7.574  17.521  0.00  0.00    +0.000 C 
ENDBRANCH  20  22
BRANCH  20  24
ATOM     24  C   UNL     1       6.923   4.576  15.769  0.00  0.00    +0.000 C 
ATOM     25  O   UNL     1       7.761   5.125  15.063  0.00  0.00    +0.000 OA
BRANCH  24  26
ATOM     26  O   UNL     1       6.440   3.343  15.491  0.00  0.00    +0.000 OA
ATOM     27  H   UNL     1       6.668   3.016  14.602  0.00  0.00    +0.000 HD
ENDBRANCH  24  26
ENDBRANCH  20  24
ENDBRANCH  18  20
ENDBRANCH  15  18
ENDBRANCH   1  15
TORSDOF 8
ENDMDL
MODEL 5
REMARK VINA RESULT:      -7.6      1.524      2.296
REMARK  Name = 
REMARK  10 active torsions:
REMARK  status: ('A' for Active; 'I' for Inactive)
REMARK    1  A    between atoms: C_1  and  C_2
REMARK    2  A    between atoms: C_2  and  C_3
REMARK    3  A    between atoms: C_2  and  C_4
REMARK    4  A    between atoms: C_4  and  N_5
REMARK    5  A    between atoms: C_4  and  C_23
REMARK    6  A    between atoms: N_5  and  S_6
REMARK    7  A    between atoms: S_6  and  C_9
REMARK    8  A    between atoms: C_12  and  C_13
REMARK    9  A    between atoms: C_16  and  C_17
REMARK   10  A    between atoms: C_23  and  O_25
REMARK                            x       y       z     vdW  Elec       q    Type
REMARK                         _______ _______ _______ _____ _____    ______ ____
ROOT
ATOM      1  C   UNL     1       2.551   6.083  19.324  0.00  0.00    +0.000 A 
ATOM      2  C   UNL     1       1.920   5.925  20.558  0.00  0.00    +0.000 A 
ATOM      3  C   UNL     1       1.262   7.009  21.145  0.00  0.00    +0.000 A 
ATOM      4  C   UNL     1       1.235   8.275  20.530  0.00  0.00    +0.000 A 
ATOM      5  C   UNL     1       1.886   8.399  19.283  0.00  0.00    +0.000 A 
ATOM      6  C   UNL     1       2.537   7.316  18.679  0.00  0.00    +0.000 A 
ENDROOT
BRANCH   4   7
ATOM      7  C   UNL     1       0.565   9.429  21.180  0.00  0.00    +0.000 A 
ATOM      8  C   UNL     1       0.660  10.731  20.648  0.00  0.00    +0.000 A 
ATOM      9  C   UNL     1       0.048  11.827  21.270  0.00  0.00    +0.000 A 
ATOM     10  C   UNL     1      -0.693  11.646  22.437  0.00  0.00    +0.000 A 
ATOM     11  C   UNL     1      -0.818  10.365  22.976  0.00  0.00    +0.000 A 
ATOM     12  C   UNL     1      -0.191   9.274  22.357  0.00  0.00    +0.000 A 
BRANCH  10  13
ATOM     13  C   UNL     1      -1.318  12.764  23.079  0.00  0.00    +0.000 C 
ATOM     14  N   UNL     1      -1.825  13.673  23.592  0.00  0.00    +0.000 NA
ENDBRANCH  10  13
ENDBRANCH   4   7
BRANCH   1  15
ATOM     15  S   UNL     1       3.462   4.731  18.635  0.00  0.00    +0.000 S 
ATOM     16  O   UNL     1       2.787   4.334  17.422  0.00  0.00    +0.000 OA
ATOM     17  O   UNL     1       3.733   3.804  19.713  0.00  0.00    +0.000 OA
BRANCH  15  18
ATOM     18  N   UNL     1       4.944   5.421  18.214  0.00  0.00    +0.000 NA
ATOM     19  H   UNL     1       5.377   5.814  19.055  0.00  0.00    +0.000 HD
BRANCH  18  20
ATOM     20  C   UNL     1       5.868   4.640  17.352  0.00  0.00    +0.000 C 
BRANCH  20  22
ATOM     21  C   UNL     1       5.096   6.579  15.861  0.00  0.00    +0.000 C 
ATOM     22  C   UNL     1       5.949   5.308  15.950  0.00  0.00    +0.000 C 
ATOM     23  C   UNL     1       5.523   4.349  14.830  0.00  0.00    +0.000 C 
ENDBRANCH  20  22
BRANCH  20  24
ATOM     24  C   UNL     1       7.274   4.638  17.971  0.00  0.00    +0.000 C 
ATOM     25  O   UNL     1       7.527   5.129  19.064  0.00  0.00    +0.000 OA
BRANCH  24  26
ATOM     26  O   UNL     1       8.230   4.089  17.186  0.00  0.00    +0.000 OA
ATOM     27  H   UNL     1       8.881   3.548  17.668  0.00  0.00    +0.000 HD
ENDBRANCH  24  26
ENDBRANCH  20  24
ENDBRANCH  18  20
ENDBRANCH  15  18
ENDBRANCH   1  15
TORSDOF 8
ENDMDL
MODEL 6
REMARK VINA RESULT:      -7.6      0.430      1.054
REMARK  Name = 
REMARK  10 active torsions:
REMARK  status: ('A' for Active; 'I' for Inactive)
REMARK    1  A    between atoms: C_1  and  C_2
REMARK    2  A    between atoms: C_2  and  C_3
REMARK    3  A    between atoms: C_2  and  C_4
REMARK    4  A    between atoms: C_4  and  N_5
REMARK    5  A    between atoms: C_4  and  C_23
REMARK    6  A    between atoms: N_5  and  S_6
REMARK    7  A    between atoms: S_6  and  C_9
REMARK    8  A    between atoms: C_12  and  C_13
REMARK    9  A    between atoms: C_16  and  C_17
REMARK   10  A    between atoms: C_23  and  O_25
REMARK                            x       y       z     vdW  Elec       q    Type
REMARK                         _______ _______ _______ _____ _____    ______ ____
ROOT
ATOM      1  C   UNL     1       3.383   5.141  18.752  0.00  0.00    +0.000 A 
ATOM      2  C   UNL     1       3.257   6.353  18.072  0.00  0.00    +0.000 A 
ATOM      3  C   UNL     1       2.598   7.424  18.680  0.00  0.00    +0.000 A 
ATOM      4  C   UNL     1       2.032   7.308  19.965  0.00  0.00    +0.000 A 
ATOM      5  C   UNL     1       2.177   6.067  20.622  0.00  0.00    +0.000 A 
ATOM      6  C   UNL     1       2.847   4.990  20.027  0.00  0.00    +0.000 A 
ENDROOT
BRANCH   4   7
ATOM      7  C   UNL     1       1.301   8.441  20.585  0.00  0.00    +0.000 A 
ATOM      8  C   UNL     1       1.058   8.488  21.973  0.00  0.00    +0.000 A 
ATOM      9  C   UNL     1       0.349   9.543  22.562  0.00  0.00    +0.000 A 
ATOM     10  C   UNL     1      -0.122  10.594  21.775  0.00  0.00    +0.000 A 
ATOM     11  C   UNL     1       0.120  10.581  20.401  0.00  0.00    +0.000 A 
ATOM     12  C   UNL     1       0.817   9.515  19.817  0.00  0.00    +0.000 A 
BRANCH  10  13
ATOM     13  C   UNL     1      -0.850  11.674  22.372  0.00  0.00    +0.000 C 
ATOM     14  N   UNL     1      -1.434  12.551  22.859  0.00  0.00    +0.000 NA
ENDBRANCH  10  13
ENDBRANCH   4   7
BRANCH   1  15
ATOM     15  S   UNL     1       4.135   3.762  17.935  0.00  0.00    +0.000 S 
ATOM     16  O   UNL     1       3.673   3.772  16.567  0.00  0.00    +0.000 OA
ATOM     17  O   UNL     1       3.978   2.615  18.801  0.00  0.00    +0.000 OA
BRANCH  15  18
ATOM     18  N   UNL     1       5.779   4.145  17.940  0.00  0.00    +0.000 NA
ATOM     19  H   UNL     1       6.318   3.294  17.756  0.00  0.00    +0.000 HD
BRANCH  18  20
ATOM     20  C   UNL     1       6.230   5.338  17.178  0.00  0.00    +0.000 C 
BRANCH  20  22
ATOM     21  C   UNL     1       7.430   5.730  19.410  0.00  0.00    +0.000 C 
ATOM     22  C   UNL     1       7.452   5.975  17.896  0.00  0.00    +0.000 C 
ATOM     23  C   UNL     1       7.547   7.486  17.642  0.00  0.00    +0.000 C 
ENDBRANCH  20  22
BRANCH  20  24
ATOM     24  C   UNL     1       6.662   4.915  15.766  0.00  0.00    +0.000 C 
ATOM     25  O   UNL     1       7.820   4.644  15.471  0.00  0.00    +0.000 OA
BRANCH  24  26
ATOM     26  O   UNL     1       5.664   4.912  14.853  0.00  0.00    +0.000 OA
ATOM     27  H   UNL     1       5.250   5.784  14.710  0.00  0.00    +0.000 HD
ENDBRANCH  24  26
ENDBRANCH  20  24
ENDBRANCH  18  20
ENDBRANCH  15  18
ENDBRANCH   1  15
TORSDOF 8
ENDMDL
MODEL 7
REMARK VINA RESULT:      -7.6      2.311      3.882
REMARK  Name = 
REMARK  10 active torsions:
REMARK  status: ('A' for Active; 'I' for Inactive)
REMARK    1  A    between atoms: C_1  and  C_2
REMARK    2  A    between atoms: C_2  and  C_3
REMARK    3  A    between atoms: C_2  and  C_4
REMARK    4  A    between atoms: C_4  and  N_5
REMARK    5  A    between atoms: C_4  and  C_23
REMARK    6  A    between atoms: N_5  and  S_6
REMARK    7  A    between atoms: S_6  and  C_9
REMARK    8  A    between atoms: C_12  and  C_13
REMARK    9  A    between atoms: C_16  and  C_17
REMARK   10  A    between atoms: C_23  and  O_25
REMARK                            x       y       z     vdW  Elec       q    Type
REMARK                         _______ _______ _______ _____ _____    ______ ____
ROOT
ATOM      1  C   UNL     1       3.664   6.285  18.467  0.00  0.00    +0.000 A 
ATOM      2  C   UNL     1       3.470   7.329  17.561  0.00  0.00    +0.000 A 
ATOM      3  C   UNL     1       2.568   8.351  17.865  0.00  0.00    +0.000 A 
ATOM      4  C   UNL     1       1.826   8.348  19.062  0.00  0.00    +0.000 A 
ATOM      5  C   UNL     1       2.047   7.276  19.953  0.00  0.00    +0.000 A 
ATOM      6  C   UNL     1       2.958   6.252  19.666  0.00  0.00    +0.000 A 
ENDROOT
BRANCH   4   7
ATOM      7  C   UNL     1       0.843   9.420  19.357  0.00  0.00    +0.000 A 
ATOM      8  C   UNL     1       0.598   9.853  20.676  0.00  0.00    +0.000 A 
ATOM      9  C   UNL     1      -0.344  10.848  20.963  0.00  0.00    +0.000 A 
ATOM     10  C   UNL     1      -1.060  11.453  19.929  0.00  0.00    +0.000 A 
ATOM     11  C   UNL     1      -0.825  11.056  18.612  0.00  0.00    +0.000 A 
ATOM     12  C   UNL     1       0.109  10.049  18.334  0.00  0.00    +0.000 A 
BRANCH  10  13
ATOM     13  C   UNL     1      -2.027  12.470  20.217  0.00  0.00    +0.000 C 
ATOM     14  N   UNL     1      -2.809  13.296  20.446  0.00  0.00    +0.000 NA
ENDBRANCH  10  13
ENDBRANCH   4   7
BRANCH   1  15
ATOM     15  S   UNL     1       4.738   4.946  18.030  0.00  0.00    +0.000 S 
ATOM     16  O   UNL     1       5.754   4.862  19.053  0.00  0.00    +0.000 OA
ATOM     17  O   UNL     1       5.058   5.094  16.628  0.00  0.00    +0.000 OA
BRANCH  15  18
ATOM     18  N   UNL     1       3.748   3.585  18.155  0.00  0.00    +0.000 NA
ATOM     19  H   UNL     1       4.016   2.913  17.430  0.00  0.00    +0.000 HD
BRANCH  18  20
ATOM     20  C   UNL     1       3.531   2.990  19.499  0.00  0.00    +0.000 C 
BRANCH  20  22
ATOM     21  C   UNL     1       1.169   3.119  18.509  0.00  0.00    +0.000 C 
ATOM     22  C   UNL     1       2.045   2.554  19.633  0.00  0.00    +0.000 C 
ATOM     23  C   UNL     1       1.443   2.969  20.983  0.00  0.00    +0.000 C 
ENDBRANCH  20  22
BRANCH  20  24
ATOM     24  C   UNL     1       4.418   1.747  19.662  0.00  0.00    +0.000 C 
ATOM     25  O   UNL     1       5.208   1.602  20.586  0.00  0.00    +0.000 OA
BRANCH  24  26
ATOM     26  O   UNL     1       4.294   0.837  18.667  0.00  0.00    +0.000 OA
ATOM     27  H   UNL     1       3.555   0.213  18.786  0.00  0.00    +0.000 HD
ENDBRANCH  24  26
ENDBRANCH  20  24
ENDBRANCH  18  20
ENDBRANCH  15  18
ENDBRANCH   1  15
TORSDOF 8
ENDMDL
MODEL 8
REMARK VINA RESULT:      -7.6      1.056      1.528
REMARK  Name = 
REMARK  10 active torsions:
REMARK  status: ('A' for Active; 'I' for Inactive)
REMARK    1  A    between atoms: C_1  and  C_2
REMARK    2  A    between atoms: C_2  and  C_3
REMARK    3  A    between atoms: C_2  and  C_4
REMARK    4  A    between atoms: C_4  and  N_5
REMARK    5  A    between atoms: C_4  and  C_23
REMARK    6  A    between atoms: N_5  and  S_6
REMARK    7  A    between atoms: S_6  and  C_9
REMARK    8  A    between atoms: C_12  and  C_13
REMARK    9  A    between atoms: C_16  and  C_17
REMARK   10  A    between atoms: C_23  and  O_25
REMARK                            x       y       z     vdW  Elec       q    Type
REMARK                         _______ _______ _______ _____ _____    ______ ____
ROOT
ATOM      1  C   UNL     1       3.604   5.073  18.931  0.00  0.00    +0.000 A 
ATOM      2  C   UNL     1       3.613   6.059  17.944  0.00  0.00    +0.000 A 
ATOM      3  C   UNL     1       2.910   7.250  18.146  0.00  0.00    +0.000 A 
ATOM      4  C   UNL     1       2.167   7.476  19.321  0.00  0.00    +0.000 A 
ATOM      5  C   UNL     1       2.179   6.456  20.297  0.00  0.00    +0.000 A 
ATOM      6  C   UNL     1       2.891   5.264  20.111  0.00  0.00    +0.000 A 
ENDROOT
BRANCH   4   7
ATOM      7  C   UNL     1       1.394   8.729  19.509  0.00  0.00    +0.000 A 
ATOM      8  C   UNL     1       0.919   9.118  20.778  0.00  0.00    +0.000 A 
ATOM      9  C   UNL     1       0.169  10.287  20.958  0.00  0.00    +0.000 A 
ATOM     10  C   UNL     1      -0.112  11.112  19.869  0.00  0.00    +0.000 A 
ATOM     11  C   UNL     1       0.361  10.760  18.605  0.00  0.00    +0.000 A 
ATOM     12  C   UNL     1       1.098   9.581  18.429  0.00  0.00    +0.000 A 
BRANCH  10  13
ATOM     13  C   UNL     1      -0.880  12.308  20.047  0.00  0.00    +0.000 C 
ATOM     14  N   UNL     1      -1.504  13.277  20.186  0.00  0.00    +0.000 NA
ENDBRANCH  10  13
ENDBRANCH   4   7
BRANCH   1  15
ATOM     15  S   UNL     1       4.418   3.531  18.624  0.00  0.00    +0.000 S 
ATOM     16  O   UNL     1       3.892   3.009  17.384  0.00  0.00    +0.000 OA
ATOM     17  O   UNL     1       4.389   2.779  19.859  0.00  0.00    +0.000 OA
BRANCH  15  18
ATOM     18  N   UNL     1       6.027   3.974  18.371  0.00  0.00    +0.000 NA
ATOM     19  H   UNL     1       6.585   3.127  18.228  0.00  0.00    +0.000 HD
BRANCH  18  20
ATOM     20  C   UNL     1       6.316   5.073  17.413  0.00  0.00    +0.000 C 
BRANCH  20  22
ATOM     21  C   UNL     1       7.672   5.796  19.466  0.00  0.00    +0.000 C 
ATOM     22  C   UNL     1       7.505   5.920  17.946  0.00  0.00    +0.000 C 
ATOM     23  C   UNL     1       7.362   7.405  17.585  0.00  0.00    +0.000 C 
ENDBRANCH  20  22
BRANCH  20  24
ATOM     24  C   UNL     1       6.712   4.480  16.052  0.00  0.00    +0.000 C 
ATOM     25  O   UNL     1       7.830   4.604  15.566  0.00  0.00    +0.000 OA
BRANCH  24  26
ATOM     26  O   UNL     1       5.708   3.846  15.404  0.00  0.00    +0.000 OA
ATOM     27  H   UNL     1       5.482   2.973  15.774  0.00  0.00    +0.000 HD
ENDBRANCH  24  26
ENDBRANCH  20  24
ENDBRANCH  18  20
ENDBRANCH  15  18
ENDBRANCH   1  15
TORSDOF 8
ENDMDL
MODEL 9
REMARK VINA RESULT:      -7.5      0.544      1.106
REMARK  Name = 
REMARK  10 active torsions:
REMARK  status: ('A' for Active; 'I' for Inactive)
REMARK    1  A    between atoms: C_1  and  C_2
REMARK    2  A    between atoms: C_2  and  C_3
REMARK    3  A    between atoms: C_2  and  C_4
REMARK    4  A    between atoms: C_4  and  N_5
REMARK    5  A    between atoms: C_4  and  C_23
REMARK    6  A    between atoms: N_5  and  S_6
REMARK    7  A    between atoms: S_6  and  C_9
REMARK    8  A    between atoms: C_12  and  C_13
REMARK    9  A    between atoms: C_16  and  C_17
REMARK   10  A    between atoms: C_23  and  O_25
REMARK                            x       y       z     vdW  Elec       q    Type
REMARK                         _______ _______ _______ _____ _____    ______ ____
ROOT
ATOM      1  C   UNL     1       3.425   4.974  18.794  0.00  0.00    +0.000 A 
ATOM      2  C   UNL     1       2.900   4.932  20.086  0.00  0.00    +0.000 A 
ATOM      3  C   UNL     1       2.228   6.046  20.597  0.00  0.00    +0.000 A 
ATOM      4  C   UNL     1       2.083   7.228  19.845  0.00  0.00    +0.000 A 
ATOM      5  C   UNL     1       2.629   7.234  18.543  0.00  0.00    +0.000 A 
ATOM      6  C   UNL     1       3.292   6.120  18.015  0.00  0.00    +0.000 A 
ENDROOT
BRANCH   4   7
ATOM      7  C   UNL     1       1.400   8.418  20.412  0.00  0.00    +0.000 A 
ATOM      8  C   UNL     1       1.010   9.500  19.599  0.00  0.00    +0.000 A 
ATOM      9  C   UNL     1       0.386  10.636  20.132  0.00  0.00    +0.000 A 
ATOM     10  C   UNL     1       0.118  10.710  21.499  0.00  0.00    +0.000 A 
ATOM     11  C   UNL     1       0.479   9.645  22.324  0.00  0.00    +0.000 A 
ATOM     12  C   UNL     1       1.116   8.519  21.787  0.00  0.00    +0.000 A 
BRANCH  10  13
ATOM     13  C   UNL     1      -0.517  11.870  22.049  0.00  0.00    +0.000 C 
ATOM     14  N   UNL     1      -1.033  12.807  22.500  0.00  0.00    +0.000 NA
ENDBRANCH  10  13
ENDBRANCH   4   7
BRANCH   1  15
ATOM     15  S   UNL     1       4.356   3.593  18.192  0.00  0.00    +0.000 S 
ATOM     16  O   UNL     1       3.984   3.397  16.809  0.00  0.00    +0.000 OA
ATOM     17  O   UNL     1       4.251   2.543  19.180  0.00  0.00    +0.000 OA
BRANCH  15  18
ATOM     18  N   UNL     1       5.952   4.138  18.238  0.00  0.00    +0.000 NA
ATOM     19  H   UNL     1       6.579   3.338  18.112  0.00  0.00    +0.000 HD
BRANCH  18  20
ATOM     20  C   UNL     1       6.313   5.337  17.438  0.00  0.00    +0.000 C 
BRANCH  20  22
ATOM     21  C   UNL     1       7.662   5.776  19.575  0.00  0.00    +0.000 C 
ATOM     22  C   UNL     1       7.567   6.012  18.063  0.00  0.00    +0.000 C 
ATOM     23  C   UNL     1       7.600   7.524  17.797  0.00  0.00    +0.000 C 
ENDBRANCH  20  22
BRANCH  20  24
ATOM     24  C   UNL     1       6.654   4.916  16.001  0.00  0.00    +0.000 C 
ATOM     25  O   UNL     1       7.775   4.571  15.650  0.00  0.00    +0.000 OA
BRANCH  24  26
ATOM     26  O   UNL     1       5.619   5.003  15.133  0.00  0.00    +0.000 OA
ATOM     27  H   UNL     1       5.878   4.935  14.196  0.00  0.00    +0.000 HD
ENDBRANCH  24  26
ENDBRANCH  20  24
ENDBRANCH  18  20
ENDBRANCH  15  18
ENDBRANCH   1  15
TORSDOF 8
ENDMDL
