MODEL 1
REMARK VINA RESULT:      -9.2      0.000      0.000
REMARK  Name = 
REMARK  6 active torsions:
REMARK  status: ('A' for Active; 'I' for Inactive)
REMARK    1  A    between atoms: C_1  and  C_2
REMARK    2  A    between atoms: C_8  and  C_9
REMARK    3  A    between atoms: C_9  and  N_10
REMARK    4  A    between atoms: C_11  and  C_13
REMARK    5  A    between atoms: C_15  and  N_16
REMARK    6  A    between atoms: N_21  and  C_22
REMARK                            x       y       z     vdW  Elec       q    Type
REMARK                         _______ _______ _______ _____ _____    ______ ____
ROOT
ATOM      1  C   UNL     1       0.537   9.777  19.012  0.00  0.00    +0.000 C 
ATOM      2  C   UNL     1      -0.534  10.540  19.807  0.00  0.00    +0.000 C 
ATOM      3  C   UNL     1      -0.010  10.519  21.248  0.00  0.00    +0.000 C 
ATOM      4  C   UNL     1       0.590   9.113  21.331  0.00  0.00    +0.000 C 
ATOM      5  N   UNL     1       1.160   8.897  20.012  0.00  0.00    +0.000 N 
ATOM      6  C   UNL     1       1.943   7.783  19.782  0.00  0.00    +0.000 C 
ATOM      7  O   UNL     1       2.110   6.942  20.661  0.00  0.00    +0.000 OA
ATOM      8  N   UNL     1       2.490   7.734  18.523  0.00  0.00    +0.000 N 
ATOM      9  H   UNL     1       2.603   8.616  18.046  0.00  0.00    +0.000 HD
ENDROOT
BRANCH   8  10
ATOM     10  C   UNL     1       3.231   6.684  18.006  0.00  0.00    +0.000 A 
ATOM     11  C   UNL     1       4.473   6.751  17.437  0.00  0.00    +0.000 A 
ATOM     12  N   UNL     1       4.894   5.476  17.104  0.00  0.00    +0.000 N 
ATOM     13  C   UNL     1       6.133   5.153  16.530  0.00  0.00    +0.000 C 
ATOM     14  N   UNL     1       6.505   6.052  15.571  0.00  0.00    +0.000 N 
ATOM     15  O   UNL     1       6.739   4.136  16.835  0.00  0.00    +0.000 OA
ATOM     16  C   UNL     1       3.873   4.583  17.427  0.00  0.00    +0.000 A 
ATOM     17  C   UNL     1       3.774   3.195  17.212  0.00  0.00    +0.000 A 
ATOM     18  C   UNL     1       2.582   2.556  17.562  0.00  0.00    +0.000 A 
ATOM     19  C   UNL     1       1.527   3.266  18.124  0.00  0.00    +0.000 A 
ATOM     20  C   UNL     1       1.638   4.644  18.343  0.00  0.00    +0.000 A 
ATOM     21  C   UNL     1       2.819   5.321  17.972  0.00  0.00    +0.000 A 
ATOM     22  H   UNL     1       5.810   6.646  15.131  0.00  0.00    +0.000 HD
ATOM     23  H   UNL     1       7.315   5.811  15.016  0.00  0.00    +0.000 HD
ENDBRANCH   8  10
BRANCH   1  25
ATOM     24  N   UNL     1       1.304  12.081  18.603  0.00  0.00    +0.000 N 
ATOM     25  C   UNL     1       1.536  10.749  18.346  0.00  0.00    +0.000 C 
ATOM     26  O   UNL     1       2.425  10.368  17.590  0.00  0.00    +0.000 OA
ATOM     27  H   UNL     1       0.461  12.368  19.083  0.00  0.00    +0.000 HD
BRANCH  24  28
ATOM     28  C   UNL     1       2.174  13.123  18.100  0.00  0.00    +0.000 C 
BRANCH  28  36
ATOM     29  C   UNL     1       3.738  15.701  17.646  0.00  0.00    +0.000 C 
ATOM     30  C   UNL     1       2.384  15.680  18.303  0.00  0.00    +0.000 A 
ATOM     31  C   UNL     1       1.834  16.898  18.740  0.00  0.00    +0.000 A 
ATOM     32  C   UNL     1       0.591  16.944  19.372  0.00  0.00    +0.000 A 
ATOM     33  C   UNL     1      -0.118  15.767  19.576  0.00  0.00    +0.000 A 
ATOM     34 CL   UNL     1      -1.654  15.814  20.346  0.00  0.00    +0.000 Cl
ATOM     35  C   UNL     1       0.412  14.549  19.157  0.00  0.00    +0.000 A 
ATOM     36  C   UNL     1       1.665  14.483  18.513  0.00  0.00    +0.000 A 
ENDBRANCH  28  36
ENDBRANCH  24  28
ENDBRANCH   1  25
BRANCH   3  37
ATOM     37  N   UNL     1       1.002  11.567  21.445  0.00  0.00    +0.000 NA
ATOM     38  H   UNL     1       1.313  11.921  20.533  0.00  0.00    +0.000 HD
ATOM     39  H   UNL     1       1.846  11.142  21.835  0.00  0.00    +0.000 HD
ENDBRANCH   3  37
TORSDOF 5
ENDMDL
MODEL 2
REMARK VINA RESULT:      -8.9      1.508      2.349
REMARK  Name = 
REMARK  6 active torsions:
REMARK  status: ('A' for Active; 'I' for Inactive)
REMARK    1  A    between atoms: C_1  and  C_2
REMARK    2  A    between atoms: C_8  and  C_9
REMARK    3  A    between atoms: C_9  and  N_10
REMARK    4  A    between atoms: C_11  and  C_13
REMARK    5  A    between atoms: C_15  and  N_16
REMARK    6  A    between atoms: N_21  and  C_22
REMARK                            x       y       z     vdW  Elec       q    Type
REMARK                         _______ _______ _______ _____ _____    ______ ____
ROOT
ATOM      1  C   UNL     1       0.524   9.812  19.158  0.00  0.00    +0.000 C 
ATOM      2  C   UNL     1      -0.452  10.822  19.781  0.00  0.00    +0.000 C 
ATOM      3  C   UNL     1       0.023  10.948  21.234  0.00  0.00    +0.000 C 
ATOM      4  C   UNL     1       0.419   9.504  21.549  0.00  0.00    +0.000 C 
ATOM      5  N   UNL     1       0.990   9.017  20.305  0.00  0.00    +0.000 N 
ATOM      6  C   UNL     1       1.617   7.787  20.278  0.00  0.00    +0.000 C 
ATOM      7  O   UNL     1       1.641   7.073  21.276  0.00  0.00    +0.000 OA
ATOM      8  N   UNL     1       2.187   7.477  19.067  0.00  0.00    +0.000 N 
ATOM      9  H   UNL     1       2.435   8.253  18.473  0.00  0.00    +0.000 HD
ENDROOT
BRANCH   8  10
ATOM     10  C   UNL     1       2.790   6.271  18.745  0.00  0.00    +0.000 A 
ATOM     11  C   UNL     1       2.618   5.068  19.370  0.00  0.00    +0.000 A 
ATOM     12  N   UNL     1       3.347   4.098  18.706  0.00  0.00    +0.000 N 
ATOM     13  C   UNL     1       3.387   2.736  19.045  0.00  0.00    +0.000 C 
ATOM     14  N   UNL     1       3.442   2.544  20.397  0.00  0.00    +0.000 N 
ATOM     15  O   UNL     1       3.437   1.862  18.192  0.00  0.00    +0.000 OA
ATOM     16  C   UNL     1       4.038   4.711  17.661  0.00  0.00    +0.000 A 
ATOM     17  C   UNL     1       4.971   4.182  16.751  0.00  0.00    +0.000 A 
ATOM     18  C   UNL     1       5.583   5.057  15.849  0.00  0.00    +0.000 A 
ATOM     19  C   UNL     1       5.266   6.411  15.837  0.00  0.00    +0.000 A 
ATOM     20  C   UNL     1       4.329   6.926  16.740  0.00  0.00    +0.000 A 
ATOM     21  C   UNL     1       3.717   6.071  17.682  0.00  0.00    +0.000 A 
ATOM     22  H   UNL     1       3.753   3.293  21.006  0.00  0.00    +0.000 HD
ATOM     23  H   UNL     1       3.613   1.599  20.711  0.00  0.00    +0.000 HD
ENDBRANCH   8  10
BRANCH   1  25
ATOM     24  N   UNL     1       1.655  11.902  18.516  0.00  0.00    +0.000 N 
ATOM     25  C   UNL     1       1.666  10.530  18.408  0.00  0.00    +0.000 C 
ATOM     26  O   UNL     1       2.480   9.930  17.711  0.00  0.00    +0.000 OA
ATOM     27  H   UNL     1       0.871  12.372  18.949  0.00  0.00    +0.000 HD
BRANCH  24  28
ATOM     28  C   UNL     1       2.682  12.728  17.917  0.00  0.00    +0.000 C 
BRANCH  28  36
ATOM     29  C   UNL     1       4.873  14.846  17.795  0.00  0.00    +0.000 C 
ATOM     30  C   UNL     1       3.455  15.169  18.179  0.00  0.00    +0.000 A 
ATOM     31  C   UNL     1       3.139  16.498  18.513  0.00  0.00    +0.000 A 
ATOM     32  C   UNL     1       1.846  16.859  18.895  0.00  0.00    +0.000 A 
ATOM     33  C   UNL     1       0.851  15.892  18.948  0.00  0.00    +0.000 A 
ATOM     34 CL   UNL     1      -0.746  16.327  19.409  0.00  0.00    +0.000 Cl
ATOM     35  C   UNL     1       1.144  14.568  18.628  0.00  0.00    +0.000 A 
ATOM     36  C   UNL     1       2.444  14.184  18.237  0.00  0.00    +0.000 A 
ENDBRANCH  28  36
ENDBRANCH  24  28
ENDBRANCH   1  25
BRANCH   3  37
ATOM     37  N   UNL     1       1.165  11.870  21.325  0.00  0.00    +0.000 NA
ATOM     38  H   UNL     1       1.156  12.341  22.237  0.00  0.00    +0.000 HD
ATOM     39  H   UNL     1       1.027  12.634  20.660  0.00  0.00    +0.000 HD
ENDBRANCH   3  37
TORSDOF 5
ENDMDL
MODEL 3
REMARK VINA RESULT:      -8.7      1.540      1.788
REMARK  Name = 
REMARK  6 active torsions:
REMARK  status: ('A' for Active; 'I' for Inactive)
REMARK    1  A    between atoms: C_1  and  C_2
REMARK    2  A    between atoms: C_8  and  C_9
REMARK    3  A    between atoms: C_9  and  N_10
REMARK    4  A    between atoms: C_11  and  C_13
REMARK    5  A    between atoms: C_15  and  N_16
REMARK    6  A    between atoms: N_21  and  C_22
REMARK                            x       y       z     vdW  Elec       q    Type
REMARK                         _______ _______ _______ _____ _____    ______ ____
ROOT
ATOM      1  C   UNL     1       0.365   9.714  19.132  0.00  0.00    +0.000 C 
ATOM      2  C   UNL     1      -0.722  10.441  19.938  0.00  0.00    +0.000 C 
ATOM      3  C   UNL     1      -0.170  10.460  21.369  0.00  0.00    +0.000 C 
ATOM      4  C   UNL     1       0.490   9.081  21.457  0.00  0.00    +0.000 C 
ATOM      5  N   UNL     1       1.043   8.873  20.130  0.00  0.00    +0.000 N 
ATOM      6  C   UNL     1       1.868   7.790  19.897  0.00  0.00    +0.000 C 
ATOM      7  O   UNL     1       2.088   6.967  20.782  0.00  0.00    +0.000 OA
ATOM      8  N   UNL     1       2.393   7.749  18.629  0.00  0.00    +0.000 N 
ATOM      9  H   UNL     1       2.460   8.628  18.139  0.00  0.00    +0.000 HD
ENDROOT
BRANCH   8  10
ATOM     10  C   UNL     1       3.169   6.725  18.109  0.00  0.00    +0.000 A 
ATOM     11  C   UNL     1       4.427   6.826  17.584  0.00  0.00    +0.000 A 
ATOM     12  N   UNL     1       4.880   5.567  17.233  0.00  0.00    +0.000 N 
ATOM     13  C   UNL     1       6.142   5.279  16.692  0.00  0.00    +0.000 C 
ATOM     14  N   UNL     1       6.530   6.209  15.768  0.00  0.00    +0.000 N 
ATOM     15  O   UNL     1       6.754   4.264  16.990  0.00  0.00    +0.000 OA
ATOM     16  C   UNL     1       3.865   4.649  17.498  0.00  0.00    +0.000 A 
ATOM     17  C   UNL     1       3.796   3.267  17.245  0.00  0.00    +0.000 A 
ATOM     18  C   UNL     1       2.603   2.600  17.539  0.00  0.00    +0.000 A 
ATOM     19  C   UNL     1       1.519   3.278  18.084  0.00  0.00    +0.000 A 
ATOM     20  C   UNL     1       1.600   4.651  18.342  0.00  0.00    +0.000 A 
ATOM     21  C   UNL     1       2.781   5.356  18.028  0.00  0.00    +0.000 A 
ATOM     22  H   UNL     1       5.840   6.803  15.321  0.00  0.00    +0.000 HD
ATOM     23  H   UNL     1       7.361   5.994  15.235  0.00  0.00    +0.000 HD
ENDBRANCH   8  10
BRANCH   1  25
ATOM     24  N   UNL     1       1.006  12.043  18.655  0.00  0.00    +0.000 N 
ATOM     25  C   UNL     1       1.309  10.718  18.436  0.00  0.00    +0.000 C 
ATOM     26  O   UNL     1       2.217  10.364  17.688  0.00  0.00    +0.000 OA
ATOM     27  H   UNL     1       0.150  12.297  19.129  0.00  0.00    +0.000 HD
BRANCH  24  28
ATOM     28  C   UNL     1       1.819  13.115  18.120  0.00  0.00    +0.000 C 
BRANCH  28  36
ATOM     29  C   UNL     1       0.120  15.603  18.590  0.00  0.00    +0.000 C 
ATOM     30  C   UNL     1       1.338  15.286  19.415  0.00  0.00    +0.000 A 
ATOM     31  C   UNL     1       1.712  16.188  20.428  0.00  0.00    +0.000 A 
ATOM     32  C   UNL     1       2.841  15.959  21.217  0.00  0.00    +0.000 A 
ATOM     33  C   UNL     1       3.610  14.825  21.000  0.00  0.00    +0.000 A 
ATOM     34 CL   UNL     1       4.998  14.530  21.971  0.00  0.00    +0.000 Cl
ATOM     35  C   UNL     1       3.262  13.922  19.997  0.00  0.00    +0.000 A 
ATOM     36  C   UNL     1       2.123  14.134  19.192  0.00  0.00    +0.000 A 
ENDBRANCH  28  36
ENDBRANCH  24  28
ENDBRANCH   1  25
BRANCH   3  37
ATOM     37  N   UNL     1       0.801  11.551  21.534  0.00  0.00    +0.000 NA
ATOM     38  H   UNL     1       0.982  11.991  20.625  0.00  0.00    +0.000 HD
ATOM     39  H   UNL     1       1.706  11.152  21.790  0.00  0.00    +0.000 HD
ENDBRANCH   3  37
TORSDOF 5
ENDMDL
MODEL 4
REMARK VINA RESULT:      -8.5      1.977      2.751
REMARK  Name = 
REMARK  6 active torsions:
REMARK  status: ('A' for Active; 'I' for Inactive)
REMARK    1  A    between atoms: C_1  and  C_2
REMARK    2  A    between atoms: C_8  and  C_9
REMARK    3  A    between atoms: C_9  and  N_10
REMARK    4  A    between atoms: C_11  and  C_13
REMARK    5  A    between atoms: C_15  and  N_16
REMARK    6  A    between atoms: N_21  and  C_22
REMARK                            x       y       z     vdW  Elec       q    Type
REMARK                         _______ _______ _______ _____ _____    ______ ____
ROOT
ATOM      1  C   UNL     1       0.213  10.328  19.428  0.00  0.00    +0.000 C 
ATOM      2  C   UNL     1      -0.697  11.485  19.867  0.00  0.00    +0.000 C 
ATOM      3  C   UNL     1      -0.246  11.785  21.302  0.00  0.00    +0.000 C 
ATOM      4  C   UNL     1       0.029  10.376  21.833  0.00  0.00    +0.000 C 
ATOM      5  N   UNL     1       0.590   9.675  20.691  0.00  0.00    +0.000 N 
ATOM      6  C   UNL     1       1.120   8.411  20.860  0.00  0.00    +0.000 C 
ATOM      7  O   UNL     1       1.066   7.849  21.950  0.00  0.00    +0.000 OA
ATOM      8  N   UNL     1       1.692   7.888  19.726  0.00  0.00    +0.000 N 
ATOM      9  H   UNL     1       2.013   8.551  19.036  0.00  0.00    +0.000 HD
ENDROOT
BRANCH   8  10
ATOM     10  C   UNL     1       2.207   6.608  19.598  0.00  0.00    +0.000 A 
ATOM     11  C   UNL     1       1.899   5.514  20.357  0.00  0.00    +0.000 A 
ATOM     12  N   UNL     1       2.579   4.412  19.870  0.00  0.00    +0.000 N 
ATOM     13  C   UNL     1       2.483   3.108  20.379  0.00  0.00    +0.000 C 
ATOM     14  N   UNL     1       2.445   3.090  21.745  0.00  0.00    +0.000 N 
ATOM     15  O   UNL     1       2.506   2.128  19.648  0.00  0.00    +0.000 OA
ATOM     16  C   UNL     1       3.377   4.828  18.806  0.00  0.00    +0.000 A 
ATOM     17  C   UNL     1       4.312   4.115  18.033  0.00  0.00    +0.000 A 
ATOM     18  C   UNL     1       5.046   4.814  17.072  0.00  0.00    +0.000 A 
ATOM     19  C   UNL     1       4.847   6.175  16.869  0.00  0.00    +0.000 A 
ATOM     20  C   UNL     1       3.908   6.875  17.635  0.00  0.00    +0.000 A 
ATOM     21  C   UNL     1       3.173   6.200  18.633  0.00  0.00    +0.000 A 
ATOM     22  H   UNL     1       2.784   3.885  22.276  0.00  0.00    +0.000 HD
ATOM     23  H   UNL     1       2.517   2.184  22.186  0.00  0.00    +0.000 HD
ENDBRANCH   8  10
BRANCH   1  25
ATOM     24  N   UNL     1       1.504  12.215  18.514  0.00  0.00    +0.000 N 
ATOM     25  C   UNL     1       1.424  10.845  18.622  0.00  0.00    +0.000 C 
ATOM     26  O   UNL     1       2.216  10.092  18.061  0.00  0.00    +0.000 OA
ATOM     27  H   UNL     1       0.741  12.796  18.836  0.00  0.00    +0.000 HD
BRANCH  24  28
ATOM     28  C   UNL     1       2.603  12.868  17.837  0.00  0.00    +0.000 C 
BRANCH  28  36
ATOM     29  C   UNL     1       5.172  14.512  17.825  0.00  0.00    +0.000 C 
ATOM     30  C   UNL     1       3.836  15.100  18.190  0.00  0.00    +0.000 A 
ATOM     31  C   UNL     1       3.781  16.456  18.558  0.00  0.00    +0.000 A 
ATOM     32  C   UNL     1       2.576  17.057  18.924  0.00  0.00    +0.000 A 
ATOM     33  C   UNL     1       1.409  16.305  18.927  0.00  0.00    +0.000 A 
ATOM     34 CL   UNL     1      -0.082  17.037  19.369  0.00  0.00    +0.000 Cl
ATOM     35  C   UNL     1       1.442  14.958  18.573  0.00  0.00    +0.000 A 
ATOM     36  C   UNL     1       2.650  14.334  18.196  0.00  0.00    +0.000 A 
ENDBRANCH  28  36
ENDBRANCH  24  28
ENDBRANCH   1  25
BRANCH   3  37
ATOM     37  N   UNL     1       0.961  12.624  21.300  0.00  0.00    +0.000 NA
ATOM     38  H   UNL     1       1.726  12.128  21.773  0.00  0.00    +0.000 HD
ATOM     39  H   UNL     1       0.799  13.437  21.898  0.00  0.00    +0.000 HD
ENDBRANCH   3  37
TORSDOF 5
ENDMDL
MODEL 5
REMARK VINA RESULT:      -8.3      4.348      9.046
REMARK  Name = 
REMARK  6 active torsions:
REMARK  status: ('A' for Active; 'I' for Inactive)
REMARK    1  A    between atoms: C_1  and  C_2
REMARK    2  A    between atoms: C_8  and  C_9
REMARK    3  A    between atoms: C_9  and  N_10
REMARK    4  A    between atoms: C_11  and  C_13
REMARK    5  A    between atoms: C_15  and  N_16
REMARK    6  A    between atoms: N_21  and  C_22
REMARK                            x       y       z     vdW  Elec       q    Type
REMARK                         _______ _______ _______ _____ _____    ______ ____
ROOT
ATOM      1  C   UNL     1       4.165   3.609  20.172  0.00  0.00    +0.000 C 
ATOM      2  C   UNL     1       4.446   2.102  20.068  0.00  0.00    +0.000 C 
ATOM      3  C   UNL     1       3.583   1.646  18.885  0.00  0.00    +0.000 C 
ATOM      4  C   UNL     1       2.322   2.491  19.087  0.00  0.00    +0.000 C 
ATOM      5  N   UNL     1       2.828   3.762  19.578  0.00  0.00    +0.000 N 
ATOM      6  C   UNL     1       1.968   4.835  19.706  0.00  0.00    +0.000 C 
ATOM      7  O   UNL     1       0.770   4.710  19.468  0.00  0.00    +0.000 OA
ATOM      8  N   UNL     1       2.581   5.999  20.099  0.00  0.00    +0.000 N 
ATOM      9  H   UNL     1       3.565   6.082  19.896  0.00  0.00    +0.000 HD
ENDROOT
BRANCH   8  10
ATOM     10  C   UNL     1       1.937   7.191  20.393  0.00  0.00    +0.000 A 
ATOM     11  C   UNL     1       1.283   7.514  21.549  0.00  0.00    +0.000 A 
ATOM     12  N   UNL     1       0.832   8.819  21.471  0.00  0.00    +0.000 N 
ATOM     13  C   UNL     1       0.145   9.503  22.486  0.00  0.00    +0.000 C 
ATOM     14  N   UNL     1      -0.774   8.709  23.111  0.00  0.00    +0.000 N 
ATOM     15  O   UNL     1       0.332  10.692  22.701  0.00  0.00    +0.000 OA
ATOM     16  C   UNL     1       1.166   9.321  20.215  0.00  0.00    +0.000 A 
ATOM     17  C   UNL     1       0.863  10.558  19.617  0.00  0.00    +0.000 A 
ATOM     18  C   UNL     1       1.256  10.766  18.291  0.00  0.00    +0.000 A 
ATOM     19  C   UNL     1       1.944   9.784  17.587  0.00  0.00    +0.000 A 
ATOM     20  C   UNL     1       2.250   8.561  18.192  0.00  0.00    +0.000 A 
ATOM     21  C   UNL     1       1.840   8.312  19.520  0.00  0.00    +0.000 A 
ATOM     22  H   UNL     1      -1.119   7.870  22.655  0.00  0.00    +0.000 HD
ATOM     23  H   UNL     1      -1.403   9.168  23.755  0.00  0.00    +0.000 HD
ENDBRANCH   8  10
BRANCH   1  25
ATOM     24  N   UNL     1       5.983   3.727  18.514  0.00  0.00    +0.000 N 
ATOM     25  C   UNL     1       5.253   4.430  19.446  0.00  0.00    +0.000 C 
ATOM     26  O   UNL     1       5.497   5.601  19.728  0.00  0.00    +0.000 OA
ATOM     27  H   UNL     1       5.875   2.724  18.435  0.00  0.00    +0.000 HD
BRANCH  24  28
ATOM     28  C   UNL     1       7.006   4.356  17.707  0.00  0.00    +0.000 C 
BRANCH  28  36
ATOM     29  C   UNL     1       5.697   7.059  17.180  0.00  0.00    +0.000 C 
ATOM     30  C   UNL     1       5.843   6.008  16.114  0.00  0.00    +0.000 A 
ATOM     31  C   UNL     1       5.336   6.283  14.831  0.00  0.00    +0.000 A 
ATOM     32  C   UNL     1       5.424   5.343  13.802  0.00  0.00    +0.000 A 
ATOM     33  C   UNL     1       6.022   4.114  14.047  0.00  0.00    +0.000 A 
ATOM     34 CL   UNL     1       6.144   2.953  12.785  0.00  0.00    +0.000 Cl
ATOM     35  C   UNL     1       6.525   3.819  15.312  0.00  0.00    +0.000 A 
ATOM     36  C   UNL     1       6.448   4.757  16.363  0.00  0.00    +0.000 A 
ENDBRANCH  28  36
ENDBRANCH  24  28
ENDBRANCH   1  25
BRANCH   3  37
ATOM     37  N   UNL     1       4.253   1.943  17.611  0.00  0.00    +0.000 NA
ATOM     38  H   UNL     1       4.934   2.699  17.749  0.00  0.00    +0.000 HD
ATOM     39  H   UNL     1       3.572   2.351  16.967  0.00  0.00    +0.000 HD
ENDBRANCH   3  37
TORSDOF 5
ENDMDL
MODEL 6
REMARK VINA RESULT:      -8.3      1.978      2.904
REMARK  Name = 
REMARK  6 active torsions:
REMARK  status: ('A' for Active; 'I' for Inactive)
REMARK    1  A    between atoms: C_1  and  C_2
REMARK    2  A    between atoms: C_8  and  C_9
REMARK    3  A    between atoms: C_9  and  N_10
REMARK    4  A    between atoms: C_11  and  C_13
REMARK    5  A    between atoms: C_15  and  N_16
REMARK    6  A    between atoms: N_21  and  C_22
REMARK                            x       y       z     vdW  Elec       q    Type
REMARK                         _______ _______ _______ _____ _____    ______ ____
ROOT
ATOM      1  C   UNL     1       0.445   9.824  19.302  0.00  0.00    +0.000 C 
ATOM      2  C   UNL     1      -0.478  10.844  19.986  0.00  0.00    +0.000 C 
ATOM      3  C   UNL     1       0.127  11.009  21.386  0.00  0.00    +0.000 C 
ATOM      4  C   UNL     1       0.561   9.575  21.699  0.00  0.00    +0.000 C 
ATOM      5  N   UNL     1       1.020   9.061  20.420  0.00  0.00    +0.000 N 
ATOM      6  C   UNL     1       1.651   7.833  20.365  0.00  0.00    +0.000 C 
ATOM      7  O   UNL     1       1.772   7.145  21.375  0.00  0.00    +0.000 OA
ATOM      8  N   UNL     1       2.110   7.496  19.116  0.00  0.00    +0.000 N 
ATOM      9  H   UNL     1       2.297   8.259  18.482  0.00  0.00    +0.000 HD
ENDROOT
BRANCH   8  10
ATOM     10  C   UNL     1       2.691   6.287  18.769  0.00  0.00    +0.000 A 
ATOM     11  C   UNL     1       2.475   5.069  19.352  0.00  0.00    +0.000 A 
ATOM     12  N   UNL     1       3.195   4.102  18.675  0.00  0.00    +0.000 N 
ATOM     13  C   UNL     1       3.193   2.730  18.971  0.00  0.00    +0.000 C 
ATOM     14  N   UNL     1       3.213   2.496  20.317  0.00  0.00    +0.000 N 
ATOM     15  O   UNL     1       3.241   1.882  18.092  0.00  0.00    +0.000 OA
ATOM     16  C   UNL     1       3.924   4.729  17.665  0.00  0.00    +0.000 A 
ATOM     17  C   UNL     1       4.864   4.205  16.759  0.00  0.00    +0.000 A 
ATOM     18  C   UNL     1       5.517   5.092  15.898  0.00  0.00    +0.000 A 
ATOM     19  C   UNL     1       5.234   6.453  15.922  0.00  0.00    +0.000 A 
ATOM     20  C   UNL     1       4.290   6.964  16.819  0.00  0.00    +0.000 A 
ATOM     21  C   UNL     1       3.637   6.096  17.721  0.00  0.00    +0.000 A 
ATOM     22  H   UNL     1       3.529   3.217  20.957  0.00  0.00    +0.000 HD
ATOM     23  H   UNL     1       3.354   1.537  20.605  0.00  0.00    +0.000 HD
ENDBRANCH   8  10
BRANCH   1  25
ATOM     24  N   UNL     1       1.494  11.904  18.505  0.00  0.00    +0.000 N 
ATOM     25  C   UNL     1       1.508  10.530  18.433  0.00  0.00    +0.000 C 
ATOM     26  O   UNL     1       2.262   9.917  17.682  0.00  0.00    +0.000 OA
ATOM     27  H   UNL     1       0.747  12.380  18.993  0.00  0.00    +0.000 HD
BRANCH  24  28
ATOM     28  C   UNL     1       2.456  12.720  17.794  0.00  0.00    +0.000 C 
BRANCH  28  36
ATOM     29  C   UNL     1      -0.059  14.213  18.658  0.00  0.00    +0.000 C 
ATOM     30  C   UNL     1       1.316  14.816  18.759  0.00  0.00    +0.000 A 
ATOM     31  C   UNL     1       1.436  16.127  19.254  0.00  0.00    +0.000 A 
ATOM     32  C   UNL     1       2.681  16.749  19.357  0.00  0.00    +0.000 A 
ATOM     33  C   UNL     1       3.823  16.065  18.963  0.00  0.00    +0.000 A 
ATOM     34 CL   UNL     1       5.362  16.820  19.092  0.00  0.00    +0.000 Cl
ATOM     35  C   UNL     1       3.726  14.768  18.463  0.00  0.00    +0.000 A 
ATOM     36  C   UNL     1       2.477  14.122  18.356  0.00  0.00    +0.000 A 
ENDBRANCH  28  36
ENDBRANCH  24  28
ENDBRANCH   1  25
BRANCH   3  37
ATOM     37  N   UNL     1       1.265  11.939  21.350  0.00  0.00    +0.000 NA
ATOM     38  H   UNL     1       0.974  12.823  20.918  0.00  0.00    +0.000 HD
ATOM     39  H   UNL     1       1.967  11.577  20.700  0.00  0.00    +0.000 HD
ENDBRANCH   3  37
TORSDOF 5
ENDMDL
MODEL 7
REMARK VINA RESULT:      -7.8      2.413      3.310
REMARK  Name = 
REMARK  6 active torsions:
REMARK  status: ('A' for Active; 'I' for Inactive)
REMARK    1  A    between atoms: C_1  and  C_2
REMARK    2  A    between atoms: C_8  and  C_9
REMARK    3  A    between atoms: C_9  and  N_10
REMARK    4  A    between atoms: C_11  and  C_13
REMARK    5  A    between atoms: C_15  and  N_16
REMARK    6  A    between atoms: N_21  and  C_22
REMARK                            x       y       z     vdW  Elec       q    Type
REMARK                         _______ _______ _______ _____ _____    ______ ____
ROOT
ATOM      1  C   UNL     1      -0.026  10.569  19.697  0.00  0.00    +0.000 C 
ATOM      2  C   UNL     1      -0.923  11.712  20.196  0.00  0.00    +0.000 C 
ATOM      3  C   UNL     1      -0.363  12.043  21.585  0.00  0.00    +0.000 C 
ATOM      4  C   UNL     1      -0.010  10.649  22.109  0.00  0.00    +0.000 C 
ATOM      5  N   UNL     1       0.470   9.944  20.933  0.00  0.00    +0.000 N 
ATOM      6  C   UNL     1       1.043   8.695  21.073  0.00  0.00    +0.000 C 
ATOM      7  O   UNL     1       1.094   8.148  22.171  0.00  0.00    +0.000 OA
ATOM      8  N   UNL     1       1.532   8.170  19.902  0.00  0.00    +0.000 N 
ATOM      9  H   UNL     1       1.779   8.829  19.179  0.00  0.00    +0.000 HD
ENDROOT
BRANCH   8  10
ATOM     10  C   UNL     1       2.066   6.900  19.748  0.00  0.00    +0.000 A 
ATOM     11  C   UNL     1       1.797   5.793  20.505  0.00  0.00    +0.000 A 
ATOM     12  N   UNL     1       2.483   4.708  19.990  0.00  0.00    +0.000 N 
ATOM     13  C   UNL     1       2.423   3.398  20.489  0.00  0.00    +0.000 C 
ATOM     14  N   UNL     1       2.423   3.367  21.855  0.00  0.00    +0.000 N 
ATOM     15  O   UNL     1       2.444   2.425  19.748  0.00  0.00    +0.000 OA
ATOM     16  C   UNL     1       3.244   5.148  18.908  0.00  0.00    +0.000 A 
ATOM     17  C   UNL     1       4.170   4.458  18.103  0.00  0.00    +0.000 A 
ATOM     18  C   UNL     1       4.865   5.179  17.129  0.00  0.00    +0.000 A 
ATOM     19  C   UNL     1       4.636   6.538  16.945  0.00  0.00    +0.000 A 
ATOM     20  C   UNL     1       3.707   7.214  17.742  0.00  0.00    +0.000 A 
ATOM     21  C   UNL     1       3.012   6.518  18.754  0.00  0.00    +0.000 A 
ATOM     22  H   UNL     1       2.763   4.164  22.383  0.00  0.00    +0.000 HD
ATOM     23  H   UNL     1       2.523   2.458  22.285  0.00  0.00    +0.000 HD
ENDBRANCH   8  10
BRANCH   1  25
ATOM     24  N   UNL     1       1.115  12.469  18.623  0.00  0.00    +0.000 N 
ATOM     25  C   UNL     1       1.102  11.102  18.787  0.00  0.00    +0.000 C 
ATOM     26  O   UNL     1       1.884  10.360  18.198  0.00  0.00    +0.000 OA
ATOM     27  H   UNL     1       0.352  13.031  18.978  0.00  0.00    +0.000 HD
BRANCH  24  28
ATOM     28  C   UNL     1       2.134  13.139  17.844  0.00  0.00    +0.000 C 
BRANCH  28  36
ATOM     29  C   UNL     1       0.226  15.362  18.691  0.00  0.00    +0.000 C 
ATOM     30  C   UNL     1       1.709  15.430  18.936  0.00  0.00    +0.000 A 
ATOM     31  C   UNL     1       2.231  16.576  19.564  0.00  0.00    +0.000 A 
ATOM     32  C   UNL     1       3.599  16.707  19.805  0.00  0.00    +0.000 A 
ATOM     33  C   UNL     1       4.464  15.692  19.418  0.00  0.00    +0.000 A 
ATOM     34 CL   UNL     1       6.150  15.841  19.717  0.00  0.00    +0.000 Cl
ATOM     35  C   UNL     1       3.969  14.552  18.789  0.00  0.00    +0.000 A 
ATOM     36  C   UNL     1       2.589  14.399  18.540  0.00  0.00    +0.000 A 
ENDBRANCH  28  36
ENDBRANCH  24  28
ENDBRANCH   1  25
BRANCH   3  37
ATOM     37  N   UNL     1       0.820  12.909  21.472  0.00  0.00    +0.000 NA
ATOM     38  H   UNL     1       0.672  13.767  22.016  0.00  0.00    +0.000 HD
ATOM     39  H   UNL     1       0.891  13.247  20.509  0.00  0.00    +0.000 HD
ENDBRANCH   3  37
TORSDOF 5
ENDMDL
MODEL 8
REMARK VINA RESULT:      -7.8      2.044      2.853
REMARK  Name = 
REMARK  6 active torsions:
REMARK  status: ('A' for Active; 'I' for Inactive)
REMARK    1  A    between atoms: C_1  and  C_2
REMARK    2  A    between atoms: C_8  and  C_9
REMARK    3  A    between atoms: C_9  and  N_10
REMARK    4  A    between atoms: C_11  and  C_13
REMARK    5  A    between atoms: C_15  and  N_16
REMARK    6  A    between atoms: N_21  and  C_22
REMARK                            x       y       z     vdW  Elec       q    Type
REMARK                         _______ _______ _______ _____ _____    ______ ____
ROOT
ATOM      1  C   UNL     1       0.290  10.570  19.435  0.00  0.00    +0.000 C 
ATOM      2  C   UNL     1      -0.663  11.657  19.955  0.00  0.00    +0.000 C 
ATOM      3  C   UNL     1      -0.290  11.799  21.436  0.00  0.00    +0.000 C 
ATOM      4  C   UNL     1      -0.013  10.343  21.818  0.00  0.00    +0.000 C 
ATOM      5  N   UNL     1       0.617   9.784  20.635  0.00  0.00    +0.000 N 
ATOM      6  C   UNL     1       1.164   8.516  20.688  0.00  0.00    +0.000 C 
ATOM      7  O   UNL     1       1.068   7.834  21.704  0.00  0.00    +0.000 OA
ATOM      8  N   UNL     1       1.801   8.134  19.533  0.00  0.00    +0.000 N 
ATOM      9  H   UNL     1       2.143   8.874  18.939  0.00  0.00    +0.000 HD
ENDROOT
BRANCH   8  10
ATOM     10  C   UNL     1       2.348   6.884  19.289  0.00  0.00    +0.000 A 
ATOM     11  C   UNL     1       2.093   5.724  19.967  0.00  0.00    +0.000 A 
ATOM     12  N   UNL     1       2.789   4.685  19.375  0.00  0.00    +0.000 N 
ATOM     13  C   UNL     1       2.745   3.342  19.781  0.00  0.00    +0.000 C 
ATOM     14  N   UNL     1       2.750   3.216  21.142  0.00  0.00    +0.000 N 
ATOM     15  O   UNL     1       2.772   2.425  18.974  0.00  0.00    +0.000 OA
ATOM     16  C   UNL     1       3.541   5.208  18.324  0.00  0.00    +0.000 A 
ATOM     17  C   UNL     1       4.471   4.586  17.471  0.00  0.00    +0.000 A 
ATOM     18  C   UNL     1       5.155   5.381  16.547  0.00  0.00    +0.000 A 
ATOM     19  C   UNL     1       4.912   6.747  16.459  0.00  0.00    +0.000 A 
ATOM     20  C   UNL     1       3.978   7.355  17.305  0.00  0.00    +0.000 A 
ATOM     21  C   UNL     1       3.294   6.582  18.267  0.00  0.00    +0.000 A 
ATOM     22  H   UNL     1       3.083   3.977  21.724  0.00  0.00    +0.000 HD
ATOM     23  H   UNL     1       2.861   2.281  21.507  0.00  0.00    +0.000 HD
ENDBRANCH   8  10
BRANCH   1  25
ATOM     24  N   UNL     1       1.624  12.561  18.869  0.00  0.00    +0.000 N 
ATOM     25  C   UNL     1       1.529  11.192  18.755  0.00  0.00    +0.000 C 
ATOM     26  O   UNL     1       2.330  10.527  18.104  0.00  0.00    +0.000 OA
ATOM     27  H   UNL     1       0.857  13.093  19.257  0.00  0.00    +0.000 HD
BRANCH  24  28
ATOM     28  C   UNL     1       2.748  13.299  18.334  0.00  0.00    +0.000 C 
BRANCH  28  36
ATOM     29  C   UNL     1       3.990  14.209  20.966  0.00  0.00    +0.000 C 
ATOM     30  C   UNL     1       3.292  15.157  20.030  0.00  0.00    +0.000 A 
ATOM     31  C   UNL     1       3.195  16.511  20.399  0.00  0.00    +0.000 A 
ATOM     32  C   UNL     1       2.546  17.437  19.582  0.00  0.00    +0.000 A 
ATOM     33  C   UNL     1       1.983  17.019  18.384  0.00  0.00    +0.000 A 
ATOM     34 CL   UNL     1       1.187  18.153  17.367  0.00  0.00    +0.000 Cl
ATOM     35  C   UNL     1       2.061  15.681  18.002  0.00  0.00    +0.000 A 
ATOM     36  C   UNL     1       2.716  14.730  18.813  0.00  0.00    +0.000 A 
ENDBRANCH  28  36
ENDBRANCH  24  28
ENDBRANCH   1  25
BRANCH   3  37
ATOM     37  N   UNL     1       0.899  12.650  21.589  0.00  0.00    +0.000 NA
ATOM     38  H   UNL     1       1.002  12.923  22.573  0.00  0.00    +0.000 HD
ATOM     39  H   UNL     1       0.734  13.539  21.111  0.00  0.00    +0.000 HD
ENDBRANCH   3  37
TORSDOF 5
ENDMDL
MODEL 9
REMARK VINA RESULT:      -7.8      5.781     10.729
REMARK  Name = 
REMARK  6 active torsions:
REMARK  status: ('A' for Active; 'I' for Inactive)
REMARK    1  A    between atoms: C_1  and  C_2
REMARK    2  A    between atoms: C_8  and  C_9
REMARK    3  A    between atoms: C_9  and  N_10
REMARK    4  A    between atoms: C_11  and  C_13
REMARK    5  A    between atoms: C_15  and  N_16
REMARK    6  A    between atoms: N_21  and  C_22
REMARK                            x       y       z     vdW  Elec       q    Type
REMARK                         _______ _______ _______ _____ _____    ______ ____
ROOT
ATOM      1  C   UNL     1      -3.620  10.786  18.342  0.00  0.00    +0.000 C 
ATOM      2  C   UNL     1      -3.748   9.893  17.099  0.00  0.00    +0.000 C 
ATOM      3  C   UNL     1      -4.188  10.859  15.992  0.00  0.00    +0.000 C 
ATOM      4  C   UNL     1      -5.145  11.778  16.756  0.00  0.00    +0.000 C 
ATOM      5  N   UNL     1      -4.535  11.906  18.069  0.00  0.00    +0.000 N 
ATOM      6  C   UNL     1      -5.048  12.814  18.974  0.00  0.00    +0.000 C 
ATOM      7  O   UNL     1      -6.051  13.469  18.705  0.00  0.00    +0.000 OA
ATOM      8  N   UNL     1      -4.335  12.900  20.145  0.00  0.00    +0.000 N 
ATOM      9  H   UNL     1      -3.365  12.626  20.105  0.00  0.00    +0.000 HD
ENDROOT
BRANCH   8  10
ATOM     10  C   UNL     1      -4.688  13.658  21.250  0.00  0.00    +0.000 A 
ATOM     11  C   UNL     1      -4.033  14.752  21.744  0.00  0.00    +0.000 A 
ATOM     12  N   UNL     1      -4.739  15.262  22.819  0.00  0.00    +0.000 N 
ATOM     13  C   UNL     1      -4.385  16.402  23.557  0.00  0.00    +0.000 C 
ATOM     14  N   UNL     1      -3.039  16.470  23.784  0.00  0.00    +0.000 N 
ATOM     15  O   UNL     1      -5.226  17.178  23.986  0.00  0.00    +0.000 OA
ATOM     16  C   UNL     1      -5.844  14.442  23.043  0.00  0.00    +0.000 A 
ATOM     17  C   UNL     1      -6.818  14.480  24.058  0.00  0.00    +0.000 A 
ATOM     18  C   UNL     1      -7.778  13.466  24.091  0.00  0.00    +0.000 A 
ATOM     19  C   UNL     1      -7.784  12.454  23.137  0.00  0.00    +0.000 A 
ATOM     20  C   UNL     1      -6.818  12.429  22.126  0.00  0.00    +0.000 A 
ATOM     21  C   UNL     1      -5.818  13.424  22.085  0.00  0.00    +0.000 A 
ATOM     22  H   UNL     1      -2.466  15.635  23.715  0.00  0.00    +0.000 HD
ATOM     23  H   UNL     1      -2.726  17.185  24.426  0.00  0.00    +0.000 HD
ENDBRANCH   8  10
BRANCH   1  25
ATOM     24  N   UNL     1      -1.541  10.669  19.656  0.00  0.00    +0.000 N 
ATOM     25  C   UNL     1      -2.158  11.232  18.562  0.00  0.00    +0.000 C 
ATOM     26  O   UNL     1      -1.610  12.075  17.857  0.00  0.00    +0.000 OA
ATOM     27  H   UNL     1      -2.076  10.117  20.314  0.00  0.00    +0.000 HD
BRANCH  24  28
ATOM     28  C   UNL     1      -0.156  10.937  19.978  0.00  0.00    +0.000 C 
BRANCH  28  36
ATOM     29  C   UNL     1      -0.117   9.079  22.396  0.00  0.00    +0.000 C 
ATOM     30  C   UNL     1       0.655   8.787  21.138  0.00  0.00    +0.000 A 
ATOM     31  C   UNL     1       1.438   7.620  21.090  0.00  0.00    +0.000 A 
ATOM     32  C   UNL     1       2.190   7.301  19.958  0.00  0.00    +0.000 A 
ATOM     33  C   UNL     1       2.168   8.149  18.860  0.00  0.00    +0.000 A 
ATOM     34 CL   UNL     1       3.085   7.761  17.458  0.00  0.00    +0.000 Cl
ATOM     35  C   UNL     1       1.405   9.314  18.889  0.00  0.00    +0.000 A 
ATOM     36  C   UNL     1       0.636   9.652  20.021  0.00  0.00    +0.000 A 
ENDBRANCH  28  36
ENDBRANCH  24  28
ENDBRANCH   1  25
BRANCH   3  37
ATOM     37  N   UNL     1      -3.030  11.588  15.453  0.00  0.00    +0.000 NA
ATOM     38  H   UNL     1      -2.191  11.002  15.524  0.00  0.00    +0.000 HD
ATOM     39  H   UNL     1      -2.822  12.378  16.067  0.00  0.00    +0.000 HD
ENDBRANCH   3  37
TORSDOF 5
ENDMDL
