MODEL 1
REMARK VINA RESULT:      -7.6      0.000      0.000
REMARK  Name = 
REMARK  3 active torsions:
REMARK  status: ('A' for Active; 'I' for Inactive)
REMARK    1  A    between atoms: C_5  and  C_6
REMARK    2  A    between atoms: C_9  and  C_10
REMARK    3  A    between atoms: C_13  and  N_14
REMARK                            x       y       z     vdW  Elec       q    Type
REMARK                         _______ _______ _______ _____ _____    ______ ____
ROOT
ATOM      1  C   UNL     1       1.318   9.123  19.362  0.00  0.00    +0.000 A 
ATOM      2  N   UNL     1       1.348   9.656  18.128  0.00  0.00    +0.000 NA
ATOM      3  O   UNL     1       2.172   8.788  17.414  0.00  0.00    +0.000 OA
ATOM      4  C   UNL     1       2.564   7.814  18.286  0.00  0.00    +0.000 A 
ATOM      5  N   UNL     1       2.078   7.981  19.494  0.00  0.00    +0.000 NA
ENDROOT
BRANCH   1  10
ATOM      6  F   UNL     1      -1.661  11.158  23.637  0.00  0.00    +0.000 F 
ATOM      7  C   UNL     1      -0.946  10.676  22.613  0.00  0.00    +0.000 A 
ATOM      8  C   UNL     1      -0.883  11.392  21.424  0.00  0.00    +0.000 A 
ATOM      9  C   UNL     1      -0.137  10.889  20.354  0.00  0.00    +0.000 A 
ATOM     10  C   UNL     1       0.545   9.668  20.472  0.00  0.00    +0.000 A 
ATOM     11  C   UNL     1       0.465   8.961  21.685  0.00  0.00    +0.000 A 
ATOM     12  C   UNL     1      -0.279   9.466  22.755  0.00  0.00    +0.000 A 
ENDBRANCH   1  10
BRANCH   4  13
ATOM     13  C   UNL     1       3.400   6.740  17.766  0.00  0.00    +0.000 A 
ATOM     14  C   UNL     1       4.587   6.989  17.065  0.00  0.00    +0.000 A 
ATOM     15  C   UNL     1       5.333   5.930  16.532  0.00  0.00    +0.000 A 
ATOM     16  C   UNL     1       4.926   4.599  16.683  0.00  0.00    +0.000 A 
ATOM     17  C   UNL     1       3.738   4.353  17.391  0.00  0.00    +0.000 A 
ATOM     18  C   UNL     1       2.994   5.409  17.932  0.00  0.00    +0.000 A 
BRANCH  16  19
ATOM     19  N   UNL     1       5.695   3.611  16.040  0.00  0.00    +0.000 NA
ATOM     20  C   UNL     1       5.987   3.820  14.921  0.00  0.00    +0.000 C 
ATOM     21  S   UNL     1       6.426   4.062  13.409  0.00  0.00    +0.000 S 
ENDBRANCH  16  19
ENDBRANCH   4  13
TORSDOF 3
ENDMDL
MODEL 2
REMARK VINA RESULT:      -7.6      0.069      1.057
REMARK  Name = 
REMARK  3 active torsions:
REMARK  status: ('A' for Active; 'I' for Inactive)
REMARK    1  A    between atoms: C_5  and  C_6
REMARK    2  A    between atoms: C_9  and  C_10
REMARK    3  A    between atoms: C_13  and  N_14
REMARK                            x       y       z     vdW  Elec       q    Type
REMARK                         _______ _______ _______ _____ _____    ______ ____
ROOT
ATOM      1  C   UNL     1       1.333   9.102  19.350  0.00  0.00    +0.000 A 
ATOM      2  N   UNL     1       1.394   9.661  18.129  0.00  0.00    +0.000 NA
ATOM      3  O   UNL     1       2.232   8.805  17.417  0.00  0.00    +0.000 OA
ATOM      4  C   UNL     1       2.599   7.811  18.276  0.00  0.00    +0.000 A 
ATOM      5  N   UNL     1       2.085   7.955  19.476  0.00  0.00    +0.000 NA
ENDROOT
BRANCH   1  10
ATOM      6  F   UNL     1      -1.706  11.166  23.569  0.00  0.00    +0.000 F 
ATOM      7  C   UNL     1      -0.981  10.667  22.560  0.00  0.00    +0.000 A 
ATOM      8  C   UNL     1      -0.379   9.423  22.699  0.00  0.00    +0.000 A 
ATOM      9  C   UNL     1       0.380   8.901  21.646  0.00  0.00    +0.000 A 
ATOM     10  C   UNL     1       0.536   9.626  20.454  0.00  0.00    +0.000 A 
ATOM     11  C   UNL     1      -0.084  10.883  20.337  0.00  0.00    +0.000 A 
ATOM     12  C   UNL     1      -0.842  11.402  21.390  0.00  0.00    +0.000 A 
ENDBRANCH   1  10
BRANCH   4  13
ATOM     13  C   UNL     1       3.444   6.745  17.753  0.00  0.00    +0.000 A 
ATOM     14  C   UNL     1       4.594   7.004  16.997  0.00  0.00    +0.000 A 
ATOM     15  C   UNL     1       5.347   5.950  16.465  0.00  0.00    +0.000 A 
ATOM     16  C   UNL     1       4.984   4.615  16.671  0.00  0.00    +0.000 A 
ATOM     17  C   UNL     1       3.833   4.358  17.434  0.00  0.00    +0.000 A 
ATOM     18  C   UNL     1       3.083   5.409  17.975  0.00  0.00    +0.000 A 
BRANCH  16  19
ATOM     19  N   UNL     1       5.754   3.629  16.025  0.00  0.00    +0.000 NA
ATOM     20  C   UNL     1       6.024   3.828  14.899  0.00  0.00    +0.000 C 
ATOM     21  S   UNL     1       6.433   4.058  13.376  0.00  0.00    +0.000 S 
ENDBRANCH  16  19
ENDBRANCH   4  13
TORSDOF 3
ENDMDL
MODEL 3
REMARK VINA RESULT:      -7.4      0.311      1.510
REMARK  Name = 
REMARK  3 active torsions:
REMARK  status: ('A' for Active; 'I' for Inactive)
REMARK    1  A    between atoms: C_5  and  C_6
REMARK    2  A    between atoms: C_9  and  C_10
REMARK    3  A    between atoms: C_13  and  N_14
REMARK                            x       y       z     vdW  Elec       q    Type
REMARK                         _______ _______ _______ _____ _____    ______ ____
ROOT
ATOM      1  C   UNL     1       1.433   9.144  19.318  0.00  0.00    +0.000 A 
ATOM      2  N   UNL     1       1.558   9.828  18.168  0.00  0.00    +0.000 NA
ATOM      3  O   UNL     1       2.350   8.999  17.376  0.00  0.00    +0.000 OA
ATOM      4  C   UNL     1       2.630   7.892  18.124  0.00  0.00    +0.000 A 
ATOM      5  N   UNL     1       2.101   7.939  19.326  0.00  0.00    +0.000 NA
ENDROOT
BRANCH   1  10
ATOM      6  F   UNL     1      -1.558  10.942  23.690  0.00  0.00    +0.000 F 
ATOM      7  C   UNL     1      -0.844  10.507  22.645  0.00  0.00    +0.000 A 
ATOM      8  C   UNL     1      -0.080   9.353  22.770  0.00  0.00    +0.000 A 
ATOM      9  C   UNL     1       0.667   8.898  21.679  0.00  0.00    +0.000 A 
ATOM     10  C   UNL     1       0.650   9.598  20.462  0.00  0.00    +0.000 A 
ATOM     11  C   UNL     1      -0.130  10.763  20.360  0.00  0.00    +0.000 A 
ATOM     12  C   UNL     1      -0.877  11.216  21.451  0.00  0.00    +0.000 A 
ENDBRANCH   1  10
BRANCH   4  13
ATOM     13  C   UNL     1       3.410   6.834  17.497  0.00  0.00    +0.000 A 
ATOM     14  C   UNL     1       3.220   5.481  17.806  0.00  0.00    +0.000 A 
ATOM     15  C   UNL     1       4.030   4.498  17.223  0.00  0.00    +0.000 A 
ATOM     16  C   UNL     1       5.044   4.829  16.317  0.00  0.00    +0.000 A 
ATOM     17  C   UNL     1       5.228   6.185  16.006  0.00  0.00    +0.000 A 
ATOM     18  C   UNL     1       4.415   7.170  16.580  0.00  0.00    +0.000 A 
BRANCH  16  19
ATOM     19  N   UNL     1       5.860   3.781  15.850  0.00  0.00    +0.000 NA
ATOM     20  C   UNL     1       6.055   3.745  14.692  0.00  0.00    +0.000 C 
ATOM     21  S   UNL     1       6.366   3.660  13.131  0.00  0.00    +0.000 S 
ENDBRANCH  16  19
ENDBRANCH   4  13
TORSDOF 3
ENDMDL
MODEL 4
REMARK VINA RESULT:      -7.3      1.461      2.071
REMARK  Name = 
REMARK  3 active torsions:
REMARK  status: ('A' for Active; 'I' for Inactive)
REMARK    1  A    between atoms: C_5  and  C_6
REMARK    2  A    between atoms: C_9  and  C_10
REMARK    3  A    between atoms: C_13  and  N_14
REMARK                            x       y       z     vdW  Elec       q    Type
REMARK                         _______ _______ _______ _____ _____    ______ ____
ROOT
ATOM      1  C   UNL     1       1.883   7.421  19.989  0.00  0.00    +0.000 A 
ATOM      2  N   UNL     1       1.911   6.192  20.532  0.00  0.00    +0.000 NA
ATOM      3  O   UNL     1       2.681   5.453  19.636  0.00  0.00    +0.000 OA
ATOM      4  C   UNL     1       3.043   6.305  18.635  0.00  0.00    +0.000 A 
ATOM      5  N   UNL     1       2.569   7.519  18.798  0.00  0.00    +0.000 NA
ENDROOT
BRANCH   1  10
ATOM      6  F   UNL     1      -0.710  11.789  22.331  0.00  0.00    +0.000 F 
ATOM      7  C   UNL     1      -0.086  10.747  21.768  0.00  0.00    +0.000 A 
ATOM      8  C   UNL     1       0.222  10.783  20.414  0.00  0.00    +0.000 A 
ATOM      9  C   UNL     1       0.872   9.695  19.824  0.00  0.00    +0.000 A 
ATOM     10  C   UNL     1       1.214   8.569  20.590  0.00  0.00    +0.000 A 
ATOM     11  C   UNL     1       0.892   8.556  21.959  0.00  0.00    +0.000 A 
ATOM     12  C   UNL     1       0.243   9.645  22.547  0.00  0.00    +0.000 A 
ENDBRANCH   1  10
BRANCH   4  13
ATOM     13  C   UNL     1       3.909   5.784  17.585  0.00  0.00    +0.000 A 
ATOM     14  C   UNL     1       3.998   4.416  17.299  0.00  0.00    +0.000 A 
ATOM     15  C   UNL     1       4.885   3.950  16.320  0.00  0.00    +0.000 A 
ATOM     16  C   UNL     1       5.701   4.827  15.597  0.00  0.00    +0.000 A 
ATOM     17  C   UNL     1       5.605   6.199  15.882  0.00  0.00    +0.000 A 
ATOM     18  C   UNL     1       4.714   6.668  16.854  0.00  0.00    +0.000 A 
BRANCH  16  19
ATOM     19  N   UNL     1       6.620   4.258  14.694  0.00  0.00    +0.000 NA
ATOM     20  C   UNL     1       6.180   3.854  13.682  0.00  0.00    +0.000 C 
ATOM     21  S   UNL     1       5.638   3.308  12.287  0.00  0.00    +0.000 S 
ENDBRANCH  16  19
ENDBRANCH   4  13
TORSDOF 3
ENDMDL
MODEL 5
REMARK VINA RESULT:      -7.3      1.470      2.295
REMARK  Name = 
REMARK  3 active torsions:
REMARK  status: ('A' for Active; 'I' for Inactive)
REMARK    1  A    between atoms: C_5  and  C_6
REMARK    2  A    between atoms: C_9  and  C_10
REMARK    3  A    between atoms: C_13  and  N_14
REMARK                            x       y       z     vdW  Elec       q    Type
REMARK                         _______ _______ _______ _____ _____    ______ ____
ROOT
ATOM      1  C   UNL     1       1.859   7.381  20.011  0.00  0.00    +0.000 A 
ATOM      2  N   UNL     1       1.846   6.132  20.507  0.00  0.00    +0.000 NA
ATOM      3  O   UNL     1       2.621   5.410  19.601  0.00  0.00    +0.000 OA
ATOM      4  C   UNL     1       3.026   6.292  18.642  0.00  0.00    +0.000 A 
ATOM      5  N   UNL     1       2.575   7.509  18.841  0.00  0.00    +0.000 NA
ENDROOT
BRANCH   1  10
ATOM      6  F   UNL     1      -0.635  11.788  22.388  0.00  0.00    +0.000 F 
ATOM      7  C   UNL     1      -0.041  10.730  21.823  0.00  0.00    +0.000 A 
ATOM      8  C   UNL     1       0.405   9.686  22.623  0.00  0.00    +0.000 A 
ATOM      9  C   UNL     1       1.027   8.581  22.034  0.00  0.00    +0.000 A 
ATOM     10  C   UNL     1       1.203   8.521  20.641  0.00  0.00    +0.000 A 
ATOM     11  C   UNL     1       0.743   9.590  19.853  0.00  0.00    +0.000 A 
ATOM     12  C   UNL     1       0.120  10.693  20.444  0.00  0.00    +0.000 A 
ENDBRANCH   1  10
BRANCH   4  13
ATOM     13  C   UNL     1       3.904   5.791  17.593  0.00  0.00    +0.000 A 
ATOM     14  C   UNL     1       4.002   4.428  17.285  0.00  0.00    +0.000 A 
ATOM     15  C   UNL     1       4.900   3.982  16.308  0.00  0.00    +0.000 A 
ATOM     16  C   UNL     1       5.721   4.873  15.608  0.00  0.00    +0.000 A 
ATOM     17  C   UNL     1       5.617   6.239  15.915  0.00  0.00    +0.000 A 
ATOM     18  C   UNL     1       4.714   6.690  16.885  0.00  0.00    +0.000 A 
BRANCH  16  19
ATOM     19  N   UNL     1       6.651   4.322  14.706  0.00  0.00    +0.000 NA
ATOM     20  C   UNL     1       6.216   3.881  13.708  0.00  0.00    +0.000 C 
ATOM     21  S   UNL     1       5.680   3.286  12.330  0.00  0.00    +0.000 S 
ENDBRANCH  16  19
ENDBRANCH   4  13
TORSDOF 3
ENDMDL
MODEL 6
REMARK VINA RESULT:      -7.3      0.832      1.729
REMARK  Name = 
REMARK  3 active torsions:
REMARK  status: ('A' for Active; 'I' for Inactive)
REMARK    1  A    between atoms: C_5  and  C_6
REMARK    2  A    between atoms: C_9  and  C_10
REMARK    3  A    between atoms: C_13  and  N_14
REMARK                            x       y       z     vdW  Elec       q    Type
REMARK                         _______ _______ _______ _____ _____    ______ ____
ROOT
ATOM      1  C   UNL     1       0.914   9.754  19.763  0.00  0.00    +0.000 A 
ATOM      2  N   UNL     1       1.239  10.431  18.648  0.00  0.00    +0.000 NA
ATOM      3  O   UNL     1       2.010   9.522  17.925  0.00  0.00    +0.000 OA
ATOM      4  C   UNL     1       2.079   8.383  18.673  0.00  0.00    +0.000 A 
ATOM      5  N   UNL     1       1.435   8.479  19.813  0.00  0.00    +0.000 NA
ENDROOT
BRANCH   1  10
ATOM      6  F   UNL     1      -2.304  11.844  23.833  0.00  0.00    +0.000 F 
ATOM      7  C   UNL     1      -1.535  11.339  22.861  0.00  0.00    +0.000 A 
ATOM      8  C   UNL     1      -0.785  10.196  23.105  0.00  0.00    +0.000 A 
ATOM      9  C   UNL     1       0.019   9.668  22.090  0.00  0.00    +0.000 A 
ATOM     10  C   UNL     1       0.072  10.285  20.829  0.00  0.00    +0.000 A 
ATOM     11  C   UNL     1      -0.696  11.441  20.607  0.00  0.00    +0.000 A 
ATOM     12  C   UNL     1      -1.500  11.967  21.622  0.00  0.00    +0.000 A 
ENDBRANCH   1  10
BRANCH   4  13
ATOM     13  C   UNL     1       2.794   7.247  18.107  0.00  0.00    +0.000 A 
ATOM     14  C   UNL     1       2.389   5.924  18.325  0.00  0.00    +0.000 A 
ATOM     15  C   UNL     1       3.138   4.857  17.810  0.00  0.00    +0.000 A 
ATOM     16  C   UNL     1       4.300   5.074  17.063  0.00  0.00    +0.000 A 
ATOM     17  C   UNL     1       4.700   6.401  16.841  0.00  0.00    +0.000 A 
ATOM     18  C   UNL     1       3.951   7.470  17.348  0.00  0.00    +0.000 A 
BRANCH  16  19
ATOM     19  N   UNL     1       5.031   3.939  16.661  0.00  0.00    +0.000 NA
ATOM     20  C   UNL     1       5.586   4.012  15.628  0.00  0.00    +0.000 C 
ATOM     21  S   UNL     1       6.374   4.065  14.244  0.00  0.00    +0.000 S 
ENDBRANCH  16  19
ENDBRANCH   4  13
TORSDOF 3
ENDMDL
MODEL 7
REMARK VINA RESULT:      -7.2      4.874      8.701
REMARK  Name = 
REMARK  3 active torsions:
REMARK  status: ('A' for Active; 'I' for Inactive)
REMARK    1  A    between atoms: C_5  and  C_6
REMARK    2  A    between atoms: C_9  and  C_10
REMARK    3  A    between atoms: C_13  and  N_14
REMARK                            x       y       z     vdW  Elec       q    Type
REMARK                         _______ _______ _______ _____ _____    ______ ____
ROOT
ATOM      1  C   UNL     1       2.781   6.426  19.048  0.00  0.00    +0.000 A 
ATOM      2  N   UNL     1       2.312   5.590  19.992  0.00  0.00    +0.000 NA
ATOM      3  O   UNL     1       1.566   6.421  20.826  0.00  0.00    +0.000 OA
ATOM      4  C   UNL     1       1.656   7.680  20.308  0.00  0.00    +0.000 A 
ATOM      5  N   UNL     1       2.400   7.738  19.227  0.00  0.00    +0.000 NA
ENDROOT
BRANCH   1  10
ATOM      6  F   UNL     1       5.941   4.778  14.738  0.00  0.00    +0.000 F 
ATOM      7  C   UNL     1       5.183   5.176  15.766  0.00  0.00    +0.000 A 
ATOM      8  C   UNL     1       5.090   6.530  16.064  0.00  0.00    +0.000 A 
ATOM      9  C   UNL     1       4.299   6.947  17.139  0.00  0.00    +0.000 A 
ATOM     10  C   UNL     1       3.601   6.009  17.917  0.00  0.00    +0.000 A 
ATOM     11  C   UNL     1       3.712   4.645  17.595  0.00  0.00    +0.000 A 
ATOM     12  C   UNL     1       4.502   4.229  16.520  0.00  0.00    +0.000 A 
ENDBRANCH   1  10
BRANCH   4  13
ATOM     13  C   UNL     1       0.910   8.739  20.975  0.00  0.00    +0.000 A 
ATOM     14  C   UNL     1       0.620   9.958  20.351  0.00  0.00    +0.000 A 
ATOM     15  C   UNL     1      -0.050  10.972  21.047  0.00  0.00    +0.000 A 
ATOM     16  C   UNL     1      -0.454  10.802  22.376  0.00  0.00    +0.000 A 
ATOM     17  C   UNL     1      -0.167   9.577  22.998  0.00  0.00    +0.000 A 
ATOM     18  C   UNL     1       0.496   8.558  22.302  0.00  0.00    +0.000 A 
BRANCH  16  19
ATOM     19  N   UNL     1      -1.045  11.908  23.018  0.00  0.00    +0.000 NA
ATOM     20  C   UNL     1      -2.059  12.295  22.567  0.00  0.00    +0.000 C 
ATOM     21  S   UNL     1      -3.444  12.850  22.007  0.00  0.00    +0.000 S 
ENDBRANCH  16  19
ENDBRANCH   4  13
TORSDOF 3
ENDMDL
MODEL 8
REMARK VINA RESULT:      -7.2      4.823      8.731
REMARK  Name = 
REMARK  3 active torsions:
REMARK  status: ('A' for Active; 'I' for Inactive)
REMARK    1  A    between atoms: C_5  and  C_6
REMARK    2  A    between atoms: C_9  and  C_10
REMARK    3  A    between atoms: C_13  and  N_14
REMARK                            x       y       z     vdW  Elec       q    Type
REMARK                         _______ _______ _______ _____ _____    ______ ____
ROOT
ATOM      1  C   UNL     1       2.503   7.802  18.138  0.00  0.00    +0.000 A 
ATOM      2  N   UNL     1       2.278   8.903  17.400  0.00  0.00    +0.000 NA
ATOM      3  O   UNL     1       1.539   9.724  18.250  0.00  0.00    +0.000 OA
ATOM      4  C   UNL     1       1.385   9.039  19.421  0.00  0.00    +0.000 A 
ATOM      5  N   UNL     1       1.946   7.852  19.398  0.00  0.00    +0.000 NA
ENDROOT
BRANCH   1  10
ATOM      6  F   UNL     1       5.457   3.367  16.439  0.00  0.00    +0.000 F 
ATOM      7  C   UNL     1       4.752   4.431  16.841  0.00  0.00    +0.000 A 
ATOM      8  C   UNL     1       5.254   5.708  16.623  0.00  0.00    +0.000 A 
ATOM      9  C   UNL     1       4.518   6.820  17.044  0.00  0.00    +0.000 A 
ATOM     10  C   UNL     1       3.278   6.654  17.683  0.00  0.00    +0.000 A 
ATOM     11  C   UNL     1       2.792   5.351  17.892  0.00  0.00    +0.000 A 
ATOM     12  C   UNL     1       3.528   4.241  17.470  0.00  0.00    +0.000 A 
ENDBRANCH   1  10
BRANCH   4  13
ATOM     13  C   UNL     1       0.684   9.710  20.507  0.00  0.00    +0.000 A 
ATOM     14  C   UNL     1       0.298   9.040  21.675  0.00  0.00    +0.000 A 
ATOM     15  C   UNL     1      -0.426   9.708  22.672  0.00  0.00    +0.000 A 
ATOM     16  C   UNL     1      -0.780  11.055  22.540  0.00  0.00    +0.000 A 
ATOM     17  C   UNL     1      -0.386  11.725  21.370  0.00  0.00    +0.000 A 
ATOM     18  C   UNL     1       0.344  11.063  20.375  0.00  0.00    +0.000 A 
BRANCH  16  19
ATOM     19  N   UNL     1      -1.579  11.616  23.554  0.00  0.00    +0.000 NA
ATOM     20  C   UNL     1      -2.568  12.148  23.208  0.00  0.00    +0.000 C 
ATOM     21  S   UNL     1      -3.929  12.866  22.795  0.00  0.00    +0.000 S 
ENDBRANCH  16  19
ENDBRANCH   4  13
TORSDOF 3
ENDMDL
MODEL 9
REMARK VINA RESULT:      -7.1      4.820      8.637
REMARK  Name = 
REMARK  3 active torsions:
REMARK  status: ('A' for Active; 'I' for Inactive)
REMARK    1  A    between atoms: C_5  and  C_6
REMARK    2  A    between atoms: C_9  and  C_10
REMARK    3  A    between atoms: C_13  and  N_14
REMARK                            x       y       z     vdW  Elec       q    Type
REMARK                         _______ _______ _______ _____ _____    ______ ____
ROOT
ATOM      1  C   UNL     1       2.804   7.719  17.966  0.00  0.00    +0.000 A 
ATOM      2  N   UNL     1       2.580   8.832  17.247  0.00  0.00    +0.000 NA
ATOM      3  O   UNL     1       1.762   9.600  18.074  0.00  0.00    +0.000 OA
ATOM      4  C   UNL     1       1.567   8.875  19.214  0.00  0.00    +0.000 A 
ATOM      5  N   UNL     1       2.174   7.711  19.192  0.00  0.00    +0.000 NA
ENDROOT
BRANCH   1  10
ATOM      6  F   UNL     1       6.025   3.450  16.326  0.00  0.00    +0.000 F 
ATOM      7  C   UNL     1       5.256   4.474  16.714  0.00  0.00    +0.000 A 
ATOM      8  C   UNL     1       5.661   5.775  16.445  0.00  0.00    +0.000 A 
ATOM      9  C   UNL     1       4.858   6.846  16.851  0.00  0.00    +0.000 A 
ATOM     10  C   UNL     1       3.648   6.614  17.526  0.00  0.00    +0.000 A 
ATOM     11  C   UNL     1       3.260   5.288  17.786  0.00  0.00    +0.000 A 
ATOM     12  C   UNL     1       4.063   4.219  17.379  0.00  0.00    +0.000 A 
ENDBRANCH   1  10
BRANCH   4  13
ATOM     13  C   UNL     1       0.779   9.487  20.275  0.00  0.00    +0.000 A 
ATOM     14  C   UNL     1       0.454  10.850  20.276  0.00  0.00    +0.000 A 
ATOM     15  C   UNL     1      -0.257  11.411  21.344  0.00  0.00    +0.000 A 
ATOM     16  C   UNL     1      -0.669  10.636  22.435  0.00  0.00    +0.000 A 
ATOM     17  C   UNL     1      -0.347   9.270  22.428  0.00  0.00    +0.000 A 
ATOM     18  C   UNL     1       0.358   8.704  21.358  0.00  0.00    +0.000 A 
BRANCH  16  19
ATOM     19  N   UNL     1      -1.304  11.305  23.499  0.00  0.00    +0.000 NA
ATOM     20  C   UNL     1      -2.269  11.920  23.231  0.00  0.00    +0.000 C 
ATOM     21  S   UNL     1      -3.592  12.753  22.925  0.00  0.00    +0.000 S 
ENDBRANCH  16  19
ENDBRANCH   4  13
TORSDOF 3
ENDMDL
