MODEL 1
REMARK VINA RESULT:      -8.7      0.000      0.000
REMARK  Name = 
REMARK  11 active torsions:
REMARK  status: ('A' for Active; 'I' for Inactive)
REMARK    1  A    between atoms: C_1  and  C_2
REMARK    2  A    between atoms: C_6  and  N_7
REMARK    3  A    between atoms: N_10  and  C_11
REMARK    4  A    between atoms: C_11  and  C_12
REMARK    5  A    between atoms: C_12  and  C_13
REMARK    6  A    between atoms: C_13  and  C_14
REMARK    7  A    between atoms: C_13  and  C_15
REMARK    8  A    between atoms: C_13  and  C_16
REMARK    9  A    between atoms: C_18  and  N_19
REMARK   10  A    between atoms: N_19  and  C_20
REMARK   11  A    between atoms: N_26  and  C_27
REMARK                            x       y       z     vdW  Elec       q    Type
REMARK                         _______ _______ _______ _____ _____    ______ ____
ROOT
ATOM      1  C   UNL     1       3.078   3.430  17.054  0.00  0.00    +0.000 C 
ATOM      2  C   UNL     1       4.219   4.321  17.480  0.00  0.00    +0.000 A 
ATOM      3  C   UNL     1       5.482   4.059  16.908  0.00  0.00    +0.000 A 
ATOM      4  C   UNL     1       6.613   4.805  17.261  0.00  0.00    +0.000 A 
ATOM      5  F   UNL     1       7.787   4.492  16.699  0.00  0.00    +0.000 F 
ATOM      6  C   UNL     1       6.544   5.809  18.222  0.00  0.00    +0.000 A 
ATOM      7  C   UNL     1       5.293   6.079  18.774  0.00  0.00    +0.000 A 
ATOM      8  C   UNL     1       4.121   5.347  18.450  0.00  0.00    +0.000 A 
ENDROOT
BRANCH   6   9
ATOM      9  N   UNL     1       7.682   6.583  18.582  0.00  0.00    +0.000 N 
ATOM     10  C   UNL     1       7.825   7.899  18.173  0.00  0.00    +0.000 C 
ATOM     11  O   UNL     1       7.056   8.471  17.444  0.00  0.00    +0.000 OA
ATOM     12  N   UNL     1       8.971   8.516  18.673  0.00  0.00    +0.000 N 
ATOM     13  H   UNL     1       8.249   6.241  19.337  0.00  0.00    +0.000 HD
ATOM     14  H   UNL     1       9.545   8.086  19.382  0.00  0.00    +0.000 HD
BRANCH  12  15
ATOM     15  C   UNL     1       9.177   9.909  18.305  0.00  0.00    +0.000 C 
BRANCH  15  16
ATOM     16  C   UNL     1       9.509  10.863  19.462  0.00  0.00    +0.000 C 
BRANCH  16  17
ATOM     17  C   UNL     1      10.469  12.027  19.048  0.00  0.00    +0.000 C 
ATOM     18  C   UNL     1      10.432  13.173  20.077  0.00  0.00    +0.000 C 
ATOM     19  C   UNL     1      11.920  11.514  18.936  0.00  0.00    +0.000 C 
ATOM     20  C   UNL     1      10.059  12.591  17.675  0.00  0.00    +0.000 C 
ENDBRANCH  16  17
ENDBRANCH  15  16
ENDBRANCH  12  15
ENDBRANCH   6   9
BRANCH   8  21
ATOM     21  N   UNL     1       2.913   5.715  19.102  0.00  0.00    +0.000 N 
ATOM     22  H   UNL     1       2.814   5.346  20.044  0.00  0.00    +0.000 HD
BRANCH  21  23
ATOM     23  C   UNL     1       2.290   6.996  19.013  0.00  0.00    +0.000 A 
ATOM     24  C   UNL     1       2.419   7.775  17.852  0.00  0.00    +0.000 A 
ATOM     25  C   UNL     1       1.903   9.067  17.779  0.00  0.00    +0.000 A 
ATOM     26  C   UNL     1       1.288   9.637  18.887  0.00  0.00    +0.000 A 
ATOM     27  N   UNL     1       0.890  10.978  18.796  0.00  0.00    +0.000 NA
ATOM     28  C   UNL     1       0.386  11.524  19.851  0.00  0.00    +0.000 A 
ATOM     29  N   UNL     1       0.198  10.881  21.044  0.00  0.00    +0.000 N 
ATOM     30  C   UNL     1      -0.376  11.586  22.174  0.00  0.00    +0.000 C 
ATOM     31  C   UNL     1       0.544   9.545  21.222  0.00  0.00    +0.000 A 
ATOM     32  O   UNL     1       0.394   8.954  22.288  0.00  0.00    +0.000 OA
ATOM     33  C   UNL     1       1.136   8.875  20.050  0.00  0.00    +0.000 A 
ATOM     34  C   UNL     1       1.605   7.556  20.104  0.00  0.00    +0.000 A 
ATOM     35  F   UNL     1       1.426   6.809  21.203  0.00  0.00    +0.000 F 
ENDBRANCH  21  23
ENDBRANCH   8  21
TORSDOF 6
ENDMDL
MODEL 2
REMARK VINA RESULT:      -8.5      1.433      1.941
REMARK  Name = 
REMARK  11 active torsions:
REMARK  status: ('A' for Active; 'I' for Inactive)
REMARK    1  A    between atoms: C_1  and  C_2
REMARK    2  A    between atoms: C_6  and  N_7
REMARK    3  A    between atoms: N_10  and  C_11
REMARK    4  A    between atoms: C_11  and  C_12
REMARK    5  A    between atoms: C_12  and  C_13
REMARK    6  A    between atoms: C_13  and  C_14
REMARK    7  A    between atoms: C_13  and  C_15
REMARK    8  A    between atoms: C_13  and  C_16
REMARK    9  A    between atoms: C_18  and  N_19
REMARK   10  A    between atoms: N_19  and  C_20
REMARK   11  A    between atoms: N_26  and  C_27
REMARK                            x       y       z     vdW  Elec       q    Type
REMARK                         _______ _______ _______ _____ _____    ______ ____
ROOT
ATOM      1  C   UNL     1       3.187   2.974  16.482  0.00  0.00    +0.000 C 
ATOM      2  C   UNL     1       4.220   3.912  17.055  0.00  0.00    +0.000 A 
ATOM      3  C   UNL     1       5.548   3.752  16.605  0.00  0.00    +0.000 A 
ATOM      4  C   UNL     1       6.588   4.548  17.099  0.00  0.00    +0.000 A 
ATOM      5  F   UNL     1       7.830   4.331  16.647  0.00  0.00    +0.000 F 
ATOM      6  C   UNL     1       6.361   5.501  18.085  0.00  0.00    +0.000 A 
ATOM      7  C   UNL     1       5.046   5.671  18.518  0.00  0.00    +0.000 A 
ATOM      8  C   UNL     1       3.961   4.885  18.049  0.00  0.00    +0.000 A 
ENDROOT
BRANCH   6   9
ATOM      9  N   UNL     1       7.405   6.326  18.588  0.00  0.00    +0.000 N 
ATOM     10  C   UNL     1       7.630   7.600  18.092  0.00  0.00    +0.000 C 
ATOM     11  O   UNL     1       7.024   8.087  17.172  0.00  0.00    +0.000 OA
ATOM     12  N   UNL     1       8.654   8.281  18.747  0.00  0.00    +0.000 N 
ATOM     13  H   UNL     1       7.809   6.067  19.470  0.00  0.00    +0.000 HD
ATOM     14  H   UNL     1       9.074   7.930  19.595  0.00  0.00    +0.000 HD
BRANCH  12  15
ATOM     15  C   UNL     1       8.933   9.636  18.295  0.00  0.00    +0.000 C 
BRANCH  15  16
ATOM     16  C   UNL     1       9.355  10.631  19.387  0.00  0.00    +0.000 C 
BRANCH  16  17
ATOM     17  C   UNL     1       9.998  11.938  18.818  0.00  0.00    +0.000 C 
ATOM     18  C   UNL     1      10.509  12.847  19.952  0.00  0.00    +0.000 C 
ATOM     19  C   UNL     1      11.185  11.593  17.892  0.00  0.00    +0.000 C 
ATOM     20  C   UNL     1       8.965  12.723  17.991  0.00  0.00    +0.000 C 
ENDBRANCH  16  17
ENDBRANCH  15  16
ENDBRANCH  12  15
ENDBRANCH   6   9
BRANCH   8  21
ATOM     21  N   UNL     1       2.674   5.151  18.588  0.00  0.00    +0.000 N 
ATOM     22  H   UNL     1       2.228   4.350  19.027  0.00  0.00    +0.000 HD
BRANCH  21  23
ATOM     23  C   UNL     1       2.300   6.348  19.269  0.00  0.00    +0.000 A 
ATOM     24  C   UNL     1       1.838   6.303  20.594  0.00  0.00    +0.000 A 
ATOM     25  C   UNL     1       1.376   7.443  21.246  0.00  0.00    +0.000 A 
ATOM     26  C   UNL     1       1.311   8.656  20.569  0.00  0.00    +0.000 A 
ATOM     27  N   UNL     1       0.731   9.745  21.234  0.00  0.00    +0.000 NA
ATOM     28  C   UNL     1       0.607  10.848  20.578  0.00  0.00    +0.000 A 
ATOM     29  N   UNL     1       1.017  11.034  19.285  0.00  0.00    +0.000 N 
ATOM     30  C   UNL     1       0.830  12.315  18.634  0.00  0.00    +0.000 C 
ATOM     31  C   UNL     1       1.622  10.016  18.553  0.00  0.00    +0.000 A 
ATOM     32  O   UNL     1       1.986  10.159  17.389  0.00  0.00    +0.000 OA
ATOM     33  C   UNL     1       1.777   8.728  19.253  0.00  0.00    +0.000 A 
ATOM     34  C   UNL     1       2.296   7.593  18.618  0.00  0.00    +0.000 A 
ATOM     35  F   UNL     1       2.780   7.667  17.369  0.00  0.00    +0.000 F 
ENDBRANCH  21  23
ENDBRANCH   8  21
TORSDOF 6
ENDMDL
MODEL 3
REMARK VINA RESULT:      -8.4      1.405      1.907
REMARK  Name = 
REMARK  11 active torsions:
REMARK  status: ('A' for Active; 'I' for Inactive)
REMARK    1  A    between atoms: C_1  and  C_2
REMARK    2  A    between atoms: C_6  and  N_7
REMARK    3  A    between atoms: N_10  and  C_11
REMARK    4  A    between atoms: C_11  and  C_12
REMARK    5  A    between atoms: C_12  and  C_13
REMARK    6  A    between atoms: C_13  and  C_14
REMARK    7  A    between atoms: C_13  and  C_15
REMARK    8  A    between atoms: C_13  and  C_16
REMARK    9  A    between atoms: C_18  and  N_19
REMARK   10  A    between atoms: N_19  and  C_20
REMARK   11  A    between atoms: N_26  and  C_27
REMARK                            x       y       z     vdW  Elec       q    Type
REMARK                         _______ _______ _______ _____ _____    ______ ____
ROOT
ATOM      1  C   UNL     1       3.554   3.465  16.675  0.00  0.00    +0.000 C 
ATOM      2  C   UNL     1       4.615   4.426  17.152  0.00  0.00    +0.000 A 
ATOM      3  C   UNL     1       5.939   3.942  17.202  0.00  0.00    +0.000 A 
ATOM      4  C   UNL     1       6.992   4.741  17.663  0.00  0.00    +0.000 A 
ATOM      5  F   UNL     1       8.223   4.215  17.707  0.00  0.00    +0.000 F 
ATOM      6  C   UNL     1       6.768   6.033  18.127  0.00  0.00    +0.000 A 
ATOM      7  C   UNL     1       5.462   6.517  18.061  0.00  0.00    +0.000 A 
ATOM      8  C   UNL     1       4.363   5.742  17.607  0.00  0.00    +0.000 A 
ENDROOT
BRANCH   6   9
ATOM      9  N   UNL     1       7.830   6.861  18.586  0.00  0.00    +0.000 N 
ATOM     10  C   UNL     1       7.972   8.170  18.152  0.00  0.00    +0.000 C 
ATOM     11  O   UNL     1       7.270   8.689  17.322  0.00  0.00    +0.000 OA
ATOM     12  N   UNL     1       9.031   8.845  18.755  0.00  0.00    +0.000 N 
ATOM     13  H   UNL     1       8.320   6.564  19.410  0.00  0.00    +0.000 HD
ATOM     14  H   UNL     1       9.537   8.458  19.538  0.00  0.00    +0.000 HD
BRANCH  12  15
ATOM     15  C   UNL     1       9.229  10.233  18.366  0.00  0.00    +0.000 C 
BRANCH  15  16
ATOM     16  C   UNL     1       9.681  11.183  19.486  0.00  0.00    +0.000 C 
BRANCH  16  17
ATOM     17  C   UNL     1      10.852  12.128  19.060  0.00  0.00    +0.000 C 
ATOM     18  C   UNL     1      12.172  11.721  19.742  0.00  0.00    +0.000 C 
ATOM     19  C   UNL     1      11.054  12.078  17.530  0.00  0.00    +0.000 C 
ATOM     20  C   UNL     1      10.531  13.582  19.448  0.00  0.00    +0.000 C 
ENDBRANCH  16  17
ENDBRANCH  15  16
ENDBRANCH  12  15
ENDBRANCH   6   9
BRANCH   8  21
ATOM     21  N   UNL     1       3.081   6.353  17.609  0.00  0.00    +0.000 N 
ATOM     22  H   UNL     1       2.365   5.833  17.110  0.00  0.00    +0.000 HD
BRANCH  21  23
ATOM     23  C   UNL     1       2.498   7.036  18.720  0.00  0.00    +0.000 A 
ATOM     24  C   UNL     1       2.244   6.356  19.923  0.00  0.00    +0.000 A 
ATOM     25  C   UNL     1       1.588   6.974  20.985  0.00  0.00    +0.000 A 
ATOM     26  C   UNL     1       1.119   8.275  20.854  0.00  0.00    +0.000 A 
ATOM     27  N   UNL     1       0.365   8.808  21.909  0.00  0.00    +0.000 NA
ATOM     28  C   UNL     1      -0.129   9.988  21.753  0.00  0.00    +0.000 A 
ATOM     29  N   UNL     1       0.044  10.763  20.638  0.00  0.00    +0.000 N 
ATOM     30  C   UNL     1      -0.557  12.080  20.560  0.00  0.00    +0.000 C 
ATOM     31  C   UNL     1       0.793  10.326  19.550  0.00  0.00    +0.000 A 
ATOM     32  O   UNL     1       0.950  11.000  18.535  0.00  0.00    +0.000 OA
ATOM     33  C   UNL     1       1.371   8.976  19.670  0.00  0.00    +0.000 A 
ATOM     34  C   UNL     1       2.082   8.373  18.624  0.00  0.00    +0.000 A 
ATOM     35  F   UNL     1       2.361   9.055  17.503  0.00  0.00    +0.000 F 
ENDBRANCH  21  23
ENDBRANCH   8  21
TORSDOF 6
ENDMDL
MODEL 4
REMARK VINA RESULT:      -8.3      4.441      5.609
REMARK  Name = 
REMARK  11 active torsions:
REMARK  status: ('A' for Active; 'I' for Inactive)
REMARK    1  A    between atoms: C_1  and  C_2
REMARK    2  A    between atoms: C_6  and  N_7
REMARK    3  A    between atoms: N_10  and  C_11
REMARK    4  A    between atoms: C_11  and  C_12
REMARK    5  A    between atoms: C_12  and  C_13
REMARK    6  A    between atoms: C_13  and  C_14
REMARK    7  A    between atoms: C_13  and  C_15
REMARK    8  A    between atoms: C_13  and  C_16
REMARK    9  A    between atoms: C_18  and  N_19
REMARK   10  A    between atoms: N_19  and  C_20
REMARK   11  A    between atoms: N_26  and  C_27
REMARK                            x       y       z     vdW  Elec       q    Type
REMARK                         _______ _______ _______ _____ _____    ______ ____
ROOT
ATOM      1  C   UNL     1       0.898   3.625  21.094  0.00  0.00    +0.000 C 
ATOM      2  C   UNL     1       2.120   3.800  20.227  0.00  0.00    +0.000 A 
ATOM      3  C   UNL     1       2.573   2.665  19.523  0.00  0.00    +0.000 A 
ATOM      4  C   UNL     1       3.717   2.712  18.718  0.00  0.00    +0.000 A 
ATOM      5  F   UNL     1       4.107   1.593  18.094  0.00  0.00    +0.000 F 
ATOM      6  C   UNL     1       4.478   3.871  18.613  0.00  0.00    +0.000 A 
ATOM      7  C   UNL     1       4.021   4.998  19.295  0.00  0.00    +0.000 A 
ATOM      8  C   UNL     1       2.870   4.996  20.125  0.00  0.00    +0.000 A 
ENDROOT
BRANCH   6   9
ATOM      9  N   UNL     1       5.636   3.938  17.790  0.00  0.00    +0.000 N 
ATOM     10  C   UNL     1       5.545   4.077  16.414  0.00  0.00    +0.000 C 
ATOM     11  O   UNL     1       4.509   4.088  15.801  0.00  0.00    +0.000 OA
ATOM     12  N   UNL     1       6.781   4.187  15.782  0.00  0.00    +0.000 N 
ATOM     13  H   UNL     1       6.511   4.134  18.244  0.00  0.00    +0.000 HD
ATOM     14  H   UNL     1       7.640   4.308  16.300  0.00  0.00    +0.000 HD
BRANCH  12  15
ATOM     15  C   UNL     1       6.765   4.360  14.337  0.00  0.00    +0.000 C 
BRANCH  15  16
ATOM     16  C   UNL     1       6.278   3.150  13.525  0.00  0.00    +0.000 C 
BRANCH  16  17
ATOM     17  C   UNL     1       6.331   3.381  11.979  0.00  0.00    +0.000 C 
ATOM     18  C   UNL     1       6.956   2.172  11.256  0.00  0.00    +0.000 C 
ATOM     19  C   UNL     1       4.910   3.607  11.420  0.00  0.00    +0.000 C 
ATOM     20  C   UNL     1       7.172   4.629  11.656  0.00  0.00    +0.000 C 
ENDBRANCH  16  17
ENDBRANCH  15  16
ENDBRANCH  12  15
ENDBRANCH   6   9
BRANCH   8  21
ATOM     21  N   UNL     1       2.526   6.210  20.778  0.00  0.00    +0.000 N 
ATOM     22  H   UNL     1       3.167   6.487  21.517  0.00  0.00    +0.000 HD
BRANCH  21  23
ATOM     23  C   UNL     1       2.000   7.370  20.133  0.00  0.00    +0.000 A 
ATOM     24  C   UNL     1       2.287   7.628  18.782  0.00  0.00    +0.000 A 
ATOM     25  C   UNL     1       1.867   8.800  18.159  0.00  0.00    +0.000 A 
ATOM     26  C   UNL     1       1.193   9.775  18.885  0.00  0.00    +0.000 A 
ATOM     27  N   UNL     1       0.895  10.982  18.238  0.00  0.00    +0.000 NA
ATOM     28  C   UNL     1       0.335  11.911  18.937  0.00  0.00    +0.000 A 
ATOM     29  N   UNL     1      -0.004  11.793  20.257  0.00  0.00    +0.000 N 
ATOM     30  C   UNL     1      -0.631  12.898  20.955  0.00  0.00    +0.000 C 
ATOM     31  C   UNL     1       0.234  10.624  20.975  0.00  0.00    +0.000 A 
ATOM     32  O   UNL     1      -0.052  10.503  22.164  0.00  0.00    +0.000 OA
ATOM     33  C   UNL     1       0.885   9.534  20.227  0.00  0.00    +0.000 A 
ATOM     34  C   UNL     1       1.257   8.330  20.838  0.00  0.00    +0.000 A 
ATOM     35  F   UNL     1       0.929   8.079  22.115  0.00  0.00    +0.000 F 
ENDBRANCH  21  23
ENDBRANCH   8  21
TORSDOF 6
ENDMDL
MODEL 5
REMARK VINA RESULT:      -7.8      3.602      7.132
REMARK  Name = 
REMARK  11 active torsions:
REMARK  status: ('A' for Active; 'I' for Inactive)
REMARK    1  A    between atoms: C_1  and  C_2
REMARK    2  A    between atoms: C_6  and  N_7
REMARK    3  A    between atoms: N_10  and  C_11
REMARK    4  A    between atoms: C_11  and  C_12
REMARK    5  A    between atoms: C_12  and  C_13
REMARK    6  A    between atoms: C_13  and  C_14
REMARK    7  A    between atoms: C_13  and  C_15
REMARK    8  A    between atoms: C_13  and  C_16
REMARK    9  A    between atoms: C_18  and  N_19
REMARK   10  A    between atoms: N_19  and  C_20
REMARK   11  A    between atoms: N_26  and  C_27
REMARK                            x       y       z     vdW  Elec       q    Type
REMARK                         _______ _______ _______ _____ _____    ______ ____
ROOT
ATOM      1  C   UNL     1      -1.750  10.014  18.190  0.00  0.00    +0.000 C 
ATOM      2  C   UNL     1      -0.809  11.085  18.682  0.00  0.00    +0.000 A 
ATOM      3  C   UNL     1      -1.029  12.396  18.211  0.00  0.00    +0.000 A 
ATOM      4  C   UNL     1      -0.192  13.456  18.579  0.00  0.00    +0.000 A 
ATOM      5  F   UNL     1      -0.442  14.673  18.080  0.00  0.00    +0.000 F 
ATOM      6  C   UNL     1       0.917  13.250  19.393  0.00  0.00    +0.000 A 
ATOM      7  C   UNL     1       1.126  11.957  19.873  0.00  0.00    +0.000 A 
ATOM      8  C   UNL     1       0.306  10.852  19.522  0.00  0.00    +0.000 A 
ENDROOT
BRANCH   6   9
ATOM      9  N   UNL     1       1.769  14.319  19.786  0.00  0.00    +0.000 N 
ATOM     10  C   UNL     1       2.717  14.849  18.926  0.00  0.00    +0.000 C 
ATOM     11  O   UNL     1       2.945  14.423  17.823  0.00  0.00    +0.000 OA
ATOM     12  N   UNL     1       3.416  15.928  19.462  0.00  0.00    +0.000 N 
ATOM     13  H   UNL     1       1.503  14.842  20.601  0.00  0.00    +0.000 HD
ATOM     14  H   UNL     1       3.142  16.367  20.330  0.00  0.00    +0.000 HD
BRANCH  12  15
ATOM     15  C   UNL     1       4.414  16.553  18.607  0.00  0.00    +0.000 C 
BRANCH  15  16
ATOM     16  C   UNL     1       5.757  16.881  19.276  0.00  0.00    +0.000 C 
BRANCH  16  17
ATOM     17  C   UNL     1       6.859  15.802  19.013  0.00  0.00    +0.000 C 
ATOM     18  C   UNL     1       7.083  14.920  20.255  0.00  0.00    +0.000 C 
ATOM     19  C   UNL     1       6.451  14.895  17.833  0.00  0.00    +0.000 C 
ATOM     20  C   UNL     1       8.192  16.481  18.650  0.00  0.00    +0.000 C 
ENDBRANCH  16  17
ENDBRANCH  15  16
ENDBRANCH  12  15
ENDBRANCH   6   9
BRANCH   8  21
ATOM     21  N   UNL     1       0.643   9.584  20.067  0.00  0.00    +0.000 N 
ATOM     22  H   UNL     1      -0.136   9.088  20.493  0.00  0.00    +0.000 HD
BRANCH  21  23
ATOM     23  C   UNL     1       1.548   8.651  19.478  0.00  0.00    +0.000 A 
ATOM     24  C   UNL     1       2.091   8.889  18.204  0.00  0.00    +0.000 A 
ATOM     25  C   UNL     1       2.898   7.949  17.568  0.00  0.00    +0.000 A 
ATOM     26  C   UNL     1       3.142   6.718  18.167  0.00  0.00    +0.000 A 
ATOM     27  N   UNL     1       3.864   5.767  17.434  0.00  0.00    +0.000 NA
ATOM     28  C   UNL     1       4.026   4.602  17.964  0.00  0.00    +0.000 A 
ATOM     29  N   UNL     1       3.557   4.237  19.197  0.00  0.00    +0.000 N 
ATOM     30  C   UNL     1       3.791   2.899  19.704  0.00  0.00    +0.000 C 
ATOM     31  C   UNL     1       2.848   5.122  20.004  0.00  0.00    +0.000 A 
ATOM     32  O   UNL     1       2.408   4.810  21.108  0.00  0.00    +0.000 OA
ATOM     33  C   UNL     1       2.623   6.465  19.440  0.00  0.00    +0.000 A 
ATOM     34  C   UNL     1       1.859   7.433  20.104  0.00  0.00    +0.000 A 
ATOM     35  F   UNL     1       1.393   7.209  21.342  0.00  0.00    +0.000 F 
ENDBRANCH  21  23
ENDBRANCH   8  21
TORSDOF 6
ENDMDL
MODEL 6
REMARK VINA RESULT:      -7.7      4.975      8.691
REMARK  Name = 
REMARK  11 active torsions:
REMARK  status: ('A' for Active; 'I' for Inactive)
REMARK    1  A    between atoms: C_1  and  C_2
REMARK    2  A    between atoms: C_6  and  N_7
REMARK    3  A    between atoms: N_10  and  C_11
REMARK    4  A    between atoms: C_11  and  C_12
REMARK    5  A    between atoms: C_12  and  C_13
REMARK    6  A    between atoms: C_13  and  C_14
REMARK    7  A    between atoms: C_13  and  C_15
REMARK    8  A    between atoms: C_13  and  C_16
REMARK    9  A    between atoms: C_18  and  N_19
REMARK   10  A    between atoms: N_19  and  C_20
REMARK   11  A    between atoms: N_26  and  C_27
REMARK                            x       y       z     vdW  Elec       q    Type
REMARK                         _______ _______ _______ _____ _____    ______ ____
ROOT
ATOM      1  C   UNL     1      -0.302  14.717  19.395  0.00  0.00    +0.000 C 
ATOM      2  C   UNL     1       0.203  13.354  18.989  0.00  0.00    +0.000 A 
ATOM      3  C   UNL     1       1.555  13.264  18.597  0.00  0.00    +0.000 A 
ATOM      4  C   UNL     1       2.113  12.053  18.169  0.00  0.00    +0.000 A 
ATOM      5  F   UNL     1       3.397  12.039  17.790  0.00  0.00    +0.000 F 
ATOM      6  C   UNL     1       1.344  10.898  18.074  0.00  0.00    +0.000 A 
ATOM      7  C   UNL     1       0.012  10.983  18.477  0.00  0.00    +0.000 A 
ATOM      8  C   UNL     1      -0.597  12.189  18.913  0.00  0.00    +0.000 A 
ENDROOT
BRANCH   6   9
ATOM      9  N   UNL     1       1.900   9.658  17.653  0.00  0.00    +0.000 N 
ATOM     10  C   UNL     1       2.013   8.581  18.517  0.00  0.00    +0.000 C 
ATOM     11  O   UNL     1       1.722   8.614  19.685  0.00  0.00    +0.000 OA
ATOM     12  N   UNL     1       2.523   7.433  17.913  0.00  0.00    +0.000 N 
ATOM     13  H   UNL     1       1.974   9.501  16.664  0.00  0.00    +0.000 HD
ATOM     14  H   UNL     1       2.646   7.363  16.913  0.00  0.00    +0.000 HD
BRANCH  12  15
ATOM     15  C   UNL     1       2.649   6.252  18.753  0.00  0.00    +0.000 C 
BRANCH  15  16
ATOM     16  C   UNL     1       2.089   4.949  18.163  0.00  0.00    +0.000 C 
BRANCH  16  17
ATOM     17  C   UNL     1       1.891   3.822  19.230  0.00  0.00    +0.000 C 
ATOM     18  C   UNL     1       3.235   3.175  19.613  0.00  0.00    +0.000 C 
ATOM     19  C   UNL     1       1.243   4.399  20.507  0.00  0.00    +0.000 C 
ATOM     20  C   UNL     1       0.961   2.726  18.680  0.00  0.00    +0.000 C 
ENDBRANCH  16  17
ENDBRANCH  15  16
ENDBRANCH  12  15
ENDBRANCH   6   9
BRANCH   8  21
ATOM     21  N   UNL     1      -1.969  12.140  19.277  0.00  0.00    +0.000 N 
ATOM     22  H   UNL     1      -2.513  11.441  18.778  0.00  0.00    +0.000 HD
BRANCH  21  23
ATOM     23  C   UNL     1      -2.473  12.288  20.605  0.00  0.00    +0.000 A 
ATOM     24  C   UNL     1      -1.736  11.818  21.705  0.00  0.00    +0.000 A 
ATOM     25  C   UNL     1      -2.249  11.864  22.999  0.00  0.00    +0.000 A 
ATOM     26  C   UNL     1      -3.539  12.331  23.223  0.00  0.00    +0.000 A 
ATOM     27  N   UNL     1      -4.047  12.247  24.527  0.00  0.00    +0.000 NA
ATOM     28  C   UNL     1      -5.269  12.614  24.716  0.00  0.00    +0.000 A 
ATOM     29  N   UNL     1      -6.096  13.095  23.738  0.00  0.00    +0.000 N 
ATOM     30  C   UNL     1      -7.458  13.480  24.053  0.00  0.00    +0.000 C 
ATOM     31  C   UNL     1      -5.672  13.233  22.419  0.00  0.00    +0.000 A 
ATOM     32  O   UNL     1      -6.403  13.651  21.525  0.00  0.00    +0.000 OA
ATOM     33  C   UNL     1      -4.286  12.815  22.145  0.00  0.00    +0.000 A 
ATOM     34  C   UNL     1      -3.747  12.823  20.852  0.00  0.00    +0.000 A 
ATOM     35  F   UNL     1      -4.445  13.323  19.822  0.00  0.00    +0.000 F 
ENDBRANCH  21  23
ENDBRANCH   8  21
TORSDOF 6
ENDMDL
MODEL 7
REMARK VINA RESULT:      -7.6      1.086      1.163
REMARK  Name = 
REMARK  11 active torsions:
REMARK  status: ('A' for Active; 'I' for Inactive)
REMARK    1  A    between atoms: C_1  and  C_2
REMARK    2  A    between atoms: C_6  and  N_7
REMARK    3  A    between atoms: N_10  and  C_11
REMARK    4  A    between atoms: C_11  and  C_12
REMARK    5  A    between atoms: C_12  and  C_13
REMARK    6  A    between atoms: C_13  and  C_14
REMARK    7  A    between atoms: C_13  and  C_15
REMARK    8  A    between atoms: C_13  and  C_16
REMARK    9  A    between atoms: C_18  and  N_19
REMARK   10  A    between atoms: N_19  and  C_20
REMARK   11  A    between atoms: N_26  and  C_27
REMARK                            x       y       z     vdW  Elec       q    Type
REMARK                         _______ _______ _______ _____ _____    ______ ____
ROOT
ATOM      1  C   UNL     1       1.538   4.000  17.876  0.00  0.00    +0.000 C 
ATOM      2  C   UNL     1       2.884   4.679  17.920  0.00  0.00    +0.000 A 
ATOM      3  C   UNL     1       3.911   4.114  17.136  0.00  0.00    +0.000 A 
ATOM      4  C   UNL     1       5.206   4.646  17.133  0.00  0.00    +0.000 A 
ATOM      5  F   UNL     1       6.142   4.050  16.383  0.00  0.00    +0.000 F 
ATOM      6  C   UNL     1       5.542   5.731  17.936  0.00  0.00    +0.000 A 
ATOM      7  C   UNL     1       4.523   6.300  18.699  0.00  0.00    +0.000 A 
ATOM      8  C   UNL     1       3.198   5.792  18.737  0.00  0.00    +0.000 A 
ENDROOT
BRANCH   6   9
ATOM      9  N   UNL     1       6.850   6.291  17.935  0.00  0.00    +0.000 N 
ATOM     10  C   UNL     1       7.056   7.658  17.858  0.00  0.00    +0.000 C 
ATOM     11  O   UNL     1       6.177   8.471  17.723  0.00  0.00    +0.000 OA
ATOM     12  N   UNL     1       8.398   8.025  17.931  0.00  0.00    +0.000 N 
ATOM     13  H   UNL     1       7.602   5.700  18.240  0.00  0.00    +0.000 HD
ATOM     14  H   UNL     1       9.122   7.364  18.172  0.00  0.00    +0.000 HD
BRANCH  12  15
ATOM     15  C   UNL     1       8.692   9.449  17.881  0.00  0.00    +0.000 C 
BRANCH  15  16
ATOM     16  C   UNL     1       9.296  10.053  19.157  0.00  0.00    +0.000 C 
BRANCH  16  17
ATOM     17  C   UNL     1       9.927  11.467  18.934  0.00  0.00    +0.000 C 
ATOM     18  C   UNL     1      10.400  12.082  20.265  0.00  0.00    +0.000 C 
ATOM     19  C   UNL     1      11.137  11.371  17.980  0.00  0.00    +0.000 C 
ATOM     20  C   UNL     1       8.896  12.415  18.298  0.00  0.00    +0.000 C 
ENDBRANCH  16  17
ENDBRANCH  15  16
ENDBRANCH  12  15
ENDBRANCH   6   9
BRANCH   8  21
ATOM     21  N   UNL     1       2.261   6.457  19.572  0.00  0.00    +0.000 N 
ATOM     22  H   UNL     1       2.396   6.297  20.567  0.00  0.00    +0.000 HD
BRANCH  21  23
ATOM     23  C   UNL     1       1.760   7.776  19.356  0.00  0.00    +0.000 A 
ATOM     24  C   UNL     1       1.871   8.386  18.096  0.00  0.00    +0.000 A 
ATOM     25  C   UNL     1       1.478   9.705  17.887  0.00  0.00    +0.000 A 
ATOM     26  C   UNL     1       1.011  10.472  18.948  0.00  0.00    +0.000 A 
ATOM     27  N   UNL     1       0.739  11.825  18.706  0.00  0.00    +0.000 NA
ATOM     28  C   UNL     1       0.376  12.549  19.710  0.00  0.00    +0.000 A 
ATOM     29  N   UNL     1       0.222  12.085  20.988  0.00  0.00    +0.000 N 
ATOM     30  C   UNL     1      -0.189  12.983  22.050  0.00  0.00    +0.000 C 
ATOM     31  C   UNL     1       0.450  10.752  21.318  0.00  0.00    +0.000 A 
ATOM     32  O   UNL     1       0.330  10.319  22.461  0.00  0.00    +0.000 OA
ATOM     33  C   UNL     1       0.880   9.882  20.209  0.00  0.00    +0.000 A 
ATOM     34  C   UNL     1       1.221   8.538  20.406  0.00  0.00    +0.000 A 
ATOM     35  F   UNL     1       1.059   7.958  21.604  0.00  0.00    +0.000 F 
ENDBRANCH  21  23
ENDBRANCH   8  21
TORSDOF 6
ENDMDL
MODEL 8
REMARK VINA RESULT:      -7.5      3.147      6.714
REMARK  Name = 
REMARK  11 active torsions:
REMARK  status: ('A' for Active; 'I' for Inactive)
REMARK    1  A    between atoms: C_1  and  C_2
REMARK    2  A    between atoms: C_6  and  N_7
REMARK    3  A    between atoms: N_10  and  C_11
REMARK    4  A    between atoms: C_11  and  C_12
REMARK    5  A    between atoms: C_12  and  C_13
REMARK    6  A    between atoms: C_13  and  C_14
REMARK    7  A    between atoms: C_13  and  C_15
REMARK    8  A    between atoms: C_13  and  C_16
REMARK    9  A    between atoms: C_18  and  N_19
REMARK   10  A    between atoms: N_19  and  C_20
REMARK   11  A    between atoms: N_26  and  C_27
REMARK                            x       y       z     vdW  Elec       q    Type
REMARK                         _______ _______ _______ _____ _____    ______ ____
ROOT
ATOM      1  C   UNL     1      -1.804  11.689  20.352  0.00  0.00    +0.000 C 
ATOM      2  C   UNL     1      -0.497  12.104  19.722  0.00  0.00    +0.000 A 
ATOM      3  C   UNL     1      -0.396  13.441  19.283  0.00  0.00    +0.000 A 
ATOM      4  C   UNL     1       0.761  13.918  18.654  0.00  0.00    +0.000 A 
ATOM      5  F   UNL     1       0.785  15.191  18.240  0.00  0.00    +0.000 F 
ATOM      6  C   UNL     1       1.842  13.081  18.401  0.00  0.00    +0.000 A 
ATOM      7  C   UNL     1       1.749  11.764  18.851  0.00  0.00    +0.000 A 
ATOM      8  C   UNL     1       0.595  11.236  19.488  0.00  0.00    +0.000 A 
ENDROOT
BRANCH   6   9
ATOM      9  N   UNL     1       3.028  13.554  17.775  0.00  0.00    +0.000 N 
ATOM     10  C   UNL     1       4.026  14.192  18.494  0.00  0.00    +0.000 C 
ATOM     11  O   UNL     1       3.955  14.455  19.667  0.00  0.00    +0.000 OA
ATOM     12  N   UNL     1       5.138  14.529  17.725  0.00  0.00    +0.000 N 
ATOM     13  H   UNL     1       3.237  13.197  16.860  0.00  0.00    +0.000 HD
ATOM     14  H   UNL     1       5.256  14.198  16.779  0.00  0.00    +0.000 HD
BRANCH  12  15
ATOM     15  C   UNL     1       6.239  15.182  18.417  0.00  0.00    +0.000 C 
BRANCH  15  16
ATOM     16  C   UNL     1       7.592  15.162  17.690  0.00  0.00    +0.000 C 
BRANCH  16  17
ATOM     17  C   UNL     1       8.552  14.038  18.202  0.00  0.00    +0.000 C 
ATOM     18  C   UNL     1       8.266  12.697  17.499  0.00  0.00    +0.000 C 
ATOM     19  C   UNL     1      10.023  14.426  17.939  0.00  0.00    +0.000 C 
ATOM     20  C   UNL     1       8.379  13.840  19.718  0.00  0.00    +0.000 C 
ENDBRANCH  16  17
ENDBRANCH  15  16
ENDBRANCH  12  15
ENDBRANCH   6   9
BRANCH   8  21
ATOM     21  N   UNL     1       0.627   9.871  19.879  0.00  0.00    +0.000 N 
ATOM     22  H   UNL     1      -0.288   9.459  20.047  0.00  0.00    +0.000 HD
BRANCH  21  23
ATOM     23  C   UNL     1       1.512   8.884  19.349  0.00  0.00    +0.000 A 
ATOM     24  C   UNL     1       2.060   9.032  18.064  0.00  0.00    +0.000 A 
ATOM     25  C   UNL     1       2.847   8.038  17.488  0.00  0.00    +0.000 A 
ATOM     26  C   UNL     1       3.065   6.842  18.161  0.00  0.00    +0.000 A 
ATOM     27  N   UNL     1       3.767   5.832  17.489  0.00  0.00    +0.000 NA
ATOM     28  C   UNL     1       3.903   4.698  18.089  0.00  0.00    +0.000 A 
ATOM     29  N   UNL     1       3.426   4.419  19.340  0.00  0.00    +0.000 N 
ATOM     30  C   UNL     1       3.630   3.110  19.928  0.00  0.00    +0.000 C 
ATOM     31  C   UNL     1       2.735   5.366  20.091  0.00  0.00    +0.000 A 
ATOM     32  O   UNL     1       2.288   5.132  21.211  0.00  0.00    +0.000 OA
ATOM     33  C   UNL     1       2.540   6.677  19.446  0.00  0.00    +0.000 A 
ATOM     34  C   UNL     1       1.796   7.700  20.048  0.00  0.00    +0.000 A 
ATOM     35  F   UNL     1       1.325   7.562  21.297  0.00  0.00    +0.000 F 
ENDBRANCH  21  23
ENDBRANCH   8  21
TORSDOF 6
ENDMDL
MODEL 9
REMARK VINA RESULT:      -7.4      0.976      1.208
REMARK  Name = 
REMARK  11 active torsions:
REMARK  status: ('A' for Active; 'I' for Inactive)
REMARK    1  A    between atoms: C_1  and  C_2
REMARK    2  A    between atoms: C_6  and  N_7
REMARK    3  A    between atoms: N_10  and  C_11
REMARK    4  A    between atoms: C_11  and  C_12
REMARK    5  A    between atoms: C_12  and  C_13
REMARK    6  A    between atoms: C_13  and  C_14
REMARK    7  A    between atoms: C_13  and  C_15
REMARK    8  A    between atoms: C_13  and  C_16
REMARK    9  A    between atoms: C_18  and  N_19
REMARK   10  A    between atoms: N_19  and  C_20
REMARK   11  A    between atoms: N_26  and  C_27
REMARK                            x       y       z     vdW  Elec       q    Type
REMARK                         _______ _______ _______ _____ _____    ______ ____
ROOT
ATOM      1  C   UNL     1       4.012   3.399  17.383  0.00  0.00    +0.000 C 
ATOM      2  C   UNL     1       4.732   4.723  17.315  0.00  0.00    +0.000 A 
ATOM      3  C   UNL     1       5.956   4.750  16.614  0.00  0.00    +0.000 A 
ATOM      4  C   UNL     1       6.720   5.919  16.521  0.00  0.00    +0.000 A 
ATOM      5  F   UNL     1       7.883   5.873  15.860  0.00  0.00    +0.000 F 
ATOM      6  C   UNL     1       6.323   7.092  17.153  0.00  0.00    +0.000 A 
ATOM      7  C   UNL     1       5.105   7.071  17.832  0.00  0.00    +0.000 A 
ATOM      8  C   UNL     1       4.300   5.908  17.956  0.00  0.00    +0.000 A 
ENDROOT
BRANCH   6   9
ATOM      9  N   UNL     1       7.082   8.291  17.058  0.00  0.00    +0.000 N 
ATOM     10  C   UNL     1       8.079   8.597  17.970  0.00  0.00    +0.000 C 
ATOM     11  O   UNL     1       8.343   7.928  18.936  0.00  0.00    +0.000 OA
ATOM     12  N   UNL     1       8.755   9.780  17.681  0.00  0.00    +0.000 N 
ATOM     13  H   UNL     1       7.052   8.784  16.183  0.00  0.00    +0.000 HD
ATOM     14  H   UNL     1       8.626  10.273  16.809  0.00  0.00    +0.000 HD
BRANCH  12  15
ATOM     15  C   UNL     1       9.833  10.155  18.583  0.00  0.00    +0.000 C 
BRANCH  15  16
ATOM     16  C   UNL     1       9.616  11.448  19.385  0.00  0.00    +0.000 C 
BRANCH  16  17
ATOM     17  C   UNL     1      10.570  12.610  18.954  0.00  0.00    +0.000 C 
ATOM     18  C   UNL     1      12.048  12.209  19.123  0.00  0.00    +0.000 C 
ATOM     19  C   UNL     1      10.328  12.985  17.477  0.00  0.00    +0.000 C 
ATOM     20  C   UNL     1      10.303  13.861  19.810  0.00  0.00    +0.000 C 
ENDBRANCH  16  17
ENDBRANCH  15  16
ENDBRANCH  12  15
ENDBRANCH   6   9
BRANCH   8  21
ATOM     21  N   UNL     1       3.090   6.020  18.692  0.00  0.00    +0.000 N 
ATOM     22  H   UNL     1       3.087   5.520  19.577  0.00  0.00    +0.000 HD
BRANCH  21  23
ATOM     23  C   UNL     1       2.303   7.206  18.803  0.00  0.00    +0.000 A 
ATOM     24  C   UNL     1       2.183   8.089  17.717  0.00  0.00    +0.000 A 
ATOM     25  C   UNL     1       1.502   9.298  17.831  0.00  0.00    +0.000 A 
ATOM     26  C   UNL     1       0.966   9.685  19.054  0.00  0.00    +0.000 A 
ATOM     27  N   UNL     1       0.392  10.961  19.141  0.00  0.00    +0.000 NA
ATOM     28  C   UNL     1      -0.039  11.344  20.295  0.00  0.00    +0.000 A 
ATOM     29  N   UNL     1       0.010  10.585  21.433  0.00  0.00    +0.000 N 
ATOM     30  C   UNL     1      -0.501  11.109  22.685  0.00  0.00    +0.000 C 
ATOM     31  C   UNL     1       0.542   9.299  21.438  0.00  0.00    +0.000 A 
ATOM     32  O   UNL     1       0.605   8.608  22.450  0.00  0.00    +0.000 OA
ATOM     33  C   UNL     1       1.061   8.817  20.145  0.00  0.00    +0.000 A 
ATOM     34  C   UNL     1       1.696   7.575  20.014  0.00  0.00    +0.000 A 
ATOM     35  F   UNL     1       1.755   6.723  21.049  0.00  0.00    +0.000 F 
ENDBRANCH  21  23
ENDBRANCH   8  21
TORSDOF 6
ENDMDL
