MODEL 1
REMARK VINA RESULT:      -8.1      0.000      0.000
REMARK  Name = 
REMARK  7 active torsions:
REMARK  status: ('A' for Active; 'I' for Inactive)
REMARK    1  A    between atoms: C_1  and  C_2
REMARK    2  A    between atoms: C_4  and  C_5
REMARK    3  A    between atoms: N_6  and  C_7
REMARK    4  A    between atoms: C_7  and  C_8
REMARK    5  A    between atoms: C_11  and  C_12
REMARK    6  A    between atoms: N_14  and  C_15
REMARK    7  A    between atoms: C_18  and  C_19
REMARK                            x       y       z     vdW  Elec       q    Type
REMARK                         _______ _______ _______ _____ _____    ______ ____
ROOT
ATOM      1  C   UNL     1       0.486  10.128  21.378  0.00  0.00    +0.000 C 
ATOM      2  O   UNL     1       1.434   9.940  22.128  0.00  0.00    +0.000 OA
ATOM      3  N   UNL     1       0.397   9.641  20.085  0.00  0.00    +0.000 N 
ATOM      4  H   UNL     1      -0.375   9.979  19.518  0.00  0.00    +0.000 HD
ENDROOT
BRANCH   3   5
ATOM      5  C   UNL     1       1.320   8.776  19.480  0.00  0.00    +0.000 A 
ATOM      6  C   UNL     1       1.729   7.597  20.093  0.00  0.00    +0.000 A 
ATOM      7  C   UNL     1       2.630   6.746  19.466  0.00  0.00    +0.000 A 
ATOM      8  C   UNL     1       3.139   7.040  18.196  0.00  0.00    +0.000 A 
ATOM      9  C   UNL     1       2.729   8.242  17.593  0.00  0.00    +0.000 A 
ATOM     10  C   UNL     1       1.819   9.099  18.220  0.00  0.00    +0.000 A 
BRANCH   8  11
ATOM     11  C   UNL     1       4.047   6.101  17.523  0.00  0.00    +0.000 A 
ATOM     12  C   UNL     1       4.882   6.505  16.470  0.00  0.00    +0.000 A 
ATOM     13  C   UNL     1       5.740   5.595  15.860  0.00  0.00    +0.000 A 
ATOM     14  C   UNL     1       5.751   4.294  16.330  0.00  0.00    +0.000 A 
ATOM     15  N   UNL     1       4.972   3.852  17.334  0.00  0.00    +0.000 NA
ATOM     16  C   UNL     1       4.139   4.760  17.897  0.00  0.00    +0.000 A 
ENDBRANCH   8  11
ENDBRANCH   3   5
BRANCH   1  20
ATOM     17  C   UNL     1      -2.475  12.562  22.039  0.00  0.00    +0.000 A 
ATOM     18  C   UNL     1      -2.242  11.869  23.209  0.00  0.00    +0.000 A 
ATOM     19  C   UNL     1      -1.180  10.938  23.073  0.00  0.00    +0.000 A 
ATOM     20  C   UNL     1      -0.629  10.951  21.810  0.00  0.00    +0.000 A 
ATOM     21  S   UNL     1      -1.416  12.066  20.790  0.00  0.00    +0.000 S 
BRANCH  17  22
ATOM     22  C   UNL     1      -3.459  13.659  21.776  0.00  0.00    +0.000 C 
BRANCH  22  28
ATOM     23  C   UNL     1      -7.841  12.431  23.448  0.00  0.00    +0.000 C 
ATOM     24  C   UNL     1      -6.731  12.588  22.478  0.00  0.00    +0.000 A 
ATOM     25  C   UNL     1      -6.691  12.172  21.128  0.00  0.00    +0.000 A 
ATOM     26  C   UNL     1      -5.449  12.546  20.663  0.00  0.00    +0.000 A 
ATOM     27  C   UNL     1      -4.822  12.379  19.333  0.00  0.00    +0.000 C 
ATOM     28  N   UNL     1      -4.826  13.157  21.726  0.00  0.00    +0.000 N 
ATOM     29  N   UNL     1      -5.586  13.175  22.844  0.00  0.00    +0.000 NA
ENDBRANCH  22  28
ENDBRANCH  17  22
ENDBRANCH   1  20
TORSDOF 5
ENDMDL
MODEL 2
REMARK VINA RESULT:      -8.1      2.746     11.396
REMARK  Name = 
REMARK  7 active torsions:
REMARK  status: ('A' for Active; 'I' for Inactive)
REMARK    1  A    between atoms: C_1  and  C_2
REMARK    2  A    between atoms: C_4  and  C_5
REMARK    3  A    between atoms: N_6  and  C_7
REMARK    4  A    between atoms: C_7  and  C_8
REMARK    5  A    between atoms: C_11  and  C_12
REMARK    6  A    between atoms: N_14  and  C_15
REMARK    7  A    between atoms: C_18  and  C_19
REMARK                            x       y       z     vdW  Elec       q    Type
REMARK                         _______ _______ _______ _____ _____    ______ ____
ROOT
ATOM      1  C   UNL     1       1.570   7.545  20.393  0.00  0.00    +0.000 C 
ATOM      2  O   UNL     1       1.044   6.966  21.334  0.00  0.00    +0.000 OA
ATOM      3  N   UNL     1       1.361   8.876  20.072  0.00  0.00    +0.000 N 
ATOM      4  H   UNL     1       1.746   9.201  19.190  0.00  0.00    +0.000 HD
ENDROOT
BRANCH   3   5
ATOM      5  C   UNL     1       0.611   9.784  20.831  0.00  0.00    +0.000 A 
ATOM      6  C   UNL     1       0.212  11.013  20.317  0.00  0.00    +0.000 A 
ATOM      7  C   UNL     1      -0.548  11.890  21.082  0.00  0.00    +0.000 A 
ATOM      8  C   UNL     1      -0.948  11.557  22.381  0.00  0.00    +0.000 A 
ATOM      9  C   UNL     1      -0.526  10.317  22.894  0.00  0.00    +0.000 A 
ATOM     10  C   UNL     1       0.236   9.431  22.126  0.00  0.00    +0.000 A 
BRANCH   8  11
ATOM     11  C   UNL     1      -1.799  12.471  23.155  0.00  0.00    +0.000 A 
ATOM     12  C   UNL     1      -1.382  13.770  23.485  0.00  0.00    +0.000 A 
ATOM     13  C   UNL     1      -2.215  14.616  24.210  0.00  0.00    +0.000 A 
ATOM     14  C   UNL     1      -3.462  14.144  24.579  0.00  0.00    +0.000 A 
ATOM     15  N   UNL     1      -3.912  12.908  24.292  0.00  0.00    +0.000 NA
ATOM     16  C   UNL     1      -3.071  12.106  23.597  0.00  0.00    +0.000 A 
ENDBRANCH   8  11
ENDBRANCH   3   5
BRANCH   1  20
ATOM     17  C   UNL     1       3.921   5.205  18.363  0.00  0.00    +0.000 A 
ATOM     18  C   UNL     1       3.780   6.374  17.643  0.00  0.00    +0.000 A 
ATOM     19  C   UNL     1       2.925   7.300  18.295  0.00  0.00    +0.000 A 
ATOM     20  C   UNL     1       2.445   6.817  19.493  0.00  0.00    +0.000 A 
ATOM     21  S   UNL     1       3.006   5.239  19.808  0.00  0.00    +0.000 S 
BRANCH  17  22
ATOM     22  C   UNL     1       4.768   4.009  18.057  0.00  0.00    +0.000 C 
BRANCH  22  28
ATOM     23  C   UNL     1       6.103   3.832  13.400  0.00  0.00    +0.000 C 
ATOM     24  C   UNL     1       6.204   4.113  14.852  0.00  0.00    +0.000 A 
ATOM     25  C   UNL     1       7.300   4.658  15.557  0.00  0.00    +0.000 A 
ATOM     26  C   UNL     1       6.897   4.720  16.874  0.00  0.00    +0.000 A 
ATOM     27  C   UNL     1       7.607   5.194  18.083  0.00  0.00    +0.000 C 
ATOM     28  N   UNL     1       5.612   4.230  16.889  0.00  0.00    +0.000 N 
ATOM     29  N   UNL     1       5.181   3.839  15.669  0.00  0.00    +0.000 NA
ENDBRANCH  22  28
ENDBRANCH  17  22
ENDBRANCH   1  20
TORSDOF 5
ENDMDL
MODEL 3
REMARK VINA RESULT:      -8.1      0.898      1.440
REMARK  Name = 
REMARK  7 active torsions:
REMARK  status: ('A' for Active; 'I' for Inactive)
REMARK    1  A    between atoms: C_1  and  C_2
REMARK    2  A    between atoms: C_4  and  C_5
REMARK    3  A    between atoms: N_6  and  C_7
REMARK    4  A    between atoms: C_7  and  C_8
REMARK    5  A    between atoms: C_11  and  C_12
REMARK    6  A    between atoms: N_14  and  C_15
REMARK    7  A    between atoms: C_18  and  C_19
REMARK                            x       y       z     vdW  Elec       q    Type
REMARK                         _______ _______ _______ _____ _____    ______ ____
ROOT
ATOM      1  C   UNL     1       0.424  10.155  21.398  0.00  0.00    +0.000 C 
ATOM      2  O   UNL     1       1.345   9.930  22.171  0.00  0.00    +0.000 OA
ATOM      3  N   UNL     1       0.368   9.707  20.088  0.00  0.00    +0.000 N 
ATOM      4  H   UNL     1      -0.381  10.074  19.508  0.00  0.00    +0.000 HD
ENDROOT
BRANCH   3   5
ATOM      5  C   UNL     1       1.294   8.844  19.487  0.00  0.00    +0.000 A 
ATOM      6  C   UNL     1       1.752   7.699  20.129  0.00  0.00    +0.000 A 
ATOM      7  C   UNL     1       2.656   6.848  19.506  0.00  0.00    +0.000 A 
ATOM      8  C   UNL     1       3.120   7.108  18.212  0.00  0.00    +0.000 A 
ATOM      9  C   UNL     1       2.661   8.277  17.578  0.00  0.00    +0.000 A 
ATOM     10  C   UNL     1       1.748   9.133  18.202  0.00  0.00    +0.000 A 
BRANCH   8  11
ATOM     11  C   UNL     1       4.033   6.169  17.545  0.00  0.00    +0.000 A 
ATOM     12  C   UNL     1       4.999   6.602  16.625  0.00  0.00    +0.000 A 
ATOM     13  C   UNL     1       5.856   5.690  16.019  0.00  0.00    +0.000 A 
ATOM     14  C   UNL     1       5.734   4.355  16.360  0.00  0.00    +0.000 A 
ATOM     15  N   UNL     1       4.826   3.884  17.235  0.00  0.00    +0.000 NA
ATOM     16  C   UNL     1       3.998   4.797  17.796  0.00  0.00    +0.000 A 
ENDBRANCH   8  11
ENDBRANCH   3   5
BRANCH   1  20
ATOM     17  C   UNL     1      -2.539  12.595  22.024  0.00  0.00    +0.000 A 
ATOM     18  C   UNL     1      -2.297  11.928  23.209  0.00  0.00    +0.000 A 
ATOM     19  C   UNL     1      -1.232  10.997  23.086  0.00  0.00    +0.000 A 
ATOM     20  C   UNL     1      -0.690  10.984  21.819  0.00  0.00    +0.000 A 
ATOM     21  S   UNL     1      -1.488  12.074  20.779  0.00  0.00    +0.000 S 
BRANCH  17  22
ATOM     22  C   UNL     1      -3.529  13.683  21.745  0.00  0.00    +0.000 C 
BRANCH  22  28
ATOM     23  C   UNL     1      -7.884  11.930  22.953  0.00  0.00    +0.000 C 
ATOM     24  C   UNL     1      -6.669  12.775  23.033  0.00  0.00    +0.000 A 
ATOM     25  C   UNL     1      -6.388  13.808  23.955  0.00  0.00    +0.000 A 
ATOM     26  C   UNL     1      -5.141  14.281  23.611  0.00  0.00    +0.000 A 
ATOM     27  C   UNL     1      -4.316  15.358  24.202  0.00  0.00    +0.000 C 
ATOM     28  N   UNL     1      -4.744  13.524  22.534  0.00  0.00    +0.000 N 
ATOM     29  N   UNL     1      -5.671  12.614  22.158  0.00  0.00    +0.000 NA
ENDBRANCH  22  28
ENDBRANCH  17  22
ENDBRANCH   1  20
TORSDOF 5
ENDMDL
MODEL 4
REMARK VINA RESULT:      -8.1      0.963      1.526
REMARK  Name = 
REMARK  7 active torsions:
REMARK  status: ('A' for Active; 'I' for Inactive)
REMARK    1  A    between atoms: C_1  and  C_2
REMARK    2  A    between atoms: C_4  and  C_5
REMARK    3  A    between atoms: N_6  and  C_7
REMARK    4  A    between atoms: C_7  and  C_8
REMARK    5  A    between atoms: C_11  and  C_12
REMARK    6  A    between atoms: N_14  and  C_15
REMARK    7  A    between atoms: C_18  and  C_19
REMARK                            x       y       z     vdW  Elec       q    Type
REMARK                         _______ _______ _______ _____ _____    ______ ____
ROOT
ATOM      1  C   UNL     1       0.187  10.862  21.231  0.00  0.00    +0.000 C 
ATOM      2  O   UNL     1       1.302  11.344  21.376  0.00  0.00    +0.000 OA
ATOM      3  N   UNL     1      -0.096   9.751  20.454  0.00  0.00    +0.000 N 
ATOM      4  H   UNL     1      -1.076   9.532  20.304  0.00  0.00    +0.000 HD
ENDROOT
BRANCH   3   5
ATOM      5  C   UNL     1       0.857   8.950  19.809  0.00  0.00    +0.000 A 
ATOM      6  C   UNL     1       1.418   7.838  20.428  0.00  0.00    +0.000 A 
ATOM      7  C   UNL     1       2.347   7.048  19.763  0.00  0.00    +0.000 A 
ATOM      8  C   UNL     1       2.732   7.336  18.449  0.00  0.00    +0.000 A 
ATOM      9  C   UNL     1       2.169   8.471  17.839  0.00  0.00    +0.000 A 
ATOM     10  C   UNL     1       1.231   9.266  18.505  0.00  0.00    +0.000 A 
BRANCH   8  11
ATOM     11  C   UNL     1       3.673   6.457  17.740  0.00  0.00    +0.000 A 
ATOM     12  C   UNL     1       4.680   6.969  16.907  0.00  0.00    +0.000 A 
ATOM     13  C   UNL     1       5.562   6.112  16.258  0.00  0.00    +0.000 A 
ATOM     14  C   UNL     1       5.424   4.752  16.469  0.00  0.00    +0.000 A 
ATOM     15  N   UNL     1       4.478   4.207  17.255  0.00  0.00    +0.000 NA
ATOM     16  C   UNL     1       3.626   5.069  17.861  0.00  0.00    +0.000 A 
ENDBRANCH   8  11
ENDBRANCH   3   5
BRANCH   1  20
ATOM     17  C   UNL     1      -2.887  12.888  22.486  0.00  0.00    +0.000 A 
ATOM     18  C   UNL     1      -2.593  11.945  23.450  0.00  0.00    +0.000 A 
ATOM     19  C   UNL     1      -1.484  11.138  23.084  0.00  0.00    +0.000 A 
ATOM     20  C   UNL     1      -0.962  11.490  21.858  0.00  0.00    +0.000 A 
ATOM     21  S   UNL     1      -1.829  12.772  21.146  0.00  0.00    +0.000 S 
BRANCH  17  22
ATOM     22  C   UNL     1      -3.935  13.957  22.506  0.00  0.00    +0.000 C 
BRANCH  22  28
ATOM     23  C   UNL     1      -7.407  11.078  20.729  0.00  0.00    +0.000 C 
ATOM     24  C   UNL     1      -6.794  12.162  21.534  0.00  0.00    +0.000 A 
ATOM     25  C   UNL     1      -7.442  13.083  22.386  0.00  0.00    +0.000 A 
ATOM     26  C   UNL     1      -6.441  13.879  22.898  0.00  0.00    +0.000 A 
ATOM     27  C   UNL     1      -6.495  15.019  23.840  0.00  0.00    +0.000 C 
ATOM     28  N   UNL     1      -5.274  13.404  22.347  0.00  0.00    +0.000 N 
ATOM     29  N   UNL     1      -5.473  12.370  21.499  0.00  0.00    +0.000 NA
ENDBRANCH  22  28
ENDBRANCH  17  22
ENDBRANCH   1  20
TORSDOF 5
ENDMDL
MODEL 5
REMARK VINA RESULT:      -8.0      0.909      1.922
REMARK  Name = 
REMARK  7 active torsions:
REMARK  status: ('A' for Active; 'I' for Inactive)
REMARK    1  A    between atoms: C_1  and  C_2
REMARK    2  A    between atoms: C_4  and  C_5
REMARK    3  A    between atoms: N_6  and  C_7
REMARK    4  A    between atoms: C_7  and  C_8
REMARK    5  A    between atoms: C_11  and  C_12
REMARK    6  A    between atoms: N_14  and  C_15
REMARK    7  A    between atoms: C_18  and  C_19
REMARK                            x       y       z     vdW  Elec       q    Type
REMARK                         _______ _______ _______ _____ _____    ______ ____
ROOT
ATOM      1  C   UNL     1       0.446  10.198  21.319  0.00  0.00    +0.000 C 
ATOM      2  O   UNL     1       1.439  10.069  22.022  0.00  0.00    +0.000 OA
ATOM      3  N   UNL     1       0.316   9.687  20.038  0.00  0.00    +0.000 N 
ATOM      4  H   UNL     1      -0.499   9.978  19.507  0.00  0.00    +0.000 HD
ENDROOT
BRANCH   3   5
ATOM      5  C   UNL     1       1.249   8.859  19.399  0.00  0.00    +0.000 A 
ATOM      6  C   UNL     1       1.772   9.173  18.150  0.00  0.00    +0.000 A 
ATOM      7  C   UNL     1       2.710   8.346  17.543  0.00  0.00    +0.000 A 
ATOM      8  C   UNL     1       3.166   7.184  18.176  0.00  0.00    +0.000 A 
ATOM      9  C   UNL     1       2.618   6.869  19.433  0.00  0.00    +0.000 A 
ATOM     10  C   UNL     1       1.677   7.702  20.047  0.00  0.00    +0.000 A 
BRANCH   8  11
ATOM     11  C   UNL     1       4.199   6.350  17.546  0.00  0.00    +0.000 A 
ATOM     12  C   UNL     1       4.051   4.962  17.412  0.00  0.00    +0.000 A 
ATOM     13  C   UNL     1       5.042   4.201  16.802  0.00  0.00    +0.000 A 
ATOM     14  C   UNL     1       6.163   4.854  16.323  0.00  0.00    +0.000 A 
ATOM     15  N   UNL     1       6.359   6.182  16.425  0.00  0.00    +0.000 NA
ATOM     16  C   UNL     1       5.380   6.891  17.037  0.00  0.00    +0.000 A 
ENDBRANCH   8  11
ENDBRANCH   3   5
BRANCH   1  20
ATOM     17  C   UNL     1      -2.587  12.504  22.100  0.00  0.00    +0.000 A 
ATOM     18  C   UNL     1      -2.279  11.820  23.259  0.00  0.00    +0.000 A 
ATOM     19  C   UNL     1      -1.184  10.936  23.080  0.00  0.00    +0.000 A 
ATOM     20  C   UNL     1      -0.685  10.973  21.796  0.00  0.00    +0.000 A 
ATOM     21  S   UNL     1      -1.558  12.053  20.809  0.00  0.00    +0.000 S 
BRANCH  17  22
ATOM     22  C   UNL     1      -3.627  13.558  21.879  0.00  0.00    +0.000 C 
BRANCH  22  28
ATOM     23  C   UNL     1      -7.200  11.705  19.176  0.00  0.00    +0.000 C 
ATOM     24  C   UNL     1      -6.504  12.201  20.388  0.00  0.00    +0.000 A 
ATOM     25  C   UNL     1      -7.019  12.317  21.698  0.00  0.00    +0.000 A 
ATOM     26  C   UNL     1      -5.987  12.825  22.457  0.00  0.00    +0.000 A 
ATOM     27  C   UNL     1      -5.918  13.167  23.895  0.00  0.00    +0.000 C 
ATOM     28  N   UNL     1      -4.932  12.976  21.588  0.00  0.00    +0.000 N 
ATOM     29  N   UNL     1      -5.235  12.618  20.320  0.00  0.00    +0.000 NA
ENDBRANCH  22  28
ENDBRANCH  17  22
ENDBRANCH   1  20
TORSDOF 5
ENDMDL
MODEL 6
REMARK VINA RESULT:      -7.9      2.543     11.294
REMARK  Name = 
REMARK  7 active torsions:
REMARK  status: ('A' for Active; 'I' for Inactive)
REMARK    1  A    between atoms: C_1  and  C_2
REMARK    2  A    between atoms: C_4  and  C_5
REMARK    3  A    between atoms: N_6  and  C_7
REMARK    4  A    between atoms: C_7  and  C_8
REMARK    5  A    between atoms: C_11  and  C_12
REMARK    6  A    between atoms: N_14  and  C_15
REMARK    7  A    between atoms: C_18  and  C_19
REMARK                            x       y       z     vdW  Elec       q    Type
REMARK                         _______ _______ _______ _____ _____    ______ ____
ROOT
ATOM      1  C   UNL     1       1.030   9.396  19.383  0.00  0.00    +0.000 C 
ATOM      2  O   UNL     1       0.181   9.841  18.623  0.00  0.00    +0.000 OA
ATOM      3  N   UNL     1       1.225   9.825  20.685  0.00  0.00    +0.000 N 
ATOM      4  H   UNL     1       2.049   9.476  21.166  0.00  0.00    +0.000 HD
ENDROOT
BRANCH   3   5
ATOM      5  C   UNL     1       0.418  10.749  21.362  0.00  0.00    +0.000 A 
ATOM      6  C   UNL     1      -0.467  10.355  22.360  0.00  0.00    +0.000 A 
ATOM      7  C   UNL     1      -1.244  11.291  23.031  0.00  0.00    +0.000 A 
ATOM      8  C   UNL     1      -1.148  12.655  22.736  0.00  0.00    +0.000 A 
ATOM      9  C   UNL     1      -0.260  13.040  21.715  0.00  0.00    +0.000 A 
ATOM     10  C   UNL     1       0.525  12.101  21.041  0.00  0.00    +0.000 A 
BRANCH   8  11
ATOM     11  C   UNL     1      -1.935  13.638  23.495  0.00  0.00    +0.000 A 
ATOM     12  C   UNL     1      -1.326  14.616  24.295  0.00  0.00    +0.000 A 
ATOM     13  C   UNL     1      -2.098  15.540  24.992  0.00  0.00    +0.000 A 
ATOM     14  C   UNL     1      -3.473  15.470  24.861  0.00  0.00    +0.000 A 
ATOM     15  N   UNL     1      -4.110  14.553  24.110  0.00  0.00    +0.000 NA
ATOM     16  C   UNL     1      -3.330  13.660  23.455  0.00  0.00    +0.000 A 
ENDBRANCH   8  11
ENDBRANCH   3   5
BRANCH   1  20
ATOM     17  C   UNL     1       3.400   6.409  18.614  0.00  0.00    +0.000 A 
ATOM     18  C   UNL     1       3.521   7.310  17.575  0.00  0.00    +0.000 A 
ATOM     19  C   UNL     1       2.683   8.442  17.752  0.00  0.00    +0.000 A 
ATOM     20  C   UNL     1       1.954   8.377  18.919  0.00  0.00    +0.000 A 
ATOM     21  S   UNL     1       2.263   6.938  19.778  0.00  0.00    +0.000 S 
BRANCH  17  22
ATOM     22  C   UNL     1       4.140   5.127  18.836  0.00  0.00    +0.000 C 
BRANCH  22  28
ATOM     23  C   UNL     1       6.143   3.824  14.619  0.00  0.00    +0.000 C 
ATOM     24  C   UNL     1       6.069   4.326  16.012  0.00  0.00    +0.000 A 
ATOM     25  C   UNL     1       7.135   4.715  16.853  0.00  0.00    +0.000 A 
ATOM     26  C   UNL     1       6.548   5.101  18.038  0.00  0.00    +0.000 A 
ATOM     27  C   UNL     1       7.144   5.602  19.297  0.00  0.00    +0.000 C 
ATOM     28  N   UNL     1       5.196   4.935  17.851  0.00  0.00    +0.000 N 
ATOM     29  N   UNL     1       4.888   4.446  16.628  0.00  0.00    +0.000 NA
ENDBRANCH  22  28
ENDBRANCH  17  22
ENDBRANCH   1  20
TORSDOF 5
ENDMDL
MODEL 7
REMARK VINA RESULT:      -7.8      1.593      2.221
REMARK  Name = 
REMARK  7 active torsions:
REMARK  status: ('A' for Active; 'I' for Inactive)
REMARK    1  A    between atoms: C_1  and  C_2
REMARK    2  A    between atoms: C_4  and  C_5
REMARK    3  A    between atoms: N_6  and  C_7
REMARK    4  A    between atoms: C_7  and  C_8
REMARK    5  A    between atoms: C_11  and  C_12
REMARK    6  A    between atoms: N_14  and  C_15
REMARK    7  A    between atoms: C_18  and  C_19
REMARK                            x       y       z     vdW  Elec       q    Type
REMARK                         _______ _______ _______ _____ _____    ______ ____
ROOT
ATOM      1  C   UNL     1       0.419  11.558  21.383  0.00  0.00    +0.000 C 
ATOM      2  O   UNL     1       1.523  12.042  21.175  0.00  0.00    +0.000 OA
ATOM      3  N   UNL     1      -0.002  10.325  20.912  0.00  0.00    +0.000 N 
ATOM      4  H   UNL     1      -0.983  10.096  21.034  0.00  0.00    +0.000 HD
ENDROOT
BRANCH   3   5
ATOM      5  C   UNL     1       0.801   9.404  20.225  0.00  0.00    +0.000 A 
ATOM      6  C   UNL     1       1.334   8.285  20.854  0.00  0.00    +0.000 A 
ATOM      7  C   UNL     1       2.112   7.376  20.149  0.00  0.00    +0.000 A 
ATOM      8  C   UNL     1       2.369   7.549  18.784  0.00  0.00    +0.000 A 
ATOM      9  C   UNL     1       1.836   8.693  18.162  0.00  0.00    +0.000 A 
ATOM     10  C   UNL     1       1.050   9.608  18.869  0.00  0.00    +0.000 A 
BRANCH   8  11
ATOM     11  C   UNL     1       3.146   6.548  18.040  0.00  0.00    +0.000 A 
ATOM     12  C   UNL     1       2.759   5.201  17.985  0.00  0.00    +0.000 A 
ATOM     13  C   UNL     1       3.509   4.279  17.262  0.00  0.00    +0.000 A 
ATOM     14  C   UNL     1       4.633   4.733  16.595  0.00  0.00    +0.000 A 
ATOM     15  N   UNL     1       5.051   6.012  16.615  0.00  0.00    +0.000 NA
ATOM     16  C   UNL     1       4.305   6.881  17.338  0.00  0.00    +0.000 A 
ENDBRANCH   8  11
ENDBRANCH   3   5
BRANCH   1  20
ATOM     17  C   UNL     1      -2.474  13.084  23.489  0.00  0.00    +0.000 A 
ATOM     18  C   UNL     1      -1.719  14.133  23.002  0.00  0.00    +0.000 A 
ATOM     19  C   UNL     1      -0.622  13.682  22.223  0.00  0.00    +0.000 A 
ATOM     20  C   UNL     1      -0.573  12.308  22.131  0.00  0.00    +0.000 A 
ATOM     21  S   UNL     1      -1.834  11.571  23.008  0.00  0.00    +0.000 S 
BRANCH  17  22
ATOM     22  C   UNL     1      -3.731  13.127  24.299  0.00  0.00    +0.000 C 
BRANCH  22  28
ATOM     23  C   UNL     1      -7.228  12.225  21.065  0.00  0.00    +0.000 C 
ATOM     24  C   UNL     1      -6.404  13.001  22.023  0.00  0.00    +0.000 A 
ATOM     25  C   UNL     1      -6.513  14.370  22.351  0.00  0.00    +0.000 A 
ATOM     26  C   UNL     1      -5.527  14.605  23.284  0.00  0.00    +0.000 A 
ATOM     27  C   UNL     1      -5.142  15.845  23.997  0.00  0.00    +0.000 C 
ATOM     28  N   UNL     1      -4.899  13.396  23.470  0.00  0.00    +0.000 N 
ATOM     29  N   UNL     1      -5.409  12.412  22.696  0.00  0.00    +0.000 NA
ENDBRANCH  22  28
ENDBRANCH  17  22
ENDBRANCH   1  20
TORSDOF 5
ENDMDL
MODEL 8
REMARK VINA RESULT:      -7.8      3.062     11.131
REMARK  Name = 
REMARK  7 active torsions:
REMARK  status: ('A' for Active; 'I' for Inactive)
REMARK    1  A    between atoms: C_1  and  C_2
REMARK    2  A    between atoms: C_4  and  C_5
REMARK    3  A    between atoms: N_6  and  C_7
REMARK    4  A    between atoms: C_7  and  C_8
REMARK    5  A    between atoms: C_11  and  C_12
REMARK    6  A    between atoms: N_14  and  C_15
REMARK    7  A    between atoms: C_18  and  C_19
REMARK                            x       y       z     vdW  Elec       q    Type
REMARK                         _______ _______ _______ _____ _____    ______ ____
ROOT
ATOM      1  C   UNL     1       1.830   7.655  20.107  0.00  0.00    +0.000 C 
ATOM      2  O   UNL     1       1.727   8.386  19.132  0.00  0.00    +0.000 OA
ATOM      3  N   UNL     1       1.400   7.979  21.383  0.00  0.00    +0.000 N 
ATOM      4  H   UNL     1       1.665   7.347  22.132  0.00  0.00    +0.000 HD
ENDROOT
BRANCH   3   5
ATOM      5  C   UNL     1       0.688   9.136  21.728  0.00  0.00    +0.000 A 
ATOM      6  C   UNL     1      -0.207   9.156  22.792  0.00  0.00    +0.000 A 
ATOM      7  C   UNL     1      -0.887  10.320  23.126  0.00  0.00    +0.000 A 
ATOM      8  C   UNL     1      -0.680  11.508  22.417  0.00  0.00    +0.000 A 
ATOM      9  C   UNL     1       0.216  11.472  21.333  0.00  0.00    +0.000 A 
ATOM     10  C   UNL     1       0.905  10.303  20.996  0.00  0.00    +0.000 A 
BRANCH   8  11
ATOM     11  C   UNL     1      -1.365  12.745  22.819  0.00  0.00    +0.000 A 
ATOM     12  C   UNL     1      -2.691  12.741  23.279  0.00  0.00    +0.000 A 
ATOM     13  C   UNL     1      -3.308  13.927  23.664  0.00  0.00    +0.000 A 
ATOM     14  C   UNL     1      -2.574  15.097  23.591  0.00  0.00    +0.000 A 
ATOM     15  N   UNL     1      -1.302  15.159  23.157  0.00  0.00    +0.000 NA
ATOM     16  C   UNL     1      -0.735  13.989  22.778  0.00  0.00    +0.000 A 
ENDBRANCH   8  11
ENDBRANCH   3   5
BRANCH   1  20
ATOM     17  C   UNL     1       3.952   4.460  19.459  0.00  0.00    +0.000 A 
ATOM     18  C   UNL     1       2.845   4.079  20.191  0.00  0.00    +0.000 A 
ATOM     19  C   UNL     1       2.003   5.180  20.493  0.00  0.00    +0.000 A 
ATOM     20  C   UNL     1       2.484   6.365  19.981  0.00  0.00    +0.000 A 
ATOM     21  S   UNL     1       3.963   6.146  19.164  0.00  0.00    +0.000 S 
BRANCH  17  22
ATOM     22  C   UNL     1       5.046   3.607  18.898  0.00  0.00    +0.000 C 
BRANCH  22  28
ATOM     23  C   UNL     1       5.478   4.373  14.130  0.00  0.00    +0.000 C 
ATOM     24  C   UNL     1       5.796   4.468  15.575  0.00  0.00    +0.000 A 
ATOM     25  C   UNL     1       6.878   5.143  16.184  0.00  0.00    +0.000 A 
ATOM     26  C   UNL     1       6.729   4.932  17.537  0.00  0.00    +0.000 A 
ATOM     27  C   UNL     1       7.550   5.383  18.684  0.00  0.00    +0.000 C 
ATOM     28  N   UNL     1       5.593   4.169  17.669  0.00  0.00    +0.000 N 
ATOM     29  N   UNL     1       5.022   3.862  16.482  0.00  0.00    +0.000 NA
ENDBRANCH  22  28
ENDBRANCH  17  22
ENDBRANCH   1  20
TORSDOF 5
ENDMDL
MODEL 9
REMARK VINA RESULT:      -7.8      2.712     11.153
REMARK  Name = 
REMARK  7 active torsions:
REMARK  status: ('A' for Active; 'I' for Inactive)
REMARK    1  A    between atoms: C_1  and  C_2
REMARK    2  A    between atoms: C_4  and  C_5
REMARK    3  A    between atoms: N_6  and  C_7
REMARK    4  A    between atoms: C_7  and  C_8
REMARK    5  A    between atoms: C_11  and  C_12
REMARK    6  A    between atoms: N_14  and  C_15
REMARK    7  A    between atoms: C_18  and  C_19
REMARK                            x       y       z     vdW  Elec       q    Type
REMARK                         _______ _______ _______ _____ _____    ______ ____
ROOT
ATOM      1  C   UNL     1       1.809   7.705  20.047  0.00  0.00    +0.000 C 
ATOM      2  O   UNL     1       1.681   8.413  19.058  0.00  0.00    +0.000 OA
ATOM      3  N   UNL     1       1.400   8.054  21.323  0.00  0.00    +0.000 N 
ATOM      4  H   UNL     1       1.685   7.442  22.081  0.00  0.00    +0.000 HD
ENDROOT
BRANCH   3   5
ATOM      5  C   UNL     1       0.686   9.214  21.656  0.00  0.00    +0.000 A 
ATOM      6  C   UNL     1       0.769  10.371  20.889  0.00  0.00    +0.000 A 
ATOM      7  C   UNL     1       0.037  11.502  21.227  0.00  0.00    +0.000 A 
ATOM      8  C   UNL     1      -0.816  11.506  22.336  0.00  0.00    +0.000 A 
ATOM      9  C   UNL     1      -0.881  10.335  23.112  0.00  0.00    +0.000 A 
ATOM     10  C   UNL     1      -0.148   9.193  22.772  0.00  0.00    +0.000 A 
BRANCH   8  11
ATOM     11  C   UNL     1      -1.627  12.692  22.647  0.00  0.00    +0.000 A 
ATOM     12  C   UNL     1      -1.118  13.759  23.403  0.00  0.00    +0.000 A 
ATOM     13  C   UNL     1      -1.906  14.873  23.671  0.00  0.00    +0.000 A 
ATOM     14  C   UNL     1      -3.192  14.900  23.163  0.00  0.00    +0.000 A 
ATOM     15  N   UNL     1      -3.731  13.905  22.435  0.00  0.00    +0.000 NA
ATOM     16  C   UNL     1      -2.942  12.829  22.203  0.00  0.00    +0.000 A 
ENDBRANCH   8  11
ENDBRANCH   3   5
BRANCH   1  20
ATOM     17  C   UNL     1       3.972   4.524  19.471  0.00  0.00    +0.000 A 
ATOM     18  C   UNL     1       2.822   4.129  20.125  0.00  0.00    +0.000 A 
ATOM     19  C   UNL     1       1.961   5.224  20.396  0.00  0.00    +0.000 A 
ATOM     20  C   UNL     1       2.472   6.419  19.937  0.00  0.00    +0.000 A 
ATOM     21  S   UNL     1       3.999   6.215  19.209  0.00  0.00    +0.000 S 
BRANCH  17  22
ATOM     22  C   UNL     1       5.100   3.682  18.962  0.00  0.00    +0.000 C 
BRANCH  22  28
ATOM     23  C   UNL     1       5.494   4.290  14.169  0.00  0.00    +0.000 C 
ATOM     24  C   UNL     1       5.825   4.430  15.607  0.00  0.00    +0.000 A 
ATOM     25  C   UNL     1       6.917   5.117  16.184  0.00  0.00    +0.000 A 
ATOM     26  C   UNL     1       6.779   4.951  17.545  0.00  0.00    +0.000 A 
ATOM     27  C   UNL     1       7.612   5.434  18.669  0.00  0.00    +0.000 C 
ATOM     28  N   UNL     1       5.639   4.201  17.711  0.00  0.00    +0.000 N 
ATOM     29  N   UNL     1       5.056   3.859  16.540  0.00  0.00    +0.000 NA
ENDBRANCH  22  28
ENDBRANCH  17  22
ENDBRANCH   1  20
TORSDOF 5
ENDMDL
