MODEL 1
REMARK VINA RESULT:      -8.5      0.000      0.000
REMARK  Name = 
REMARK  8 active torsions:
REMARK  status: ('A' for Active; 'I' for Inactive)
REMARK    1  A    between atoms: C_1  and  C_2
REMARK    2  A    between atoms: C_6  and  C_8
REMARK    3  A    between atoms: C_8  and  S_9
REMARK    4  A    between atoms: S_9  and  C_10
REMARK    5  A    between atoms: C_13  and  C_14
REMARK    6  A    between atoms: C_23  and  O_24
REMARK    7  A    between atoms: N_25  and  C_26
REMARK    8  A    between atoms: C_26  and  C_27
REMARK                            x       y       z     vdW  Elec       q    Type
REMARK                         _______ _______ _______ _____ _____    ______ ____
ROOT
ATOM      1  C   UNL     1       1.108  10.459  18.537  0.00  0.00    +0.000 A 
ATOM      2  N   UNL     1       1.833  11.459  18.972  0.00  0.00    +0.000 NA
ATOM      3  N   UNL     1       1.098  12.118  19.931  0.00  0.00    +0.000 NA
ATOM      4  C   UNL     1      -0.076  11.519  20.060  0.00  0.00    +0.000 A 
ATOM      5  N   UNL     1      -0.151  10.560  19.046  0.00  0.00    +0.000 N 
ENDROOT
BRANCH   4   6
ATOM      6  C   UNL     1      -1.112  11.815  21.089  0.00  0.00    +0.000 A 
ATOM      7  C   UNL     1      -2.288  12.539  20.796  0.00  0.00    +0.000 A 
ATOM      8  C   UNL     1      -3.261  12.857  21.772  0.00  0.00    +0.000 A 
ATOM      9  C   UNL     1      -4.389  13.652  21.478  0.00  0.00    +0.000 A 
ATOM     10  C   UNL     1      -5.361  13.906  22.454  0.00  0.00    +0.000 A 
ATOM     11  C   UNL     1      -5.218  13.374  23.729  0.00  0.00    +0.000 A 
ATOM     12  C   UNL     1      -4.092  12.609  24.040  0.00  0.00    +0.000 A 
ATOM     13  C   UNL     1      -3.099  12.353  23.074  0.00  0.00    +0.000 A 
ATOM     14  C   UNL     1      -1.952  11.602  23.376  0.00  0.00    +0.000 A 
ATOM     15  C   UNL     1      -0.969  11.358  22.403  0.00  0.00    +0.000 A 
BRANCH  15  16
ATOM     16  O   UNL     1       0.159  10.684  22.770  0.00  0.00    +0.000 OA
ATOM     17  H   UNL     1       0.945  11.171  22.479  0.00  0.00    +0.000 HD
ENDBRANCH  15  16
ENDBRANCH   4   6
BRANCH   1  18
ATOM     18  S   UNL     1       1.724   9.064  17.713  0.00  0.00    +0.000 S 
BRANCH  18  19
ATOM     19  C   UNL     1       2.193   7.940  19.031  0.00  0.00    +0.000 C 
BRANCH  19  25
ATOM     20  C   UNL     1       5.554   4.531  14.546  0.00  0.00    +0.000 C 
ATOM     21  C   UNL     1       5.436   5.003  15.992  0.00  0.00    +0.000 C 
ATOM     22  C   UNL     1       4.465   4.125  16.797  0.00  0.00    +0.000 C 
ATOM     23  C   UNL     1       4.222   4.670  18.215  0.00  0.00    +0.000 C 
ATOM     24  N   UNL     1       3.887   6.107  18.219  0.00  0.00    +0.000 N 
ATOM     25  C   UNL     1       2.750   6.522  18.880  0.00  0.00    +0.000 C 
ATOM     26  O   UNL     1       2.060   5.652  19.451  0.00  0.00    +0.000 OA
ATOM     27  C   UNL     1       4.878   6.905  17.512  0.00  0.00    +0.000 C 
ATOM     28  C   UNL     1       4.971   6.460  16.055  0.00  0.00    +0.000 C 
ENDBRANCH  19  25
ENDBRANCH  18  19
ENDBRANCH   1  18
BRANCH   5  29
ATOM     29  C   UNL     1      -1.356   9.776  18.842  0.00  0.00    +0.000 C 
BRANCH  29  30
ATOM     30  C   UNL     1      -2.284  10.028  17.728  0.00  0.00    +0.000 A 
ATOM     31  C   UNL     1      -2.179   9.984  16.354  0.00  0.00    +0.000 A 
ATOM     32  C   UNL     1      -3.172  10.874  15.861  0.00  0.00    +0.000 A 
ATOM     33  C   UNL     1      -3.871  11.322  16.955  0.00  0.00    +0.000 A 
ATOM     34  O   UNL     1      -3.366  10.781  18.087  0.00  0.00    +0.000 OA
ENDBRANCH  29  30
ENDBRANCH   5  29
TORSDOF 7
ENDMDL
MODEL 2
REMARK VINA RESULT:      -8.4      3.089      5.735
REMARK  Name = 
REMARK  8 active torsions:
REMARK  status: ('A' for Active; 'I' for Inactive)
REMARK    1  A    between atoms: C_1  and  C_2
REMARK    2  A    between atoms: C_6  and  C_8
REMARK    3  A    between atoms: C_8  and  S_9
REMARK    4  A    between atoms: S_9  and  C_10
REMARK    5  A    between atoms: C_13  and  C_14
REMARK    6  A    between atoms: C_23  and  O_24
REMARK    7  A    between atoms: N_25  and  C_26
REMARK    8  A    between atoms: C_26  and  C_27
REMARK                            x       y       z     vdW  Elec       q    Type
REMARK                         _______ _______ _______ _____ _____    ______ ____
ROOT
ATOM      1  C   UNL     1       3.812   6.064  18.644  0.00  0.00    +0.000 A 
ATOM      2  N   UNL     1       3.987   6.832  17.599  0.00  0.00    +0.000 NA
ATOM      3  N   UNL     1       3.134   7.905  17.725  0.00  0.00    +0.000 NA
ATOM      4  C   UNL     1       2.436   7.770  18.843  0.00  0.00    +0.000 A 
ATOM      5  N   UNL     1       2.737   6.504  19.352  0.00  0.00    +0.000 N 
ENDROOT
BRANCH   4   6
ATOM      6  C   UNL     1       1.513   8.777  19.437  0.00  0.00    +0.000 A 
ATOM      7  C   UNL     1       1.117   8.738  20.792  0.00  0.00    +0.000 A 
ATOM      8  C   UNL     1       0.214   9.668  21.358  0.00  0.00    +0.000 A 
ATOM      9  C   UNL     1      -0.233   9.564  22.692  0.00  0.00    +0.000 A 
ATOM     10  C   UNL     1      -1.089  10.528  23.238  0.00  0.00    +0.000 A 
ATOM     11  C   UNL     1      -1.507  11.602  22.463  0.00  0.00    +0.000 A 
ATOM     12  C   UNL     1      -1.093  11.702  21.132  0.00  0.00    +0.000 A 
ATOM     13  C   UNL     1      -0.243  10.734  20.564  0.00  0.00    +0.000 A 
ATOM     14  C   UNL     1       0.167  10.808  19.222  0.00  0.00    +0.000 A 
ATOM     15  C   UNL     1       1.013   9.833  18.669  0.00  0.00    +0.000 A 
BRANCH  15  16
ATOM     16  O   UNL     1       1.321   9.915  17.342  0.00  0.00    +0.000 OA
ATOM     17  H   UNL     1       2.021   9.279  17.125  0.00  0.00    +0.000 HD
ENDBRANCH  15  16
ENDBRANCH   4   6
BRANCH   1  18
ATOM     18  S   UNL     1       4.944   4.881  19.213  0.00  0.00    +0.000 S 
BRANCH  18  19
ATOM     19  C   UNL     1       5.539   4.081  17.720  0.00  0.00    +0.000 C 
BRANCH  19  25
ATOM     20  C   UNL     1       6.949   3.099  11.389  0.00  0.00    +0.000 C 
ATOM     21  C   UNL     1       6.551   4.078  12.490  0.00  0.00    +0.000 C 
ATOM     22  C   UNL     1       7.770   4.543  13.303  0.00  0.00    +0.000 C 
ATOM     23  C   UNL     1       7.373   5.415  14.505  0.00  0.00    +0.000 C 
ATOM     24  N   UNL     1       6.299   4.807  15.315  0.00  0.00    +0.000 N 
ATOM     25  C   UNL     1       6.489   4.670  16.674  0.00  0.00    +0.000 C 
ATOM     26  O   UNL     1       7.568   5.077  17.154  0.00  0.00    +0.000 OA
ATOM     27  C   UNL     1       5.136   4.457  14.513  0.00  0.00    +0.000 C 
ATOM     28  C   UNL     1       5.524   3.449  13.434  0.00  0.00    +0.000 C 
ENDBRANCH  19  25
ENDBRANCH  18  19
ENDBRANCH   1  18
BRANCH   5  29
ATOM     29  C   UNL     1       2.067   5.993  20.535  0.00  0.00    +0.000 C 
BRANCH  29  30
ATOM     30  C   UNL     1       1.622   4.594  20.651  0.00  0.00    +0.000 A 
ATOM     31  C   UNL     1       1.939   3.546  21.488  0.00  0.00    +0.000 A 
ATOM     32  C   UNL     1       1.654   2.364  20.752  0.00  0.00    +0.000 A 
ATOM     33  C   UNL     1       1.098   2.769  19.563  0.00  0.00    +0.000 A 
ATOM     34  O   UNL     1       1.037   4.119  19.512  0.00  0.00    +0.000 OA
ENDBRANCH  29  30
ENDBRANCH   5  29
TORSDOF 7
ENDMDL
MODEL 3
REMARK VINA RESULT:      -7.9      1.906      2.264
REMARK  Name = 
REMARK  8 active torsions:
REMARK  status: ('A' for Active; 'I' for Inactive)
REMARK    1  A    between atoms: C_1  and  C_2
REMARK    2  A    between atoms: C_6  and  C_8
REMARK    3  A    between atoms: C_8  and  S_9
REMARK    4  A    between atoms: S_9  and  C_10
REMARK    5  A    between atoms: C_13  and  C_14
REMARK    6  A    between atoms: C_23  and  O_24
REMARK    7  A    between atoms: N_25  and  C_26
REMARK    8  A    between atoms: C_26  and  C_27
REMARK                            x       y       z     vdW  Elec       q    Type
REMARK                         _______ _______ _______ _____ _____    ______ ____
ROOT
ATOM      1  C   UNL     1       0.943   9.461  21.276  0.00  0.00    +0.000 A 
ATOM      2  N   UNL     1       1.114   9.261  22.559  0.00  0.00    +0.000 NA
ATOM      3  N   UNL     1       0.413  10.238  23.228  0.00  0.00    +0.000 NA
ATOM      4  C   UNL     1      -0.168  11.033  22.343  0.00  0.00    +0.000 A 
ATOM      5  N   UNL     1       0.309  10.650  21.086  0.00  0.00    +0.000 N 
ENDROOT
BRANCH   4   6
ATOM      6  C   UNL     1      -1.140  12.123  22.636  0.00  0.00    +0.000 A 
ATOM      7  C   UNL     1      -2.499  11.870  22.926  0.00  0.00    +0.000 A 
ATOM      8  C   UNL     1      -3.439  12.897  23.171  0.00  0.00    +0.000 A 
ATOM      9  C   UNL     1      -4.809  12.629  23.377  0.00  0.00    +0.000 A 
ATOM     10  C   UNL     1      -5.706  13.664  23.667  0.00  0.00    +0.000 A 
ATOM     11  C   UNL     1      -5.250  14.973  23.753  0.00  0.00    +0.000 A 
ATOM     12  C   UNL     1      -3.901  15.255  23.524  0.00  0.00    +0.000 A 
ATOM     13  C   UNL     1      -2.987  14.228  23.219  0.00  0.00    +0.000 A 
ATOM     14  C   UNL     1      -1.632  14.496  22.966  0.00  0.00    +0.000 A 
ATOM     15  C   UNL     1      -0.734  13.461  22.661  0.00  0.00    +0.000 A 
BRANCH  15  16
ATOM     16  O   UNL     1       0.555  13.785  22.354  0.00  0.00    +0.000 OA
ATOM     17  H   UNL     1       0.682  13.768  21.392  0.00  0.00    +0.000 HD
ENDBRANCH  15  16
ENDBRANCH   4   6
BRANCH   1  18
ATOM     18  S   UNL     1       1.190   8.272  20.040  0.00  0.00    +0.000 S 
BRANCH  18  19
ATOM     19  C   UNL     1       1.658   6.788  20.937  0.00  0.00    +0.000 C 
BRANCH  19  25
ATOM     20  C   UNL     1       5.004   4.214  15.916  0.00  0.00    +0.000 C 
ATOM     21  C   UNL     1       4.714   4.214  17.414  0.00  0.00    +0.000 C 
ATOM     22  C   UNL     1       3.440   3.421  17.745  0.00  0.00    +0.000 C 
ATOM     23  C   UNL     1       3.051   3.530  19.229  0.00  0.00    +0.000 C 
ATOM     24  N   UNL     1       3.041   4.925  19.710  0.00  0.00    +0.000 N 
ATOM     25  C   UNL     1       1.914   5.398  20.350  0.00  0.00    +0.000 C 
ATOM     26  O   UNL     1       0.955   4.611  20.496  0.00  0.00    +0.000 OA
ATOM     27  C   UNL     1       4.297   5.609  19.444  0.00  0.00    +0.000 C 
ATOM     28  C   UNL     1       4.571   5.643  17.943  0.00  0.00    +0.000 C 
ENDBRANCH  19  25
ENDBRANCH  18  19
ENDBRANCH   1  18
BRANCH   5  29
ATOM     29  C   UNL     1      -0.060  11.382  19.888  0.00  0.00    +0.000 C 
BRANCH  29  30
ATOM     30  C   UNL     1      -1.184  10.977  19.028  0.00  0.00    +0.000 A 
ATOM     31  C   UNL     1      -1.293  10.257  17.857  0.00  0.00    +0.000 A 
ATOM     32  C   UNL     1      -2.490  10.709  17.236  0.00  0.00    +0.000 A 
ATOM     33  C   UNL     1      -3.071  11.596  18.108  0.00  0.00    +0.000 A 
ATOM     34  O   UNL     1      -2.307  11.731  19.216  0.00  0.00    +0.000 OA
ENDBRANCH  29  30
ENDBRANCH   5  29
TORSDOF 7
ENDMDL
MODEL 4
REMARK VINA RESULT:      -7.7      1.247      1.692
REMARK  Name = 
REMARK  8 active torsions:
REMARK  status: ('A' for Active; 'I' for Inactive)
REMARK    1  A    between atoms: C_1  and  C_2
REMARK    2  A    between atoms: C_6  and  C_8
REMARK    3  A    between atoms: C_8  and  S_9
REMARK    4  A    between atoms: S_9  and  C_10
REMARK    5  A    between atoms: C_13  and  C_14
REMARK    6  A    between atoms: C_23  and  O_24
REMARK    7  A    between atoms: N_25  and  C_26
REMARK    8  A    between atoms: C_26  and  C_27
REMARK                            x       y       z     vdW  Elec       q    Type
REMARK                         _______ _______ _______ _____ _____    ______ ____
ROOT
ATOM      1  C   UNL     1       0.971  10.172  18.169  0.00  0.00    +0.000 A 
ATOM      2  N   UNL     1       1.879  11.095  18.366  0.00  0.00    +0.000 NA
ATOM      3  N   UNL     1       1.303  12.086  19.128  0.00  0.00    +0.000 NA
ATOM      4  C   UNL     1       0.043  11.762  19.375  0.00  0.00    +0.000 A 
ATOM      5  N   UNL     1      -0.233  10.621  18.617  0.00  0.00    +0.000 N 
ENDROOT
BRANCH   4   6
ATOM      6  C   UNL     1      -0.893  12.479  20.286  0.00  0.00    +0.000 A 
ATOM      7  C   UNL     1      -1.391  11.898  21.473  0.00  0.00    +0.000 A 
ATOM      8  C   UNL     1      -2.307  12.554  22.327  0.00  0.00    +0.000 A 
ATOM      9  C   UNL     1      -2.856  11.926  23.465  0.00  0.00    +0.000 A 
ATOM     10  C   UNL     1      -3.722  12.620  24.319  0.00  0.00    +0.000 A 
ATOM     11  C   UNL     1      -4.049  13.943  24.048  0.00  0.00    +0.000 A 
ATOM     12  C   UNL     1      -3.534  14.567  22.909  0.00  0.00    +0.000 A 
ATOM     13  C   UNL     1      -2.671  13.880  22.034  0.00  0.00    +0.000 A 
ATOM     14  C   UNL     1      -2.160  14.486  20.875  0.00  0.00    +0.000 A 
ATOM     15  C   UNL     1      -1.303  13.787  20.009  0.00  0.00    +0.000 A 
BRANCH  15  16
ATOM     16  O   UNL     1      -0.894  14.399  18.861  0.00  0.00    +0.000 OA
ATOM     17  H   UNL     1      -0.531  15.275  19.063  0.00  0.00    +0.000 HD
ENDBRANCH  15  16
ENDBRANCH   4   6
BRANCH   1  18
ATOM     18  S   UNL     1       1.298   8.533  17.710  0.00  0.00    +0.000 S 
BRANCH  18  19
ATOM     19  C   UNL     1       2.219   7.859  19.096  0.00  0.00    +0.000 C 
BRANCH  19  25
ATOM     20  C   UNL     1       5.698   4.119  14.980  0.00  0.00    +0.000 C 
ATOM     21  C   UNL     1       5.620   4.840  16.323  0.00  0.00    +0.000 C 
ATOM     22  C   UNL     1       4.850   4.014  17.366  0.00  0.00    +0.000 C 
ATOM     23  C   UNL     1       4.637   4.784  18.680  0.00  0.00    +0.000 C 
ATOM     24  N   UNL     1       4.097   6.140  18.459  0.00  0.00    +0.000 N 
ATOM     25  C   UNL     1       2.964   6.523  19.147  0.00  0.00    +0.000 C 
ATOM     26  O   UNL     1       2.453   5.696  19.931  0.00  0.00    +0.000 OA
ATOM     27  C   UNL     1       4.905   6.909  17.525  0.00  0.00    +0.000 C 
ATOM     28  C   UNL     1       4.953   6.209  16.170  0.00  0.00    +0.000 C 
ENDBRANCH  19  25
ENDBRANCH  18  19
ENDBRANCH   1  18
BRANCH   5  29
ATOM     29  C   UNL     1      -1.567  10.047  18.583  0.00  0.00    +0.000 C 
BRANCH  29  30
ATOM     30  C   UNL     1      -2.456  10.181  17.418  0.00  0.00    +0.000 A 
ATOM     31  C   UNL     1      -2.314   9.964  16.064  0.00  0.00    +0.000 A 
ATOM     32  C   UNL     1      -3.269  10.809  15.435  0.00  0.00    +0.000 A 
ATOM     33  C   UNL     1      -3.985  11.406  16.443  0.00  0.00    +0.000 A 
ATOM     34  O   UNL     1      -3.527  10.998  17.648  0.00  0.00    +0.000 OA
ENDBRANCH  29  30
ENDBRANCH   5  29
TORSDOF 7
ENDMDL
MODEL 5
REMARK VINA RESULT:      -7.7      1.355      2.293
REMARK  Name = 
REMARK  8 active torsions:
REMARK  status: ('A' for Active; 'I' for Inactive)
REMARK    1  A    between atoms: C_1  and  C_2
REMARK    2  A    between atoms: C_6  and  C_8
REMARK    3  A    between atoms: C_8  and  S_9
REMARK    4  A    between atoms: S_9  and  C_10
REMARK    5  A    between atoms: C_13  and  C_14
REMARK    6  A    between atoms: C_23  and  O_24
REMARK    7  A    between atoms: N_25  and  C_26
REMARK    8  A    between atoms: C_26  and  C_27
REMARK                            x       y       z     vdW  Elec       q    Type
REMARK                         _______ _______ _______ _____ _____    ______ ____
ROOT
ATOM      1  C   UNL     1       0.710  10.383  18.456  0.00  0.00    +0.000 A 
ATOM      2  N   UNL     1       1.524  11.295  18.925  0.00  0.00    +0.000 NA
ATOM      3  N   UNL     1       0.860  11.968  19.926  0.00  0.00    +0.000 NA
ATOM      4  C   UNL     1      -0.359  11.466  20.046  0.00  0.00    +0.000 A 
ATOM      5  N   UNL     1      -0.528  10.567  18.990  0.00  0.00    +0.000 N 
ENDROOT
BRANCH   4   6
ATOM      6  C   UNL     1      -1.352  11.799  21.105  0.00  0.00    +0.000 A 
ATOM      7  C   UNL     1      -2.560  12.476  20.827  0.00  0.00    +0.000 A 
ATOM      8  C   UNL     1      -3.494  12.830  21.829  0.00  0.00    +0.000 A 
ATOM      9  C   UNL     1      -4.655  13.578  21.543  0.00  0.00    +0.000 A 
ATOM     10  C   UNL     1      -5.586  13.869  22.548  0.00  0.00    +0.000 A 
ATOM     11  C   UNL     1      -5.369  13.419  23.844  0.00  0.00    +0.000 A 
ATOM     12  C   UNL     1      -4.209  12.702  24.146  0.00  0.00    +0.000 A 
ATOM     13  C   UNL     1      -3.257  12.411  23.149  0.00  0.00    +0.000 A 
ATOM     14  C   UNL     1      -2.077  11.708  23.439  0.00  0.00    +0.000 A 
ATOM     15  C   UNL     1      -1.135  11.428  22.436  0.00  0.00    +0.000 A 
BRANCH  15  16
ATOM     16  O   UNL     1       0.026  10.805  22.786  0.00  0.00    +0.000 OA
ATOM     17  H   UNL     1       0.713  11.463  22.975  0.00  0.00    +0.000 HD
ENDBRANCH  15  16
ENDBRANCH   4   6
BRANCH   1  18
ATOM     18  S   UNL     1       1.193   8.982  17.557  0.00  0.00    +0.000 S 
BRANCH  18  19
ATOM     19  C   UNL     1       2.471   8.226  18.566  0.00  0.00    +0.000 C 
BRANCH  19  25
ATOM     20  C   UNL     1       2.602   2.432  21.641  0.00  0.00    +0.000 C 
ATOM     21  C   UNL     1       2.355   3.207  20.350  0.00  0.00    +0.000 C 
ATOM     22  C   UNL     1       3.669   3.517  19.615  0.00  0.00    +0.000 C 
ATOM     23  C   UNL     1       3.455   4.421  18.389  0.00  0.00    +0.000 C 
ATOM     24  N   UNL     1       2.636   5.609  18.698  0.00  0.00    +0.000 N 
ATOM     25  C   UNL     1       3.120   6.855  18.357  0.00  0.00    +0.000 C 
ATOM     26  O   UNL     1       4.234   6.912  17.794  0.00  0.00    +0.000 OA
ATOM     27  C   UNL     1       1.369   5.259  19.321  0.00  0.00    +0.000 C 
ATOM     28  C   UNL     1       1.613   4.516  20.632  0.00  0.00    +0.000 C 
ENDBRANCH  19  25
ENDBRANCH  18  19
ENDBRANCH   1  18
BRANCH   5  29
ATOM     29  C   UNL     1      -1.799   9.899  18.769  0.00  0.00    +0.000 C 
BRANCH  29  30
ATOM     30  C   UNL     1      -2.598  10.103  17.550  0.00  0.00    +0.000 A 
ATOM     31  C   UNL     1      -2.348   9.985  16.199  0.00  0.00    +0.000 A 
ATOM     32  C   UNL     1      -3.267  10.859  15.558  0.00  0.00    +0.000 A 
ATOM     33  C   UNL     1      -4.071  11.374  16.546  0.00  0.00    +0.000 A 
ATOM     34  O   UNL     1      -3.699  10.887  17.751  0.00  0.00    +0.000 OA
ENDBRANCH  29  30
ENDBRANCH   5  29
TORSDOF 7
ENDMDL
MODEL 6
REMARK VINA RESULT:      -7.6      3.344      6.122
REMARK  Name = 
REMARK  8 active torsions:
REMARK  status: ('A' for Active; 'I' for Inactive)
REMARK    1  A    between atoms: C_1  and  C_2
REMARK    2  A    between atoms: C_6  and  C_8
REMARK    3  A    between atoms: C_8  and  S_9
REMARK    4  A    between atoms: S_9  and  C_10
REMARK    5  A    between atoms: C_13  and  C_14
REMARK    6  A    between atoms: C_23  and  O_24
REMARK    7  A    between atoms: N_25  and  C_26
REMARK    8  A    between atoms: C_26  and  C_27
REMARK                            x       y       z     vdW  Elec       q    Type
REMARK                         _______ _______ _______ _____ _____    ______ ____
ROOT
ATOM      1  C   UNL     1       3.705   5.683  17.912  0.00  0.00    +0.000 A 
ATOM      2  N   UNL     1       4.415   6.689  17.464  0.00  0.00    +0.000 NA
ATOM      3  N   UNL     1       3.778   7.848  17.847  0.00  0.00    +0.000 NA
ATOM      4  C   UNL     1       2.677   7.534  18.512  0.00  0.00    +0.000 A 
ATOM      5  N   UNL     1       2.527   6.149  18.408  0.00  0.00    +0.000 N 
ENDROOT
BRANCH   4   6
ATOM      6  C   UNL     1       1.778   8.480  19.231  0.00  0.00    +0.000 A 
ATOM      7  C   UNL     1       1.450   8.327  20.596  0.00  0.00    +0.000 A 
ATOM      8  C   UNL     1       0.570   9.198  21.279  0.00  0.00    +0.000 A 
ATOM      9  C   UNL     1       0.189   8.981  22.620  0.00  0.00    +0.000 A 
ATOM     10  C   UNL     1      -0.644   9.889  23.285  0.00  0.00    +0.000 A 
ATOM     11  C   UNL     1      -1.107  11.018  22.621  0.00  0.00    +0.000 A 
ATOM     12  C   UNL     1      -0.760  11.230  21.285  0.00  0.00    +0.000 A 
ATOM     13  C   UNL     1       0.068  10.320  20.598  0.00  0.00    +0.000 A 
ATOM     14  C   UNL     1       0.410  10.507  19.249  0.00  0.00    +0.000 A 
ATOM     15  C   UNL     1       1.234   9.590  18.577  0.00  0.00    +0.000 A 
BRANCH  15  16
ATOM     16  O   UNL     1       1.476   9.782  17.248  0.00  0.00    +0.000 OA
ATOM     17  H   UNL     1       0.972  10.545  16.925  0.00  0.00    +0.000 HD
ENDBRANCH  15  16
ENDBRANCH   4   6
BRANCH   1  18
ATOM     18  S   UNL     1       4.293   4.067  18.131  0.00  0.00    +0.000 S 
BRANCH  18  19
ATOM     19  C   UNL     1       4.759   3.536  16.481  0.00  0.00    +0.000 C 
BRANCH  19  25
ATOM     20  C   UNL     1       7.422   2.292  10.616  0.00  0.00    +0.000 C 
ATOM     21  C   UNL     1       6.789   3.309  11.561  0.00  0.00    +0.000 C 
ATOM     22  C   UNL     1       7.810   3.858  12.570  0.00  0.00    +0.000 C 
ATOM     23  C   UNL     1       7.160   4.773  13.621  0.00  0.00    +0.000 C 
ATOM     24  N   UNL     1       5.963   4.168  14.236  0.00  0.00    +0.000 N 
ATOM     25  C   UNL     1       5.883   4.106  15.611  0.00  0.00    +0.000 C 
ATOM     26  O   UNL     1       6.835   4.574  16.271  0.00  0.00    +0.000 OA
ATOM     27  C   UNL     1       4.991   3.737  13.242  0.00  0.00    +0.000 C 
ATOM     28  C   UNL     1       5.611   2.692  12.319  0.00  0.00    +0.000 C 
ENDBRANCH  19  25
ENDBRANCH  18  19
ENDBRANCH   1  18
BRANCH   5  29
ATOM     29  C   UNL     1       1.361   5.477  18.954  0.00  0.00    +0.000 C 
BRANCH  29  30
ATOM     30  C   UNL     1       1.442   4.557  20.100  0.00  0.00    +0.000 A 
ATOM     31  C   UNL     1       2.167   4.535  21.273  0.00  0.00    +0.000 A 
ATOM     32  C   UNL     1       2.256   3.167  21.646  0.00  0.00    +0.000 A 
ATOM     33  C   UNL     1       1.506   2.464  20.735  0.00  0.00    +0.000 A 
ATOM     34  O   UNL     1       0.974   3.305  19.820  0.00  0.00    +0.000 OA
ENDBRANCH  29  30
ENDBRANCH   5  29
TORSDOF 7
ENDMDL
MODEL 7
REMARK VINA RESULT:      -7.6      2.204      9.425
REMARK  Name = 
REMARK  8 active torsions:
REMARK  status: ('A' for Active; 'I' for Inactive)
REMARK    1  A    between atoms: C_1  and  C_2
REMARK    2  A    between atoms: C_6  and  C_8
REMARK    3  A    between atoms: C_8  and  S_9
REMARK    4  A    between atoms: S_9  and  C_10
REMARK    5  A    between atoms: C_13  and  C_14
REMARK    6  A    between atoms: C_23  and  O_24
REMARK    7  A    between atoms: N_25  and  C_26
REMARK    8  A    between atoms: C_26  and  C_27
REMARK                            x       y       z     vdW  Elec       q    Type
REMARK                         _______ _______ _______ _____ _____    ______ ____
ROOT
ATOM      1  C   UNL     1       1.480  10.075  18.889  0.00  0.00    +0.000 A 
ATOM      2  N   UNL     1       1.736  10.186  17.609  0.00  0.00    +0.000 NA
ATOM      3  N   UNL     1       2.232   8.977  17.179  0.00  0.00    +0.000 NA
ATOM      4  C   UNL     1       2.287   8.144  18.207  0.00  0.00    +0.000 A 
ATOM      5  N   UNL     1       1.973   8.892  19.345  0.00  0.00    +0.000 N 
ENDROOT
BRANCH   4   6
ATOM      6  C   UNL     1       2.619   6.693  18.154  0.00  0.00    +0.000 A 
ATOM      7  C   UNL     1       1.715   5.691  18.572  0.00  0.00    +0.000 A 
ATOM      8  C   UNL     1       2.031   4.313  18.559  0.00  0.00    +0.000 A 
ATOM      9  C   UNL     1       1.145   3.335  19.057  0.00  0.00    +0.000 A 
ATOM     10  C   UNL     1       1.467   1.973  18.985  0.00  0.00    +0.000 A 
ATOM     11  C   UNL     1       2.671   1.575  18.418  0.00  0.00    +0.000 A 
ATOM     12  C   UNL     1       3.569   2.537  17.946  0.00  0.00    +0.000 A 
ATOM     13  C   UNL     1       3.266   3.910  18.023  0.00  0.00    +0.000 A 
ATOM     14  C   UNL     1       4.165   4.890  17.572  0.00  0.00    +0.000 A 
ATOM     15  C   UNL     1       3.851   6.255  17.657  0.00  0.00    +0.000 A 
BRANCH  15  16
ATOM     16  O   UNL     1       4.789   7.167  17.271  0.00  0.00    +0.000 OA
ATOM     17  H   UNL     1       5.037   7.727  18.022  0.00  0.00    +0.000 HD
ENDBRANCH  15  16
ENDBRANCH   4   6
BRANCH   1  18
ATOM     18  S   UNL     1       0.416  11.107  19.786  0.00  0.00    +0.000 S 
BRANCH  18  19
ATOM     19  C   UNL     1      -0.969  11.388  18.679  0.00  0.00    +0.000 C 
BRANCH  19  25
ATOM     20  C   UNL     1      -4.307  12.620  24.191  0.00  0.00    +0.000 C 
ATOM     21  C   UNL     1      -3.850  13.105  22.818  0.00  0.00    +0.000 C 
ATOM     22  C   UNL     1      -4.744  12.552  21.696  0.00  0.00    +0.000 C 
ATOM     23  C   UNL     1      -4.215  12.912  20.297  0.00  0.00    +0.000 C 
ATOM     24  N   UNL     1      -2.780  12.604  20.138  0.00  0.00    +0.000 N 
ATOM     25  C   UNL     1      -2.381  11.838  19.063  0.00  0.00    +0.000 C 
ATOM     26  O   UNL     1      -3.262  11.446  18.270  0.00  0.00    +0.000 OA
ATOM     27  C   UNL     1      -1.968  13.215  21.180  0.00  0.00    +0.000 C 
ATOM     28  C   UNL     1      -2.398  12.702  22.551  0.00  0.00    +0.000 C 
ENDBRANCH  19  25
ENDBRANCH  18  19
ENDBRANCH   1  18
BRANCH   5  29
ATOM     29  C   UNL     1       2.030   8.301  20.671  0.00  0.00    +0.000 C 
BRANCH  29  30
ATOM     30  C   UNL     1       0.959   8.482  21.664  0.00  0.00    +0.000 A 
ATOM     31  C   UNL     1      -0.415   8.373  21.635  0.00  0.00    +0.000 A 
ATOM     32  C   UNL     1      -0.892   9.220  22.672  0.00  0.00    +0.000 A 
ATOM     33  C   UNL     1       0.217   9.710  23.318  0.00  0.00    +0.000 A 
ATOM     34  O   UNL     1       1.343   9.233  22.739  0.00  0.00    +0.000 OA
ENDBRANCH  29  30
ENDBRANCH   5  29
TORSDOF 7
ENDMDL
MODEL 8
REMARK VINA RESULT:      -7.6      2.567      8.936
REMARK  Name = 
REMARK  8 active torsions:
REMARK  status: ('A' for Active; 'I' for Inactive)
REMARK    1  A    between atoms: C_1  and  C_2
REMARK    2  A    between atoms: C_6  and  C_8
REMARK    3  A    between atoms: C_8  and  S_9
REMARK    4  A    between atoms: S_9  and  C_10
REMARK    5  A    between atoms: C_13  and  C_14
REMARK    6  A    between atoms: C_23  and  O_24
REMARK    7  A    between atoms: N_25  and  C_26
REMARK    8  A    between atoms: C_26  and  C_27
REMARK                            x       y       z     vdW  Elec       q    Type
REMARK                         _______ _______ _______ _____ _____    ______ ____
ROOT
ATOM      1  C   UNL     1      -0.075  12.647  20.328  0.00  0.00    +0.000 A 
ATOM      2  N   UNL     1       0.635  12.467  21.414  0.00  0.00    +0.000 NA
ATOM      3  N   UNL     1       1.249  11.240  21.310  0.00  0.00    +0.000 NA
ATOM      4  C   UNL     1       0.894  10.677  20.165  0.00  0.00    +0.000 A 
ATOM      5  N   UNL     1      -0.094  11.493  19.606  0.00  0.00    +0.000 N 
ENDROOT
BRANCH   4   6
ATOM      6  C   UNL     1       1.445   9.419  19.589  0.00  0.00    +0.000 A 
ATOM      7  C   UNL     1       1.391   8.184  20.272  0.00  0.00    +0.000 A 
ATOM      8  C   UNL     1       1.942   6.990  19.751  0.00  0.00    +0.000 A 
ATOM      9  C   UNL     1       1.951   5.785  20.484  0.00  0.00    +0.000 A 
ATOM     10  C   UNL     1       2.459   4.607  19.921  0.00  0.00    +0.000 A 
ATOM     11  C   UNL     1       2.964   4.620  18.627  0.00  0.00    +0.000 A 
ATOM     12  C   UNL     1       2.986   5.814  17.901  0.00  0.00    +0.000 A 
ATOM     13  C   UNL     1       2.490   7.009  18.457  0.00  0.00    +0.000 A 
ATOM     14  C   UNL     1       2.523   8.221  17.749  0.00  0.00    +0.000 A 
ATOM     15  C   UNL     1       2.027   9.406  18.317  0.00  0.00    +0.000 A 
BRANCH  15  16
ATOM     16  O   UNL     1       2.149  10.568  17.614  0.00  0.00    +0.000 OA
ATOM     17  H   UNL     1       2.652  11.217  18.130  0.00  0.00    +0.000 HD
ENDBRANCH  15  16
ENDBRANCH   4   6
BRANCH   1  18
ATOM     18  S   UNL     1      -0.631  14.180  19.742  0.00  0.00    +0.000 S 
BRANCH  18  19
ATOM     19  C   UNL     1      -1.967  14.623  20.855  0.00  0.00    +0.000 C 
BRANCH  19  25
ATOM     20  C   UNL     1      -7.479  13.153  24.095  0.00  0.00    +0.000 C 
ATOM     21  C   UNL     1      -6.163  12.669  23.493  0.00  0.00    +0.000 C 
ATOM     22  C   UNL     1      -4.977  12.936  24.433  0.00  0.00    +0.000 C 
ATOM     23  C   UNL     1      -3.627  12.589  23.785  0.00  0.00    +0.000 C 
ATOM     24  N   UNL     1      -3.478  13.174  22.438  0.00  0.00    +0.000 N 
ATOM     25  C   UNL     1      -2.353  13.921  22.160  0.00  0.00    +0.000 C 
ATOM     26  O   UNL     1      -1.508  14.061  23.069  0.00  0.00    +0.000 OA
ATOM     27  C   UNL     1      -4.587  12.826  21.562  0.00  0.00    +0.000 C 
ATOM     28  C   UNL     1      -5.900  13.342  22.144  0.00  0.00    +0.000 C 
ENDBRANCH  19  25
ENDBRANCH  18  19
ENDBRANCH   1  18
BRANCH   5  29
ATOM     29  C   UNL     1      -0.773  11.117  18.379  0.00  0.00    +0.000 C 
BRANCH  29  30
ATOM     30  C   UNL     1      -2.206  10.785  18.338  0.00  0.00    +0.000 A 
ATOM     31  C   UNL     1      -2.945   9.760  17.785  0.00  0.00    +0.000 A 
ATOM     32  C   UNL     1      -4.245  10.294  17.571  0.00  0.00    +0.000 A 
ATOM     33  C   UNL     1      -4.236  11.565  18.090  0.00  0.00    +0.000 A 
ATOM     34  O   UNL     1      -3.015  11.855  18.596  0.00  0.00    +0.000 OA
ENDBRANCH  29  30
ENDBRANCH   5  29
TORSDOF 7
ENDMDL
MODEL 9
REMARK VINA RESULT:      -7.6      1.701      2.405
REMARK  Name = 
REMARK  8 active torsions:
REMARK  status: ('A' for Active; 'I' for Inactive)
REMARK    1  A    between atoms: C_1  and  C_2
REMARK    2  A    between atoms: C_6  and  C_8
REMARK    3  A    between atoms: C_8  and  S_9
REMARK    4  A    between atoms: S_9  and  C_10
REMARK    5  A    between atoms: C_13  and  C_14
REMARK    6  A    between atoms: C_23  and  O_24
REMARK    7  A    between atoms: N_25  and  C_26
REMARK    8  A    between atoms: C_26  and  C_27
REMARK                            x       y       z     vdW  Elec       q    Type
REMARK                         _______ _______ _______ _____ _____    ______ ____
ROOT
ATOM      1  C   UNL     1       1.254  10.318  18.276  0.00  0.00    +0.000 A 
ATOM      2  N   UNL     1       2.064  11.343  18.366  0.00  0.00    +0.000 NA
ATOM      3  N   UNL     1       1.402  12.336  19.052  0.00  0.00    +0.000 NA
ATOM      4  C   UNL     1       0.187  11.908  19.361  0.00  0.00    +0.000 A 
ATOM      5  N   UNL     1       0.018  10.681  18.715  0.00  0.00    +0.000 N 
ENDROOT
BRANCH   4   6
ATOM      6  C   UNL     1      -0.802  12.606  20.230  0.00  0.00    +0.000 A 
ATOM      7  C   UNL     1      -1.317  12.025  21.410  0.00  0.00    +0.000 A 
ATOM      8  C   UNL     1      -2.283  12.662  22.224  0.00  0.00    +0.000 A 
ATOM      9  C   UNL     1      -2.846  12.033  23.354  0.00  0.00    +0.000 A 
ATOM     10  C   UNL     1      -3.763  12.709  24.169  0.00  0.00    +0.000 A 
ATOM     11  C   UNL     1      -4.127  14.015  23.866  0.00  0.00    +0.000 A 
ATOM     12  C   UNL     1      -3.597  14.639  22.734  0.00  0.00    +0.000 A 
ATOM     13  C   UNL     1      -2.683  13.969  21.898  0.00  0.00    +0.000 A 
ATOM     14  C   UNL     1      -2.156  14.576  20.746  0.00  0.00    +0.000 A 
ATOM     15  C   UNL     1      -1.248  13.894  19.920  0.00  0.00    +0.000 A 
BRANCH  15  16
ATOM     16  O   UNL     1      -0.823  14.503  18.776  0.00  0.00    +0.000 OA
ATOM     17  H   UNL     1       0.119  14.721  18.846  0.00  0.00    +0.000 HD
ENDBRANCH  15  16
ENDBRANCH   4   6
BRANCH   1  18
ATOM     18  S   UNL     1       1.742   8.687  17.956  0.00  0.00    +0.000 S 
BRANCH  18  19
ATOM     19  C   UNL     1       2.324   8.077  19.541  0.00  0.00    +0.000 C 
BRANCH  19  25
ATOM     20  C   UNL     1       3.334   1.785  17.985  0.00  0.00    +0.000 C 
ATOM     21  C   UNL     1       3.496   2.908  19.005  0.00  0.00    +0.000 C 
ATOM     22  C   UNL     1       2.214   3.117  19.827  0.00  0.00    +0.000 C 
ATOM     23  C   UNL     1       2.308   4.337  20.759  0.00  0.00    +0.000 C 
ATOM     24  N   UNL     1       2.785   5.546  20.060  0.00  0.00    +0.000 N 
ATOM     25  C   UNL     1       2.046   6.706  20.161  0.00  0.00    +0.000 C 
ATOM     26  O   UNL     1       1.004   6.673  20.850  0.00  0.00    +0.000 OA
ATOM     27  C   UNL     1       4.042   5.319  19.362  0.00  0.00    +0.000 C 
ATOM     28  C   UNL     1       3.872   4.222  18.315  0.00  0.00    +0.000 C 
ENDBRANCH  19  25
ENDBRANCH  18  19
ENDBRANCH   1  18
BRANCH   5  29
ATOM     29  C   UNL     1      -1.249   9.973  18.769  0.00  0.00    +0.000 C 
BRANCH  29  30
ATOM     30  C   UNL     1      -2.301  10.157  17.756  0.00  0.00    +0.000 A 
ATOM     31  C   UNL     1      -2.371   9.975  16.391  0.00  0.00    +0.000 A 
ATOM     32  C   UNL     1      -3.389  10.855  15.935  0.00  0.00    +0.000 A 
ATOM     33  C   UNL     1      -3.930  11.439  17.054  0.00  0.00    +0.000 A 
ATOM     34  O   UNL     1      -3.304  10.988  18.165  0.00  0.00    +0.000 OA
ENDBRANCH  29  30
ENDBRANCH   5  29
TORSDOF 7
ENDMDL
