MODEL 1
REMARK VINA RESULT:      -8.0      0.000      0.000
REMARK  Name = 
REMARK  8 active torsions:
REMARK  status: ('A' for Active; 'I' for Inactive)
REMARK    1  A    between atoms: C_1  and  C_2
REMARK    2  A    between atoms: C_2  and  N_3
REMARK    3  A    between atoms: C_2  and  C_26
REMARK    4  A    between atoms: N_7  and  C_8
REMARK    5  A    between atoms: C_8  and  C_9
REMARK    6  A    between atoms: C_8  and  C_10
REMARK    7  A    between atoms: C_14  and  C_15
REMARK    8  A    between atoms: C_19  and  C_20
REMARK                            x       y       z     vdW  Elec       q    Type
REMARK                         _______ _______ _______ _____ _____    ______ ____
ROOT
ATOM      1  N   UNL     1       1.402   8.441  17.879  0.00  0.00    +0.000 N 
ATOM      2  C   UNL     1       0.861   9.685  18.178  0.00  0.00    +0.000 A 
ATOM      3  N   UNL     1      -0.441   9.854  17.964  0.00  0.00    +0.000 NA
ATOM      4  C   UNL     1      -0.939  11.056  18.238  0.00  0.00    +0.000 A 
ATOM      5  N   UNL     1      -2.291  11.326  18.135  0.00  0.00    +0.000 N 
ATOM      6  N   UNL     1      -0.210  12.074  18.671  0.00  0.00    +0.000 NA
ATOM      7  C   UNL     1       1.089  11.819  18.841  0.00  0.00    +0.000 A 
ATOM      8  N   UNL     1       1.668  10.641  18.604  0.00  0.00    +0.000 NA
ATOM      9  H   UNL     1       0.650   7.798  17.669  0.00  0.00    +0.000 HD
ATOM     10  H   UNL     1      -2.435  12.326  18.182  0.00  0.00    +0.000 HD
ENDROOT
BRANCH   7  11
ATOM     11  C   UNL     1       1.974  12.909  19.325  0.00  0.00    +0.000 A 
ATOM     12  C   UNL     1       2.047  13.234  20.682  0.00  0.00    +0.000 A 
ATOM     13  C   UNL     1       2.860  14.290  21.094  0.00  0.00    +0.000 A 
ATOM     14  C   UNL     1       3.571  15.008  20.148  0.00  0.00    +0.000 A 
ATOM     15  C   UNL     1       3.463  14.654  18.801  0.00  0.00    +0.000 A 
ATOM     16  N   UNL     1       2.683  13.608  18.395  0.00  0.00    +0.000 NA
BRANCH  15  17
ATOM     17  C   UNL     1       4.213  15.458  17.746  0.00  0.00    +0.000 C 
ATOM     18  F   UNL     1       4.570  16.707  18.175  0.00  0.00    +0.000 F 
ATOM     19  F   UNL     1       5.378  14.870  17.347  0.00  0.00    +0.000 F 
ATOM     20  F   UNL     1       3.485  15.664  16.612  0.00  0.00    +0.000 F 
ENDBRANCH  15  17
ENDBRANCH   7  11
BRANCH   1  22
ATOM     21  C   UNL     1       1.883   7.680  20.161  0.00  0.00    +0.000 C 
ATOM     22  C   UNL     1       2.454   7.925  18.757  0.00  0.00    +0.000 C 
BRANCH  22  23
ATOM     23  C   UNL     1       3.105   6.706  18.107  0.00  0.00    +0.000 A 
ATOM     24  C   UNL     1       2.452   5.464  18.225  0.00  0.00    +0.000 A 
ATOM     25  C   UNL     1       2.926   4.327  17.567  0.00  0.00    +0.000 A 
ATOM     26  C   UNL     1       4.070   4.407  16.780  0.00  0.00    +0.000 A 
ATOM     27  C   UNL     1       4.750   5.618  16.670  0.00  0.00    +0.000 A 
ATOM     28  C   UNL     1       4.278   6.756  17.334  0.00  0.00    +0.000 A 
ENDBRANCH  22  23
ENDBRANCH   1  22
BRANCH   5  29
ATOM     29  C   UNL     1      -3.118  10.605  17.185  0.00  0.00    +0.000 C 
ATOM     30  C   UNL     1      -2.786  11.035  15.754  0.00  0.00    +0.000 C 
BRANCH  29  31
ATOM     31  C   UNL     1      -4.598  10.833  17.457  0.00  0.00    +0.000 C 
ATOM     32  C   UNL     1      -5.007  11.818  18.526  0.00  0.00    +0.000 C 
ATOM     33  C   UNL     1      -5.387  12.073  17.095  0.00  0.00    +0.000 C 
ENDBRANCH  29  31
ENDBRANCH   5  29
TORSDOF 6
ENDMDL
MODEL 2
REMARK VINA RESULT:      -8.0      0.171      1.119
REMARK  Name = 
REMARK  8 active torsions:
REMARK  status: ('A' for Active; 'I' for Inactive)
REMARK    1  A    between atoms: C_1  and  C_2
REMARK    2  A    between atoms: C_2  and  N_3
REMARK    3  A    between atoms: C_2  and  C_26
REMARK    4  A    between atoms: N_7  and  C_8
REMARK    5  A    between atoms: C_8  and  C_9
REMARK    6  A    between atoms: C_8  and  C_10
REMARK    7  A    between atoms: C_14  and  C_15
REMARK    8  A    between atoms: C_19  and  C_20
REMARK                            x       y       z     vdW  Elec       q    Type
REMARK                         _______ _______ _______ _____ _____    ______ ____
ROOT
ATOM      1  N   UNL     1       1.329   8.515  17.809  0.00  0.00    +0.000 N 
ATOM      2  C   UNL     1       0.780   9.747  18.143  0.00  0.00    +0.000 A 
ATOM      3  N   UNL     1      -0.527   9.907  17.950  0.00  0.00    +0.000 NA
ATOM      4  C   UNL     1      -1.033  11.098  18.258  0.00  0.00    +0.000 A 
ATOM      5  N   UNL     1      -2.389  11.356  18.179  0.00  0.00    +0.000 N 
ATOM      6  N   UNL     1      -0.307  12.113  18.704  0.00  0.00    +0.000 NA
ATOM      7  C   UNL     1       0.995  11.867  18.851  0.00  0.00    +0.000 A 
ATOM      8  N   UNL     1       1.583  10.701  18.580  0.00  0.00    +0.000 NA
ATOM      9  H   UNL     1       0.581   7.869  17.594  0.00  0.00    +0.000 HD
ATOM     10  H   UNL     1      -2.542  12.353  18.250  0.00  0.00    +0.000 HD
ENDROOT
BRANCH   7  11
ATOM     11  C   UNL     1       1.876  12.955  19.349  0.00  0.00    +0.000 A 
ATOM     12  C   UNL     1       1.886  13.320  20.697  0.00  0.00    +0.000 A 
ATOM     13  C   UNL     1       2.698  14.372  21.120  0.00  0.00    +0.000 A 
ATOM     14  C   UNL     1       3.471  15.048  20.191  0.00  0.00    +0.000 A 
ATOM     15  C   UNL     1       3.425  14.655  18.851  0.00  0.00    +0.000 A 
ATOM     16  N   UNL     1       2.647  13.611  18.437  0.00  0.00    +0.000 NA
BRANCH  15  17
ATOM     17  C   UNL     1       4.244  15.413  17.814  0.00  0.00    +0.000 C 
ATOM     18  F   UNL     1       5.334  14.712  17.374  0.00  0.00    +0.000 F 
ATOM     19  F   UNL     1       3.537  15.721  16.689  0.00  0.00    +0.000 F 
ATOM     20  F   UNL     1       4.743  16.592  18.284  0.00  0.00    +0.000 F 
ENDBRANCH  15  17
ENDBRANCH   7  11
BRANCH   1  22
ATOM     21  C   UNL     1       1.854   7.733  20.074  0.00  0.00    +0.000 C 
ATOM     22  C   UNL     1       2.397   7.990  18.662  0.00  0.00    +0.000 C 
BRANCH  22  23
ATOM     23  C   UNL     1       3.034   6.776  17.988  0.00  0.00    +0.000 A 
ATOM     24  C   UNL     1       4.275   6.950  17.346  0.00  0.00    +0.000 A 
ATOM     25  C   UNL     1       4.972   5.868  16.803  0.00  0.00    +0.000 A 
ATOM     26  C   UNL     1       4.437   4.586  16.886  0.00  0.00    +0.000 A 
ATOM     27  C   UNL     1       3.197   4.393  17.490  0.00  0.00    +0.000 A 
ATOM     28  C   UNL     1       2.497   5.478  18.030  0.00  0.00    +0.000 A 
ENDBRANCH  22  23
ENDBRANCH   1  22
BRANCH   5  29
ATOM     29  C   UNL     1      -3.221  10.648  17.223  0.00  0.00    +0.000 C 
ATOM     30  C   UNL     1      -2.868  11.068  15.794  0.00  0.00    +0.000 C 
BRANCH  29  31
ATOM     31  C   UNL     1      -4.698  10.906  17.481  0.00  0.00    +0.000 C 
ATOM     32  C   UNL     1      -5.100  11.812  18.621  0.00  0.00    +0.000 C 
ATOM     33  C   UNL     1      -5.435  12.200  17.208  0.00  0.00    +0.000 C 
ENDBRANCH  29  31
ENDBRANCH   5  29
TORSDOF 6
ENDMDL
MODEL 3
REMARK VINA RESULT:      -8.0      0.690      1.643
REMARK  Name = 
REMARK  8 active torsions:
REMARK  status: ('A' for Active; 'I' for Inactive)
REMARK    1  A    between atoms: C_1  and  C_2
REMARK    2  A    between atoms: C_2  and  N_3
REMARK    3  A    between atoms: C_2  and  C_26
REMARK    4  A    between atoms: N_7  and  C_8
REMARK    5  A    between atoms: C_8  and  C_9
REMARK    6  A    between atoms: C_8  and  C_10
REMARK    7  A    between atoms: C_14  and  C_15
REMARK    8  A    between atoms: C_19  and  C_20
REMARK                            x       y       z     vdW  Elec       q    Type
REMARK                         _______ _______ _______ _____ _____    ______ ____
ROOT
ATOM      1  N   UNL     1       1.249   8.589  17.956  0.00  0.00    +0.000 N 
ATOM      2  C   UNL     1       0.766   9.848  18.289  0.00  0.00    +0.000 A 
ATOM      3  N   UNL     1      -0.538  10.064  18.133  0.00  0.00    +0.000 NA
ATOM      4  C   UNL     1      -0.980  11.281  18.440  0.00  0.00    +0.000 A 
ATOM      5  N   UNL     1      -2.325  11.598  18.399  0.00  0.00    +0.000 N 
ATOM      6  N   UNL     1      -0.197  12.268  18.850  0.00  0.00    +0.000 NA
ATOM      7  C   UNL     1       1.098  11.966  18.960  0.00  0.00    +0.000 A 
ATOM      8  N   UNL     1       1.624  10.771  18.688  0.00  0.00    +0.000 NA
ATOM      9  H   UNL     1       0.467   7.974  17.773  0.00  0.00    +0.000 HD
ATOM     10  H   UNL     1      -2.431  12.602  18.461  0.00  0.00    +0.000 HD
ENDROOT
BRANCH   7  11
ATOM     11  C   UNL     1       2.041  13.019  19.415  0.00  0.00    +0.000 A 
ATOM     12  C   UNL     1       2.184  13.328  20.770  0.00  0.00    +0.000 A 
ATOM     13  C   UNL     1       3.051  14.350  21.155  0.00  0.00    +0.000 A 
ATOM     14  C   UNL     1       3.746  15.052  20.185  0.00  0.00    +0.000 A 
ATOM     15  C   UNL     1       3.567  14.716  18.841  0.00  0.00    +0.000 A 
ATOM     16  N   UNL     1       2.734  13.701  18.461  0.00  0.00    +0.000 NA
BRANCH  15  17
ATOM     17  C   UNL     1       4.300  15.503  17.761  0.00  0.00    +0.000 C 
ATOM     18  F   UNL     1       3.545  15.705  16.638  0.00  0.00    +0.000 F 
ATOM     19  F   UNL     1       4.679  16.749  18.168  0.00  0.00    +0.000 F 
ATOM     20  F   UNL     1       5.433  14.885  17.325  0.00  0.00    +0.000 F 
ENDBRANCH  15  17
ENDBRANCH   7  11
BRANCH   1  22
ATOM     21  C   UNL     1       1.790   7.749  20.196  0.00  0.00    +0.000 C 
ATOM     22  C   UNL     1       2.319   8.028  18.783  0.00  0.00    +0.000 C 
BRANCH  22  23
ATOM     23  C   UNL     1       2.927   6.818  18.074  0.00  0.00    +0.000 A 
ATOM     24  C   UNL     1       4.132   7.000  17.369  0.00  0.00    +0.000 A 
ATOM     25  C   UNL     1       4.805   5.923  16.788  0.00  0.00    +0.000 A 
ATOM     26  C   UNL     1       4.283   4.638  16.896  0.00  0.00    +0.000 A 
ATOM     27  C   UNL     1       3.076   4.437  17.564  0.00  0.00    +0.000 A 
ATOM     28  C   UNL     1       2.399   5.518  18.141  0.00  0.00    +0.000 A 
ENDBRANCH  22  23
ENDBRANCH   1  22
BRANCH   5  29
ATOM     29  C   UNL     1      -3.218  10.916  17.479  0.00  0.00    +0.000 C 
ATOM     30  C   UNL     1      -3.472   9.482  17.948  0.00  0.00    +0.000 C 
BRANCH  29  31
ATOM     31  C   UNL     1      -2.648  10.900  16.068  0.00  0.00    +0.000 C 
ATOM     32  C   UNL     1      -2.633   9.604  15.294  0.00  0.00    +0.000 C 
ATOM     33  C   UNL     1      -3.446  10.763  14.789  0.00  0.00    +0.000 C 
ENDBRANCH  29  31
ENDBRANCH   5  29
TORSDOF 6
ENDMDL
MODEL 4
REMARK VINA RESULT:      -7.9      1.590      6.711
REMARK  Name = 
REMARK  8 active torsions:
REMARK  status: ('A' for Active; 'I' for Inactive)
REMARK    1  A    between atoms: C_1  and  C_2
REMARK    2  A    between atoms: C_2  and  N_3
REMARK    3  A    between atoms: C_2  and  C_26
REMARK    4  A    between atoms: N_7  and  C_8
REMARK    5  A    between atoms: C_8  and  C_9
REMARK    6  A    between atoms: C_8  and  C_10
REMARK    7  A    between atoms: C_14  and  C_15
REMARK    8  A    between atoms: C_19  and  C_20
REMARK                            x       y       z     vdW  Elec       q    Type
REMARK                         _______ _______ _______ _____ _____    ______ ____
ROOT
ATOM      1  N   UNL     1      -2.625  10.515  17.757  0.00  0.00    +0.000 N 
ATOM      2  C   UNL     1      -1.343  10.929  18.093  0.00  0.00    +0.000 A 
ATOM      3  N   UNL     1      -0.428   9.984  18.296  0.00  0.00    +0.000 NA
ATOM      4  C   UNL     1       0.790  10.397  18.635  0.00  0.00    +0.000 A 
ATOM      5  N   UNL     1       1.842   9.513  18.790  0.00  0.00    +0.000 N 
ATOM      6  N   UNL     1       1.115  11.670  18.807  0.00  0.00    +0.000 NA
ATOM      7  C   UNL     1       0.131  12.547  18.599  0.00  0.00    +0.000 A 
ATOM      8  N   UNL     1      -1.113  12.222  18.244  0.00  0.00    +0.000 NA
ATOM      9  H   UNL     1      -2.614   9.520  17.579  0.00  0.00    +0.000 HD
ATOM     10  H   UNL     1       2.612   9.989  19.242  0.00  0.00    +0.000 HD
ENDROOT
BRANCH   7  11
ATOM     11  C   UNL     1       0.417  13.994  18.770  0.00  0.00    +0.000 A 
ATOM     12  C   UNL     1      -0.491  14.842  19.410  0.00  0.00    +0.000 A 
ATOM     13  C   UNL     1      -0.205  16.203  19.518  0.00  0.00    +0.000 A 
ATOM     14  C   UNL     1       0.970  16.694  18.974  0.00  0.00    +0.000 A 
ATOM     15  C   UNL     1       1.846  15.813  18.335  0.00  0.00    +0.000 A 
ATOM     16  N   UNL     1       1.579  14.476  18.246  0.00  0.00    +0.000 NA
BRANCH  15  17
ATOM     17  C   UNL     1       3.125  16.346  17.702  0.00  0.00    +0.000 C 
ATOM     18  F   UNL     1       3.959  16.950  18.603  0.00  0.00    +0.000 F 
ATOM     19  F   UNL     1       3.879  15.375  17.111  0.00  0.00    +0.000 F 
ATOM     20  F   UNL     1       2.895  17.286  16.742  0.00  0.00    +0.000 F 
ENDBRANCH  15  17
ENDBRANCH   7  11
BRANCH   1  22
ATOM     21  C   UNL     1      -3.264  10.701  15.396  0.00  0.00    +0.000 C 
ATOM     22  C   UNL     1      -3.373  11.326  16.793  0.00  0.00    +0.000 C 
BRANCH  22  23
ATOM     23  C   UNL     1      -4.801  11.524  17.298  0.00  0.00    +0.000 A 
ATOM     24  C   UNL     1      -5.301  10.612  18.248  0.00  0.00    +0.000 A 
ATOM     25  C   UNL     1      -6.555  10.789  18.837  0.00  0.00    +0.000 A 
ATOM     26  C   UNL     1      -7.339  11.883  18.486  0.00  0.00    +0.000 A 
ATOM     27  C   UNL     1      -6.879  12.784  17.527  0.00  0.00    +0.000 A 
ATOM     28  C   UNL     1      -5.625  12.602  16.932  0.00  0.00    +0.000 A 
ENDBRANCH  22  23
ENDBRANCH   1  22
BRANCH   5  29
ATOM     29  C   UNL     1       1.602   8.144  19.209  0.00  0.00    +0.000 C 
ATOM     30  C   UNL     1       1.504   8.062  20.734  0.00  0.00    +0.000 C 
BRANCH  29  31
ATOM     31  C   UNL     1       2.702   7.216  18.716  0.00  0.00    +0.000 C 
ATOM     32  C   UNL     1       2.965   5.927  19.457  0.00  0.00    +0.000 C 
ATOM     33  C   UNL     1       2.498   5.883  18.029  0.00  0.00    +0.000 C 
ENDBRANCH  29  31
ENDBRANCH   5  29
TORSDOF 6
ENDMDL
MODEL 5
REMARK VINA RESULT:      -7.8      1.843      2.425
REMARK  Name = 
REMARK  8 active torsions:
REMARK  status: ('A' for Active; 'I' for Inactive)
REMARK    1  A    between atoms: C_1  and  C_2
REMARK    2  A    between atoms: C_2  and  N_3
REMARK    3  A    between atoms: C_2  and  C_26
REMARK    4  A    between atoms: N_7  and  C_8
REMARK    5  A    between atoms: C_8  and  C_9
REMARK    6  A    between atoms: C_8  and  C_10
REMARK    7  A    between atoms: C_14  and  C_15
REMARK    8  A    between atoms: C_19  and  C_20
REMARK                            x       y       z     vdW  Elec       q    Type
REMARK                         _______ _______ _______ _____ _____    ______ ____
ROOT
ATOM      1  N   UNL     1       0.202   9.277  19.293  0.00  0.00    +0.000 N 
ATOM      2  C   UNL     1      -0.210  10.601  19.211  0.00  0.00    +0.000 A 
ATOM      3  N   UNL     1      -1.517  10.831  19.107  0.00  0.00    +0.000 NA
ATOM      4  C   UNL     1      -1.893  12.103  19.012  0.00  0.00    +0.000 A 
ATOM      5  N   UNL     1      -3.225  12.469  18.983  0.00  0.00    +0.000 N 
ATOM      6  N   UNL     1      -1.045  13.121  18.984  0.00  0.00    +0.000 NA
ATOM      7  C   UNL     1       0.246  12.796  19.076  0.00  0.00    +0.000 A 
ATOM      8  N   UNL     1       0.709  11.551  19.189  0.00  0.00    +0.000 NA
ATOM      9  H   UNL     1      -0.612   8.686  19.404  0.00  0.00    +0.000 HD
ATOM     10  H   UNL     1      -3.298  13.438  18.704  0.00  0.00    +0.000 HD
ENDROOT
BRANCH   7  11
ATOM     11  C   UNL     1       1.259  13.882  19.053  0.00  0.00    +0.000 A 
ATOM     12  C   UNL     1       2.540  13.690  19.576  0.00  0.00    +0.000 A 
ATOM     13  C   UNL     1       3.452  14.746  19.571  0.00  0.00    +0.000 A 
ATOM     14  C   UNL     1       3.065  15.973  19.060  0.00  0.00    +0.000 A 
ATOM     15  C   UNL     1       1.772  16.124  18.554  0.00  0.00    +0.000 A 
ATOM     16  N   UNL     1       0.883  15.086  18.538  0.00  0.00    +0.000 NA
BRANCH  15  17
ATOM     17  C   UNL     1       1.324  17.479  18.020  0.00  0.00    +0.000 C 
ATOM     18  F   UNL     1       0.004  17.504  17.657  0.00  0.00    +0.000 F 
ATOM     19  F   UNL     1       1.466  18.489  18.926  0.00  0.00    +0.000 F 
ATOM     20  F   UNL     1       2.008  17.868  16.907  0.00  0.00    +0.000 F 
ENDBRANCH  15  17
ENDBRANCH   7  11
BRANCH   1  22
ATOM     21  C   UNL     1       0.887   8.995  21.631  0.00  0.00    +0.000 C 
ATOM     22  C   UNL     1       1.337   8.968  20.164  0.00  0.00    +0.000 C 
BRANCH  22  23
ATOM     23  C   UNL     1       1.980   7.657  19.714  0.00  0.00    +0.000 A 
ATOM     24  C   UNL     1       1.858   6.536  20.557  0.00  0.00    +0.000 A 
ATOM     25  C   UNL     1       2.323   5.278  20.166  0.00  0.00    +0.000 A 
ATOM     26  C   UNL     1       2.925   5.115  18.923  0.00  0.00    +0.000 A 
ATOM     27  C   UNL     1       3.083   6.216  18.083  0.00  0.00    +0.000 A 
ATOM     28  C   UNL     1       2.622   7.478  18.477  0.00  0.00    +0.000 A 
ENDBRANCH  22  23
ENDBRANCH   1  22
BRANCH   5  29
ATOM     29  C   UNL     1      -4.227  11.570  18.440  0.00  0.00    +0.000 C 
ATOM     30  C   UNL     1      -4.117  11.508  16.914  0.00  0.00    +0.000 C 
BRANCH  29  31
ATOM     31  C   UNL     1      -5.631  12.005  18.834  0.00  0.00    +0.000 C 
ATOM     32  C   UNL     1      -6.818  11.255  18.281  0.00  0.00    +0.000 C 
ATOM     33  C   UNL     1      -6.565  11.259  19.762  0.00  0.00    +0.000 C 
ENDBRANCH  29  31
ENDBRANCH   5  29
TORSDOF 6
ENDMDL
MODEL 6
REMARK VINA RESULT:      -7.7      1.865      2.450
REMARK  Name = 
REMARK  8 active torsions:
REMARK  status: ('A' for Active; 'I' for Inactive)
REMARK    1  A    between atoms: C_1  and  C_2
REMARK    2  A    between atoms: C_2  and  N_3
REMARK    3  A    between atoms: C_2  and  C_26
REMARK    4  A    between atoms: N_7  and  C_8
REMARK    5  A    between atoms: C_8  and  C_9
REMARK    6  A    between atoms: C_8  and  C_10
REMARK    7  A    between atoms: C_14  and  C_15
REMARK    8  A    between atoms: C_19  and  C_20
REMARK                            x       y       z     vdW  Elec       q    Type
REMARK                         _______ _______ _______ _____ _____    ______ ____
ROOT
ATOM      1  N   UNL     1       0.263   9.248  18.970  0.00  0.00    +0.000 N 
ATOM      2  C   UNL     1      -0.190  10.561  18.965  0.00  0.00    +0.000 A 
ATOM      3  N   UNL     1      -1.503  10.755  18.873  0.00  0.00    +0.000 NA
ATOM      4  C   UNL     1      -1.920  12.018  18.852  0.00  0.00    +0.000 A 
ATOM      5  N   UNL     1      -3.263  12.343  18.843  0.00  0.00    +0.000 N 
ATOM      6  N   UNL     1      -1.104  13.062  18.883  0.00  0.00    +0.000 NA
ATOM      7  C   UNL     1       0.196  12.774  18.957  0.00  0.00    +0.000 A 
ATOM      8  N   UNL     1       0.699  11.539  18.998  0.00  0.00    +0.000 NA
ATOM      9  H   UNL     1      -0.531   8.626  19.046  0.00  0.00    +0.000 HD
ATOM     10  H   UNL     1      -3.367  13.324  18.620  0.00  0.00    +0.000 HD
ENDROOT
BRANCH   7  11
ATOM     11  C   UNL     1       1.175  13.891  18.998  0.00  0.00    +0.000 A 
ATOM     12  C   UNL     1       2.451  13.717  19.537  0.00  0.00    +0.000 A 
ATOM     13  C   UNL     1       3.329  14.800  19.593  0.00  0.00    +0.000 A 
ATOM     14  C   UNL     1       2.913  16.035  19.124  0.00  0.00    +0.000 A 
ATOM     15  C   UNL     1       1.625  16.166  18.599  0.00  0.00    +0.000 A 
ATOM     16  N   UNL     1       0.770  15.102  18.524  0.00  0.00    +0.000 NA
BRANCH  15  17
ATOM     17  C   UNL     1       1.143  17.526  18.111  0.00  0.00    +0.000 C 
ATOM     18  F   UNL     1      -0.183  17.539  17.775  0.00  0.00    +0.000 F 
ATOM     19  F   UNL     1       1.287  18.514  19.041  0.00  0.00    +0.000 F 
ATOM     20  F   UNL     1       1.799  17.957  16.996  0.00  0.00    +0.000 F 
ENDBRANCH  15  17
ENDBRANCH   7  11
BRANCH   1  22
ATOM     21  C   UNL     1       0.927   8.641  21.252  0.00  0.00    +0.000 C 
ATOM     22  C   UNL     1       1.409   8.925  19.823  0.00  0.00    +0.000 C 
BRANCH  22  23
ATOM     23  C   UNL     1       2.217   7.798  19.181  0.00  0.00    +0.000 A 
ATOM     24  C   UNL     1       2.849   8.054  17.950  0.00  0.00    +0.000 A 
ATOM     25  C   UNL     1       3.693   7.113  17.355  0.00  0.00    +0.000 A 
ATOM     26  C   UNL     1       3.918   5.891  17.979  0.00  0.00    +0.000 A 
ATOM     27  C   UNL     1       3.281   5.603  19.184  0.00  0.00    +0.000 A 
ATOM     28  C   UNL     1       2.431   6.544  19.777  0.00  0.00    +0.000 A 
ENDBRANCH  22  23
ENDBRANCH   1  22
BRANCH   5  29
ATOM     29  C   UNL     1      -4.236  11.445  18.248  0.00  0.00    +0.000 C 
ATOM     30  C   UNL     1      -4.089  11.433  16.724  0.00  0.00    +0.000 C 
BRANCH  29  31
ATOM     31  C   UNL     1      -5.656  11.846  18.620  0.00  0.00    +0.000 C 
ATOM     32  C   UNL     1      -6.770  10.839  18.470  0.00  0.00    +0.000 C 
ATOM     33  C   UNL     1      -6.425  11.369  19.833  0.00  0.00    +0.000 C 
ENDBRANCH  29  31
ENDBRANCH   5  29
TORSDOF 6
ENDMDL
MODEL 7
REMARK VINA RESULT:      -7.7      7.332     10.348
REMARK  Name = 
REMARK  8 active torsions:
REMARK  status: ('A' for Active; 'I' for Inactive)
REMARK    1  A    between atoms: C_1  and  C_2
REMARK    2  A    between atoms: C_2  and  N_3
REMARK    3  A    between atoms: C_2  and  C_26
REMARK    4  A    between atoms: N_7  and  C_8
REMARK    5  A    between atoms: C_8  and  C_9
REMARK    6  A    between atoms: C_8  and  C_10
REMARK    7  A    between atoms: C_14  and  C_15
REMARK    8  A    between atoms: C_19  and  C_20
REMARK                            x       y       z     vdW  Elec       q    Type
REMARK                         _______ _______ _______ _____ _____    ______ ____
ROOT
ATOM      1  N   UNL     1       7.481   7.660  16.934  0.00  0.00    +0.000 N 
ATOM      2  C   UNL     1       6.655   6.558  16.756  0.00  0.00    +0.000 A 
ATOM      3  N   UNL     1       6.948   5.728  15.758  0.00  0.00    +0.000 NA
ATOM      4  C   UNL     1       6.136   4.687  15.591  0.00  0.00    +0.000 A 
ATOM      5  N   UNL     1       6.386   3.713  14.642  0.00  0.00    +0.000 N 
ATOM      6  N   UNL     1       5.061   4.466  16.333  0.00  0.00    +0.000 NA
ATOM      7  C   UNL     1       4.835   5.358  17.299  0.00  0.00    +0.000 A 
ATOM      8  N   UNL     1       5.603   6.420  17.545  0.00  0.00    +0.000 NA
ATOM      9  H   UNL     1       8.288   7.567  16.331  0.00  0.00    +0.000 HD
ATOM     10  H   UNL     1       5.563   3.136  14.534  0.00  0.00    +0.000 HD
ENDROOT
BRANCH   7  11
ATOM     11  C   UNL     1       3.649   5.178  18.174  0.00  0.00    +0.000 A 
ATOM     12  C   UNL     1       3.104   6.249  18.885  0.00  0.00    +0.000 A 
ATOM     13  C   UNL     1       2.013   6.033  19.728  0.00  0.00    +0.000 A 
ATOM     14  C   UNL     1       1.498   4.755  19.856  0.00  0.00    +0.000 A 
ATOM     15  C   UNL     1       2.078   3.710  19.132  0.00  0.00    +0.000 A 
ATOM     16  N   UNL     1       3.133   3.922  18.290  0.00  0.00    +0.000 NA
BRANCH  15  17
ATOM     17  C   UNL     1       1.542   2.293  19.290  0.00  0.00    +0.000 C 
ATOM     18  F   UNL     1       2.395   1.338  18.807  0.00  0.00    +0.000 F 
ATOM     19  F   UNL     1       1.314   1.945  20.590  0.00  0.00    +0.000 F 
ATOM     20  F   UNL     1       0.367   2.089  18.631  0.00  0.00    +0.000 F 
ENDBRANCH  15  17
ENDBRANCH   7  11
BRANCH   1  22
ATOM     21  C   UNL     1       8.534   6.993  19.047  0.00  0.00    +0.000 C 
ATOM     22  C   UNL     1       7.759   8.091  18.306  0.00  0.00    +0.000 C 
BRANCH  22  23
ATOM     23  C   UNL     1       8.445   9.455  18.279  0.00  0.00    +0.000 A 
ATOM     24  C   UNL     1       7.909  10.450  17.439  0.00  0.00    +0.000 A 
ATOM     25  C   UNL     1       8.413  11.753  17.441  0.00  0.00    +0.000 A 
ATOM     26  C   UNL     1       9.468  12.088  18.282  0.00  0.00    +0.000 A 
ATOM     27  C   UNL     1      10.034  11.114  19.102  0.00  0.00    +0.000 A 
ATOM     28  C   UNL     1       9.533   9.807  19.096  0.00  0.00    +0.000 A 
ENDBRANCH  22  23
ENDBRANCH   1  22
BRANCH   5  29
ATOM     29  C   UNL     1       7.105   4.036  13.423  0.00  0.00    +0.000 C 
ATOM     30  C   UNL     1       7.597   5.485  13.462  0.00  0.00    +0.000 C 
BRANCH  29  31
ATOM     31  C   UNL     1       6.231   3.825  12.196  0.00  0.00    +0.000 C 
ATOM     32  C   UNL     1       5.908   2.418  11.753  0.00  0.00    +0.000 C 
ATOM     33  C   UNL     1       4.800   3.332  12.197  0.00  0.00    +0.000 C 
ENDBRANCH  29  31
ENDBRANCH   5  29
TORSDOF 6
ENDMDL
MODEL 8
REMARK VINA RESULT:      -7.7      4.247      7.322
REMARK  Name = 
REMARK  8 active torsions:
REMARK  status: ('A' for Active; 'I' for Inactive)
REMARK    1  A    between atoms: C_1  and  C_2
REMARK    2  A    between atoms: C_2  and  N_3
REMARK    3  A    between atoms: C_2  and  C_26
REMARK    4  A    between atoms: N_7  and  C_8
REMARK    5  A    between atoms: C_8  and  C_9
REMARK    6  A    between atoms: C_8  and  C_10
REMARK    7  A    between atoms: C_14  and  C_15
REMARK    8  A    between atoms: C_19  and  C_20
REMARK                            x       y       z     vdW  Elec       q    Type
REMARK                         _______ _______ _______ _____ _____    ______ ____
ROOT
ATOM      1  N   UNL     1       4.782   4.716  16.725  0.00  0.00    +0.000 N 
ATOM      2  C   UNL     1       4.048   5.193  17.804  0.00  0.00    +0.000 A 
ATOM      3  N   UNL     1       3.867   4.369  18.833  0.00  0.00    +0.000 NA
ATOM      4  C   UNL     1       3.146   4.835  19.850  0.00  0.00    +0.000 A 
ATOM      5  N   UNL     1       2.962   4.104  21.008  0.00  0.00    +0.000 N 
ATOM      6  N   UNL     1       2.589   6.037  19.866  0.00  0.00    +0.000 NA
ATOM      7  C   UNL     1       2.808   6.787  18.785  0.00  0.00    +0.000 A 
ATOM      8  N   UNL     1       3.528   6.406  17.730  0.00  0.00    +0.000 NA
ATOM      9  H   UNL     1       5.194   3.827  16.976  0.00  0.00    +0.000 HD
ATOM     10  H   UNL     1       2.230   4.533  21.559  0.00  0.00    +0.000 HD
ENDROOT
BRANCH   7  11
ATOM     11  C   UNL     1       2.216   8.149  18.729  0.00  0.00    +0.000 A 
ATOM     12  C   UNL     1       2.553   9.044  17.711  0.00  0.00    +0.000 A 
ATOM     13  C   UNL     1       2.006  10.327  17.713  0.00  0.00    +0.000 A 
ATOM     14  C   UNL     1       1.149  10.697  18.735  0.00  0.00    +0.000 A 
ATOM     15  C   UNL     1       0.845   9.773  19.738  0.00  0.00    +0.000 A 
ATOM     16  N   UNL     1       1.362   8.509  19.727  0.00  0.00    +0.000 NA
BRANCH  15  17
ATOM     17  C   UNL     1      -0.071  10.179  20.886  0.00  0.00    +0.000 C 
ATOM     18  F   UNL     1      -0.539   9.112  21.604  0.00  0.00    +0.000 F 
ATOM     19  F   UNL     1       0.538  10.987  21.801  0.00  0.00    +0.000 F 
ATOM     20  F   UNL     1      -1.185  10.847  20.471  0.00  0.00    +0.000 F 
ENDBRANCH  15  17
ENDBRANCH   7  11
BRANCH   1  22
ATOM     21  C   UNL     1       6.854   6.011  16.940  0.00  0.00    +0.000 C 
ATOM     22  C   UNL     1       5.667   5.655  16.034  0.00  0.00    +0.000 C 
BRANCH  22  23
ATOM     23  C   UNL     1       6.050   5.082  14.670  0.00  0.00    +0.000 A 
ATOM     24  C   UNL     1       7.271   5.490  14.099  0.00  0.00    +0.000 A 
ATOM     25  C   UNL     1       7.741   4.929  12.910  0.00  0.00    +0.000 A 
ATOM     26  C   UNL     1       6.996   3.949  12.262  0.00  0.00    +0.000 A 
ATOM     27  C   UNL     1       5.771   3.549  12.792  0.00  0.00    +0.000 A 
ATOM     28  C   UNL     1       5.297   4.116  13.982  0.00  0.00    +0.000 A 
ENDBRANCH  22  23
ENDBRANCH   1  22
BRANCH   5  29
ATOM     29  C   UNL     1       2.970   2.653  20.975  0.00  0.00    +0.000 C 
ATOM     30  C   UNL     1       4.166   2.144  20.166  0.00  0.00    +0.000 C 
BRANCH  29  31
ATOM     31  C   UNL     1       1.681   2.108  20.378  0.00  0.00    +0.000 C 
ATOM     32  C   UNL     1       0.596   3.072  19.961  0.00  0.00    +0.000 C 
ATOM     33  C   UNL     1       1.261   2.209  18.927  0.00  0.00    +0.000 C 
ENDBRANCH  29  31
ENDBRANCH   5  29
TORSDOF 6
ENDMDL
MODEL 9
REMARK VINA RESULT:      -7.7      1.393      6.706
REMARK  Name = 
REMARK  8 active torsions:
REMARK  status: ('A' for Active; 'I' for Inactive)
REMARK    1  A    between atoms: C_1  and  C_2
REMARK    2  A    between atoms: C_2  and  N_3
REMARK    3  A    between atoms: C_2  and  C_26
REMARK    4  A    between atoms: N_7  and  C_8
REMARK    5  A    between atoms: C_8  and  C_9
REMARK    6  A    between atoms: C_8  and  C_10
REMARK    7  A    between atoms: C_14  and  C_15
REMARK    8  A    between atoms: C_19  and  C_20
REMARK                            x       y       z     vdW  Elec       q    Type
REMARK                         _______ _______ _______ _____ _____    ______ ____
ROOT
ATOM      1  N   UNL     1      -2.327  10.181  17.667  0.00  0.00    +0.000 N 
ATOM      2  C   UNL     1      -1.046  10.598  18.004  0.00  0.00    +0.000 A 
ATOM      3  N   UNL     1      -0.101   9.665  18.088  0.00  0.00    +0.000 NA
ATOM      4  C   UNL     1       1.116  10.079  18.429  0.00  0.00    +0.000 A 
ATOM      5  N   UNL     1       2.196   9.216  18.467  0.00  0.00    +0.000 N 
ATOM      6  N   UNL     1       1.413  11.339  18.714  0.00  0.00    +0.000 NA
ATOM      7  C   UNL     1       0.400  12.202  18.620  0.00  0.00    +0.000 A 
ATOM      8  N   UNL     1      -0.845  11.877  18.272  0.00  0.00    +0.000 NA
ATOM      9  H   UNL     1      -2.295   9.207  17.393  0.00  0.00    +0.000 HD
ATOM     10  H   UNL     1       2.967   9.669  18.940  0.00  0.00    +0.000 HD
ENDROOT
BRANCH   7  11
ATOM     11  C   UNL     1       0.652  13.635  18.922  0.00  0.00    +0.000 A 
ATOM     12  C   UNL     1      -0.177  14.350  19.790  0.00  0.00    +0.000 A 
ATOM     13  C   UNL     1       0.070  15.703  20.019  0.00  0.00    +0.000 A 
ATOM     14  C   UNL     1       1.125  16.320  19.369  0.00  0.00    +0.000 A 
ATOM     15  C   UNL     1       1.925  15.569  18.504  0.00  0.00    +0.000 A 
ATOM     16  N   UNL     1       1.699  14.238  18.293  0.00  0.00    +0.000 NA
BRANCH  15  17
ATOM     17  C   UNL     1       3.069  16.244  17.757  0.00  0.00    +0.000 C 
ATOM     18  F   UNL     1       3.775  15.382  16.963  0.00  0.00    +0.000 F 
ATOM     19  F   UNL     1       2.654  17.241  16.923  0.00  0.00    +0.000 F 
ATOM     20  F   UNL     1       3.993  16.805  18.588  0.00  0.00    +0.000 F 
ENDBRANCH  15  17
ENDBRANCH   7  11
BRANCH   1  22
ATOM     21  C   UNL     1      -3.115  10.524  15.369  0.00  0.00    +0.000 C 
ATOM     22  C   UNL     1      -3.127  11.057  16.808  0.00  0.00    +0.000 C 
BRANCH  22  23
ATOM     23  C   UNL     1      -4.517  11.232  17.417  0.00  0.00    +0.000 A 
ATOM     24  C   UNL     1      -5.289  12.333  16.997  0.00  0.00    +0.000 A 
ATOM     25  C   UNL     1      -6.609  12.500  17.424  0.00  0.00    +0.000 A 
ATOM     26  C   UNL     1      -7.183  11.571  18.285  0.00  0.00    +0.000 A 
ATOM     27  C   UNL     1      -6.430  10.489  18.737  0.00  0.00    +0.000 A 
ATOM     28  C   UNL     1      -5.106  10.325  18.313  0.00  0.00    +0.000 A 
ENDBRANCH  22  23
ENDBRANCH   1  22
BRANCH   5  29
ATOM     29  C   UNL     1       2.005   7.807  18.758  0.00  0.00    +0.000 C 
ATOM     30  C   UNL     1       1.908   7.583  20.269  0.00  0.00    +0.000 C 
BRANCH  29  31
ATOM     31  C   UNL     1       3.140   6.968  18.189  0.00  0.00    +0.000 C 
ATOM     32  C   UNL     1       3.697   5.828  19.008  0.00  0.00    +0.000 C 
ATOM     33  C   UNL     1       3.029   5.543  17.692  0.00  0.00    +0.000 C 
ENDBRANCH  29  31
ENDBRANCH   5  29
TORSDOF 6
ENDMDL
