MODEL 1
REMARK VINA RESULT:      -8.7      0.000      0.000
REMARK  Name = 
REMARK  4 active torsions:
REMARK  status: ('A' for Active; 'I' for Inactive)
REMARK    1  A    between atoms: C_1  and  O_2
REMARK    2  A    between atoms: O_2  and  C_3
REMARK    3  A    between atoms: C_13  and  N_14
REMARK    4  A    between atoms: C_15  and  C_17
REMARK                            x       y       z     vdW  Elec       q    Type
REMARK                         _______ _______ _______ _____ _____    ______ ____
ROOT
ATOM      1  C   UNL     1       5.643   3.400  12.287  0.00  0.00    +0.000 A 
ATOM      2  C   UNL     1       6.888   3.941  11.960  0.00  0.00    +0.000 A 
ATOM      3  C   UNL     1       7.632   4.679  12.885  0.00  0.00    +0.000 A 
ATOM      4  C   UNL     1       7.084   4.852  14.162  0.00  0.00    +0.000 A 
ATOM      5  N   UNL     1       7.595   5.505  15.262  0.00  0.00    +0.000 N 
ATOM      6  C   UNL     1       6.731   5.384  16.314  0.00  0.00    +0.000 A 
ATOM      7  C   UNL     1       5.631   4.665  15.891  0.00  0.00    +0.000 A 
ATOM      8  C   UNL     1       5.844   4.324  14.526  0.00  0.00    +0.000 A 
ATOM      9  C   UNL     1       5.111   3.591  13.569  0.00  0.00    +0.000 A 
ATOM     10  C   UNL     1       4.507   4.333  16.814  0.00  0.00    +0.000 C 
ATOM     11  C   UNL     1       4.998   4.372  18.285  0.00  0.00    +0.000 C 
ATOM     12  C   UNL     1       5.748   5.695  18.579  0.00  0.00    +0.000 C 
ATOM     13  C   UNL     1       6.997   5.871  17.694  0.00  0.00    +0.000 C 
ATOM     14  H   UNL     1       8.495   5.964  15.288  0.00  0.00    +0.000 HD
ENDROOT
BRANCH  11  15
ATOM     15  N   UNL     1       3.895   4.166  19.221  0.00  0.00    +0.000 N 
ATOM     16  C   UNL     1       3.835   3.045  20.049  0.00  0.00    +0.000 C 
ATOM     17  O   UNL     1       4.683   2.154  19.993  0.00  0.00    +0.000 OA
ATOM     18  H   UNL     1       3.245   4.928  19.402  0.00  0.00    +0.000 HD
BRANCH  16  19
ATOM     19  C   UNL     1       2.627   3.006  21.013  0.00  0.00    +0.000 C 
ATOM     20  F   UNL     1       2.347   4.243  21.524  0.00  0.00    +0.000 F 
ATOM     21  F   UNL     1       1.486   2.579  20.406  0.00  0.00    +0.000 F 
ATOM     22  F   UNL     1       2.835   2.192  22.083  0.00  0.00    +0.000 F 
ENDBRANCH  16  19
ENDBRANCH  11  15
BRANCH   1  24
ATOM     23  C   UNL     1       3.759   3.155  10.864  0.00  0.00    +0.000 C 
ATOM     24  O   UNL     1       5.042   2.699  11.274  0.00  0.00    +0.000 OA
ENDBRANCH   1  24
TORSDOF 3
ENDMDL
MODEL 2
REMARK VINA RESULT:      -8.3      0.927      1.238
REMARK  Name = 
REMARK  4 active torsions:
REMARK  status: ('A' for Active; 'I' for Inactive)
REMARK    1  A    between atoms: C_1  and  O_2
REMARK    2  A    between atoms: O_2  and  C_3
REMARK    3  A    between atoms: C_13  and  N_14
REMARK    4  A    between atoms: C_15  and  C_17
REMARK                            x       y       z     vdW  Elec       q    Type
REMARK                         _______ _______ _______ _____ _____    ______ ____
ROOT
ATOM      1  C   UNL     1       5.729   3.363  12.462  0.00  0.00    +0.000 A 
ATOM      2  C   UNL     1       6.986   3.929  12.248  0.00  0.00    +0.000 A 
ATOM      3  C   UNL     1       7.604   4.729  13.214  0.00  0.00    +0.000 A 
ATOM      4  C   UNL     1       6.914   4.939  14.414  0.00  0.00    +0.000 A 
ATOM      5  N   UNL     1       7.282   5.655  15.532  0.00  0.00    +0.000 N 
ATOM      6  C   UNL     1       6.310   5.552  16.488  0.00  0.00    +0.000 A 
ATOM      7  C   UNL     1       5.284   4.781  15.981  0.00  0.00    +0.000 A 
ATOM      8  C   UNL     1       5.656   4.388  14.665  0.00  0.00    +0.000 A 
ATOM      9  C   UNL     1       5.053   3.591  13.669  0.00  0.00    +0.000 A 
ATOM     10  C   UNL     1       4.074   4.453  16.791  0.00  0.00    +0.000 C 
ATOM     11  C   UNL     1       4.398   4.571  18.303  0.00  0.00    +0.000 C 
ATOM     12  C   UNL     1       5.075   5.929  18.615  0.00  0.00    +0.000 C 
ATOM     13  C   UNL     1       6.409   6.107  17.864  0.00  0.00    +0.000 C 
ATOM     14  H   UNL     1       8.161   6.144  15.635  0.00  0.00    +0.000 HD
ENDROOT
BRANCH  11  15
ATOM     15  N   UNL     1       3.205   4.370  19.122  0.00  0.00    +0.000 N 
ATOM     16  C   UNL     1       2.816   3.102  19.553  0.00  0.00    +0.000 C 
ATOM     17  O   UNL     1       3.434   2.089  19.223  0.00  0.00    +0.000 OA
ATOM     18  H   UNL     1       2.739   5.177  19.531  0.00  0.00    +0.000 HD
BRANCH  16  19
ATOM     19  C   UNL     1       1.558   3.072  20.451  0.00  0.00    +0.000 C 
ATOM     20  F   UNL     1       0.425   2.822  19.728  0.00  0.00    +0.000 F 
ATOM     21  F   UNL     1       1.619   2.105  21.407  0.00  0.00    +0.000 F 
ATOM     22  F   UNL     1       1.344   4.251  21.096  0.00  0.00    +0.000 F 
ENDBRANCH  16  19
ENDBRANCH  11  15
BRANCH   1  24
ATOM     23  C   UNL     1       5.944   1.375  11.183  0.00  0.00    +0.000 C 
ATOM     24  O   UNL     1       5.262   2.599  11.424  0.00  0.00    +0.000 OA
ENDBRANCH   1  24
TORSDOF 3
ENDMDL
MODEL 3
REMARK VINA RESULT:      -8.3      1.087      1.399
REMARK  Name = 
REMARK  4 active torsions:
REMARK  status: ('A' for Active; 'I' for Inactive)
REMARK    1  A    between atoms: C_1  and  O_2
REMARK    2  A    between atoms: O_2  and  C_3
REMARK    3  A    between atoms: C_13  and  N_14
REMARK    4  A    between atoms: C_15  and  C_17
REMARK                            x       y       z     vdW  Elec       q    Type
REMARK                         _______ _______ _______ _____ _____    ______ ____
ROOT
ATOM      1  C   UNL     1       5.796   3.468  12.586  0.00  0.00    +0.000 A 
ATOM      2  C   UNL     1       6.956   4.179  12.276  0.00  0.00    +0.000 A 
ATOM      3  C   UNL     1       7.621   4.950  13.234  0.00  0.00    +0.000 A 
ATOM      4  C   UNL     1       7.081   4.979  14.526  0.00  0.00    +0.000 A 
ATOM      5  N   UNL     1       7.528   5.627  15.656  0.00  0.00    +0.000 N 
ATOM      6  C   UNL     1       6.708   5.338  16.710  0.00  0.00    +0.000 A 
ATOM      7  C   UNL     1       5.698   4.512  16.260  0.00  0.00    +0.000 A 
ATOM      8  C   UNL     1       5.925   4.279  14.874  0.00  0.00    +0.000 A 
ATOM      9  C   UNL     1       5.270   3.515  13.884  0.00  0.00    +0.000 A 
ATOM     10  C   UNL     1       4.643   3.988  17.176  0.00  0.00    +0.000 C 
ATOM     11  C   UNL     1       5.155   4.004  18.639  0.00  0.00    +0.000 C 
ATOM     12  C   UNL     1       5.740   5.393  19.002  0.00  0.00    +0.000 C 
ATOM     13  C   UNL     1       6.939   5.775  18.113  0.00  0.00    +0.000 C 
ATOM     14  H   UNL     1       8.365   6.194  15.698  0.00  0.00    +0.000 HD
ENDROOT
BRANCH  11  15
ATOM     15  N   UNL     1       4.106   3.608  19.576  0.00  0.00    +0.000 N 
ATOM     16  C   UNL     1       2.892   4.291  19.650  0.00  0.00    +0.000 C 
ATOM     17  O   UNL     1       2.669   5.290  18.964  0.00  0.00    +0.000 OA
ATOM     18  H   UNL     1       4.183   2.719  20.064  0.00  0.00    +0.000 HD
BRANCH  16  19
ATOM     19  C   UNL     1       1.874   3.712  20.659  0.00  0.00    +0.000 C 
ATOM     20  F   UNL     1       1.634   2.386  20.432  0.00  0.00    +0.000 F 
ATOM     21  F   UNL     1       2.304   3.805  21.948  0.00  0.00    +0.000 F 
ATOM     22  F   UNL     1       0.665   4.333  20.601  0.00  0.00    +0.000 F 
ENDBRANCH  16  19
ENDBRANCH  11  15
BRANCH   1  24
ATOM     23  C   UNL     1       3.968   3.138  11.108  0.00  0.00    +0.000 C 
ATOM     24  O   UNL     1       5.267   2.755  11.542  0.00  0.00    +0.000 OA
ENDBRANCH   1  24
TORSDOF 3
ENDMDL
MODEL 4
REMARK VINA RESULT:      -7.4      5.563      8.014
REMARK  Name = 
REMARK  4 active torsions:
REMARK  status: ('A' for Active; 'I' for Inactive)
REMARK    1  A    between atoms: C_1  and  O_2
REMARK    2  A    between atoms: O_2  and  C_3
REMARK    3  A    between atoms: C_13  and  N_14
REMARK    4  A    between atoms: C_15  and  C_17
REMARK                            x       y       z     vdW  Elec       q    Type
REMARK                         _______ _______ _______ _____ _____    ______ ____
ROOT
ATOM      1  C   UNL     1       1.088  10.487  19.123  0.00  0.00    +0.000 A 
ATOM      2  C   UNL     1       0.744  10.388  20.472  0.00  0.00    +0.000 A 
ATOM      3  C   UNL     1       0.952   9.212  21.197  0.00  0.00    +0.000 A 
ATOM      4  C   UNL     1       1.528   8.130  20.520  0.00  0.00    +0.000 A 
ATOM      5  N   UNL     1       1.861   6.875  20.979  0.00  0.00    +0.000 N 
ATOM      6  C   UNL     1       2.442   6.154  19.974  0.00  0.00    +0.000 A 
ATOM      7  C   UNL     1       2.467   6.936  18.837  0.00  0.00    +0.000 A 
ATOM      8  C   UNL     1       1.888   8.192  19.172  0.00  0.00    +0.000 A 
ATOM      9  C   UNL     1       1.658   9.390  18.463  0.00  0.00    +0.000 A 
ATOM     10  C   UNL     1       3.066   6.448  17.561  0.00  0.00    +0.000 C 
ATOM     11  C   UNL     1       4.085   5.316  17.850  0.00  0.00    +0.000 C 
ATOM     12  C   UNL     1       3.458   4.232  18.763  0.00  0.00    +0.000 C 
ATOM     13  C   UNL     1       3.025   4.794  20.131  0.00  0.00    +0.000 C 
ATOM     14  H   UNL     1       1.730   6.561  21.931  0.00  0.00    +0.000 HD
ENDROOT
BRANCH  11  15
ATOM     15  N   UNL     1       4.604   4.736  16.614  0.00  0.00    +0.000 N 
ATOM     16  C   UNL     1       5.610   5.360  15.876  0.00  0.00    +0.000 C 
ATOM     17  O   UNL     1       6.072   6.453  16.208  0.00  0.00    +0.000 OA
ATOM     18  H   UNL     1       4.357   3.780  16.369  0.00  0.00    +0.000 HD
BRANCH  16  19
ATOM     19  C   UNL     1       6.077   4.589  14.620  0.00  0.00    +0.000 C 
ATOM     20  F   UNL     1       5.058   4.412  13.726  0.00  0.00    +0.000 F 
ATOM     21  F   UNL     1       7.066   5.237  13.945  0.00  0.00    +0.000 F 
ATOM     22  F   UNL     1       6.546   3.345  14.911  0.00  0.00    +0.000 F 
ENDBRANCH  16  19
ENDBRANCH  11  15
BRANCH   1  24
ATOM     23  C   UNL     1       1.901  12.639  18.538  0.00  0.00    +0.000 C 
ATOM     24  O   UNL     1       0.827  11.707  18.555  0.00  0.00    +0.000 OA
ENDBRANCH   1  24
TORSDOF 3
ENDMDL
MODEL 5
REMARK VINA RESULT:      -7.4      4.903      7.088
REMARK  Name = 
REMARK  4 active torsions:
REMARK  status: ('A' for Active; 'I' for Inactive)
REMARK    1  A    between atoms: C_1  and  O_2
REMARK    2  A    between atoms: O_2  and  C_3
REMARK    3  A    between atoms: C_13  and  N_14
REMARK    4  A    between atoms: C_15  and  C_17
REMARK                            x       y       z     vdW  Elec       q    Type
REMARK                         _______ _______ _______ _____ _____    ______ ____
ROOT
ATOM      1  C   UNL     1       2.213   3.423  19.679  0.00  0.00    +0.000 A 
ATOM      2  C   UNL     1       2.271   2.155  19.097  0.00  0.00    +0.000 A 
ATOM      3  C   UNL     1       3.152   1.869  18.050  0.00  0.00    +0.000 A 
ATOM      4  C   UNL     1       3.985   2.904  17.607  0.00  0.00    +0.000 A 
ATOM      5  N   UNL     1       4.948   2.904  16.623  0.00  0.00    +0.000 N 
ATOM      6  C   UNL     1       5.546   4.131  16.561  0.00  0.00    +0.000 A 
ATOM      7  C   UNL     1       4.950   4.952  17.497  0.00  0.00    +0.000 A 
ATOM      8  C   UNL     1       3.957   4.183  18.166  0.00  0.00    +0.000 A 
ATOM      9  C   UNL     1       3.051   4.445  19.216  0.00  0.00    +0.000 A 
ATOM     10  C   UNL     1       5.394   6.361  17.704  0.00  0.00    +0.000 C 
ATOM     11  C   UNL     1       6.854   6.536  17.208  0.00  0.00    +0.000 C 
ATOM     12  C   UNL     1       7.017   5.977  15.772  0.00  0.00    +0.000 C 
ATOM     13  C   UNL     1       6.703   4.471  15.690  0.00  0.00    +0.000 C 
ATOM     14  H   UNL     1       5.198   2.098  16.066  0.00  0.00    +0.000 HD
ENDROOT
BRANCH  11  15
ATOM     15  N   UNL     1       7.280   7.932  17.288  0.00  0.00    +0.000 N 
ATOM     16  C   UNL     1       8.223   8.358  18.224  0.00  0.00    +0.000 C 
ATOM     17  O   UNL     1       8.701   7.588  19.057  0.00  0.00    +0.000 OA
ATOM     18  H   UNL     1       7.021   8.576  16.545  0.00  0.00    +0.000 HD
BRANCH  16  19
ATOM     19  C   UNL     1       8.598   9.856  18.141  0.00  0.00    +0.000 C 
ATOM     20  F   UNL     1       7.595  10.599  17.581  0.00  0.00    +0.000 F 
ATOM     21  F   UNL     1       8.838  10.404  19.363  0.00  0.00    +0.000 F 
ATOM     22  F   UNL     1       9.705  10.079  17.382  0.00  0.00    +0.000 F 
ENDBRANCH  16  19
ENDBRANCH  11  15
BRANCH   1  24
ATOM     23  C   UNL     1       1.470   2.663  21.802  0.00  0.00    +0.000 C 
ATOM     24  O   UNL     1       1.303   3.542  20.697  0.00  0.00    +0.000 OA
ENDBRANCH   1  24
TORSDOF 3
ENDMDL
MODEL 6
REMARK VINA RESULT:      -7.3      5.346      7.922
REMARK  Name = 
REMARK  4 active torsions:
REMARK  status: ('A' for Active; 'I' for Inactive)
REMARK    1  A    between atoms: C_1  and  O_2
REMARK    2  A    between atoms: O_2  and  C_3
REMARK    3  A    between atoms: C_13  and  N_14
REMARK    4  A    between atoms: C_15  and  C_17
REMARK                            x       y       z     vdW  Elec       q    Type
REMARK                         _______ _______ _______ _____ _____    ______ ____
ROOT
ATOM      1  C   UNL     1       1.152   9.813  19.218  0.00  0.00    +0.000 A 
ATOM      2  C   UNL     1       0.853   9.660  20.573  0.00  0.00    +0.000 A 
ATOM      3  C   UNL     1       1.138   8.474  21.257  0.00  0.00    +0.000 A 
ATOM      4  C   UNL     1       1.743   7.441  20.532  0.00  0.00    +0.000 A 
ATOM      5  N   UNL     1       2.148   6.191  20.944  0.00  0.00    +0.000 N 
ATOM      6  C   UNL     1       2.732   5.526  19.902  0.00  0.00    +0.000 A 
ATOM      7  C   UNL     1       2.686   6.340  18.789  0.00  0.00    +0.000 A 
ATOM      8  C   UNL     1       2.059   7.558  19.177  0.00  0.00    +0.000 A 
ATOM      9  C   UNL     1       1.753   8.763  18.510  0.00  0.00    +0.000 A 
ATOM     10  C   UNL     1       3.268   5.918  17.481  0.00  0.00    +0.000 C 
ATOM     11  C   UNL     1       4.348   4.828  17.708  0.00  0.00    +0.000 C 
ATOM     12  C   UNL     1       3.799   3.690  18.606  0.00  0.00    +0.000 C 
ATOM     13  C   UNL     1       3.382   4.192  20.001  0.00  0.00    +0.000 C 
ATOM     14  H   UNL     1       2.061   5.844  21.890  0.00  0.00    +0.000 HD
ENDROOT
BRANCH  11  15
ATOM     15  N   UNL     1       4.855   4.308  16.441  0.00  0.00    +0.000 N 
ATOM     16  C   UNL     1       5.533   5.122  15.533  0.00  0.00    +0.000 C 
ATOM     17  O   UNL     1       5.692   6.327  15.737  0.00  0.00    +0.000 OA
ATOM     18  H   UNL     1       4.871   3.303  16.284  0.00  0.00    +0.000 HD
BRANCH  16  19
ATOM     19  C   UNL     1       6.046   4.403  14.263  0.00  0.00    +0.000 C 
ATOM     20  F   UNL     1       6.475   3.135  14.538  0.00  0.00    +0.000 F 
ATOM     21  F   UNL     1       5.085   4.280  13.308  0.00  0.00    +0.000 F 
ATOM     22  F   UNL     1       7.098   5.043  13.686  0.00  0.00    +0.000 F 
ENDBRANCH  16  19
ENDBRANCH  11  15
BRANCH   1  24
ATOM     23  C   UNL     1       0.637  12.094  19.625  0.00  0.00    +0.000 C 
ATOM     24  O   UNL     1       0.818  11.034  18.694  0.00  0.00    +0.000 OA
ENDBRANCH   1  24
TORSDOF 3
ENDMDL
MODEL 7
REMARK VINA RESULT:      -7.2      4.020      5.706
REMARK  Name = 
REMARK  4 active torsions:
REMARK  status: ('A' for Active; 'I' for Inactive)
REMARK    1  A    between atoms: C_1  and  O_2
REMARK    2  A    between atoms: O_2  and  C_3
REMARK    3  A    between atoms: C_13  and  N_14
REMARK    4  A    between atoms: C_15  and  C_17
REMARK                            x       y       z     vdW  Elec       q    Type
REMARK                         _______ _______ _______ _____ _____    ______ ____
ROOT
ATOM      1  C   UNL     1       6.609   5.863  16.751  0.00  0.00    +0.000 A 
ATOM      2  C   UNL     1       6.450   4.707  15.985  0.00  0.00    +0.000 A 
ATOM      3  C   UNL     1       5.392   3.820  16.205  0.00  0.00    +0.000 A 
ATOM      4  C   UNL     1       4.487   4.139  17.225  0.00  0.00    +0.000 A 
ATOM      5  N   UNL     1       3.358   3.470  17.645  0.00  0.00    +0.000 N 
ATOM      6  C   UNL     1       2.753   4.171  18.650  0.00  0.00    +0.000 A 
ATOM      7  C   UNL     1       3.507   5.298  18.909  0.00  0.00    +0.000 A 
ATOM      8  C   UNL     1       4.611   5.287  18.011  0.00  0.00    +0.000 A 
ATOM      9  C   UNL     1       5.694   6.158  17.771  0.00  0.00    +0.000 A 
ATOM     10  C   UNL     1       3.102   6.296  19.941  0.00  0.00    +0.000 C 
ATOM     11  C   UNL     1       1.575   6.203  20.199  0.00  0.00    +0.000 C 
ATOM     12  C   UNL     1       1.152   4.737  20.470  0.00  0.00    +0.000 C 
ATOM     13  C   UNL     1       1.453   3.809  19.277  0.00  0.00    +0.000 C 
ATOM     14  H   UNL     1       3.014   2.612  17.235  0.00  0.00    +0.000 HD
ENDROOT
BRANCH  11  15
ATOM     15  N   UNL     1       1.163   7.086  21.288  0.00  0.00    +0.000 N 
ATOM     16  C   UNL     1       0.915   8.442  21.079  0.00  0.00    +0.000 C 
ATOM     17  O   UNL     1       1.078   8.968  19.977  0.00  0.00    +0.000 OA
ATOM     18  H   UNL     1       0.886   6.682  22.180  0.00  0.00    +0.000 HD
BRANCH  16  19
ATOM     19  C   UNL     1       0.441   9.222  22.327  0.00  0.00    +0.000 C 
ATOM     20  F   UNL     1       0.201  10.537  22.042  0.00  0.00    +0.000 F 
ATOM     21  F   UNL     1      -0.717   8.729  22.845  0.00  0.00    +0.000 F 
ATOM     22  F   UNL     1       1.359   9.213  23.332  0.00  0.00    +0.000 F 
ENDBRANCH  16  19
ENDBRANCH  11  15
BRANCH   1  24
ATOM     23  C   UNL     1       7.946   7.765  17.227  0.00  0.00    +0.000 C 
ATOM     24  O   UNL     1       7.690   6.631  16.408  0.00  0.00    +0.000 OA
ENDBRANCH   1  24
TORSDOF 3
ENDMDL
MODEL 8
REMARK VINA RESULT:      -7.1      4.458      7.380
REMARK  Name = 
REMARK  4 active torsions:
REMARK  status: ('A' for Active; 'I' for Inactive)
REMARK    1  A    between atoms: C_1  and  O_2
REMARK    2  A    between atoms: O_2  and  C_3
REMARK    3  A    between atoms: C_13  and  N_14
REMARK    4  A    between atoms: C_15  and  C_17
REMARK                            x       y       z     vdW  Elec       q    Type
REMARK                         _______ _______ _______ _____ _____    ______ ____
ROOT
ATOM      1  C   UNL     1       2.082   4.142  18.901  0.00  0.00    +0.000 A 
ATOM      2  C   UNL     1       2.207   5.411  19.470  0.00  0.00    +0.000 A 
ATOM      3  C   UNL     1       3.185   6.313  19.041  0.00  0.00    +0.000 A 
ATOM      4  C   UNL     1       4.037   5.897  18.011  0.00  0.00    +0.000 A 
ATOM      5  N   UNL     1       5.063   6.572  17.385  0.00  0.00    +0.000 N 
ATOM      6  C   UNL     1       5.598   5.790  16.400  0.00  0.00    +0.000 A 
ATOM      7  C   UNL     1       4.933   4.581  16.397  0.00  0.00    +0.000 A 
ATOM      8  C   UNL     1       3.941   4.637  17.416  0.00  0.00    +0.000 A 
ATOM      9  C   UNL     1       2.949   3.745  17.875  0.00  0.00    +0.000 A 
ATOM     10  C   UNL     1       5.261   3.505  15.416  0.00  0.00    +0.000 C 
ATOM     11  C   UNL     1       5.941   4.118  14.164  0.00  0.00    +0.000 C 
ATOM     12  C   UNL     1       7.115   5.043  14.574  0.00  0.00    +0.000 C 
ATOM     13  C   UNL     1       6.652   6.226  15.446  0.00  0.00    +0.000 C 
ATOM     14  H   UNL     1       5.340   7.520  17.602  0.00  0.00    +0.000 HD
ENDROOT
BRANCH  11  15
ATOM     15  N   UNL     1       6.381   3.080  13.235  0.00  0.00    +0.000 N 
ATOM     16  C   UNL     1       5.658   2.774  12.082  0.00  0.00    +0.000 C 
ATOM     17  O   UNL     1       4.591   3.330  11.820  0.00  0.00    +0.000 OA
ATOM     18  H   UNL     1       7.315   2.688  13.330  0.00  0.00    +0.000 HD
BRANCH  16  19
ATOM     19  C   UNL     1       6.289   1.684  11.183  0.00  0.00    +0.000 C 
ATOM     20  F   UNL     1       5.839   1.768   9.895  0.00  0.00    +0.000 F 
ATOM     21  F   UNL     1       7.645   1.780  11.118  0.00  0.00    +0.000 F 
ATOM     22  F   UNL     1       6.001   0.424  11.605  0.00  0.00    +0.000 F 
ENDBRANCH  16  19
ENDBRANCH  11  15
BRANCH   1  24
ATOM     23  C   UNL     1       1.068   3.217  20.838  0.00  0.00    +0.000 C 
ATOM     24  O   UNL     1       1.071   3.379  19.426  0.00  0.00    +0.000 OA
ENDBRANCH   1  24
TORSDOF 3
ENDMDL
MODEL 9
REMARK VINA RESULT:      -7.1      6.296      8.953
REMARK  Name = 
REMARK  4 active torsions:
REMARK  status: ('A' for Active; 'I' for Inactive)
REMARK    1  A    between atoms: C_1  and  O_2
REMARK    2  A    between atoms: O_2  and  C_3
REMARK    3  A    between atoms: C_13  and  N_14
REMARK    4  A    between atoms: C_15  and  C_17
REMARK                            x       y       z     vdW  Elec       q    Type
REMARK                         _______ _______ _______ _____ _____    ______ ____
ROOT
ATOM      1  C   UNL     1      -0.698  11.207  22.149  0.00  0.00    +0.000 A 
ATOM      2  C   UNL     1      -0.918  12.159  21.153  0.00  0.00    +0.000 A 
ATOM      3  C   UNL     1      -0.390  12.010  19.867  0.00  0.00    +0.000 A 
ATOM      4  C   UNL     1       0.368  10.861  19.611  0.00  0.00    +0.000 A 
ATOM      5  N   UNL     1       0.984  10.450  18.450  0.00  0.00    +0.000 N 
ATOM      6  C   UNL     1       1.581   9.236  18.648  0.00  0.00    +0.000 A 
ATOM      7  C   UNL     1       1.375   8.861  19.960  0.00  0.00    +0.000 A 
ATOM      8  C   UNL     1       0.608   9.886  20.581  0.00  0.00    +0.000 A 
ATOM      9  C   UNL     1       0.069  10.067  21.872  0.00  0.00    +0.000 A 
ATOM     10  C   UNL     1       1.881   7.563  20.495  0.00  0.00    +0.000 C 
ATOM     11  C   UNL     1       2.094   6.557  19.334  0.00  0.00    +0.000 C 
ATOM     12  C   UNL     1       2.935   7.196  18.200  0.00  0.00    +0.000 C 
ATOM     13  C   UNL     1       2.250   8.434  17.589  0.00  0.00    +0.000 C 
ATOM     14  H   UNL     1       0.955  10.957  17.575  0.00  0.00    +0.000 HD
ENDROOT
BRANCH  11  15
ATOM     15  N   UNL     1       2.699   5.315  19.809  0.00  0.00    +0.000 N 
ATOM     16  C   UNL     1       1.924   4.220  20.190  0.00  0.00    +0.000 C 
ATOM     17  O   UNL     1       0.693   4.267  20.189  0.00  0.00    +0.000 OA
ATOM     18  H   UNL     1       3.701   5.175  19.703  0.00  0.00    +0.000 HD
BRANCH  16  19
ATOM     19  C   UNL     1       2.723   2.968  20.622  0.00  0.00    +0.000 C 
ATOM     20  F   UNL     1       4.033   3.047  20.239  0.00  0.00    +0.000 F 
ATOM     21  F   UNL     1       2.732   2.793  21.971  0.00  0.00    +0.000 F 
ATOM     22  F   UNL     1       2.237   1.821  20.077  0.00  0.00    +0.000 F 
ENDBRANCH  16  19
ENDBRANCH  11  15
BRANCH   1  24
ATOM     23  C   UNL     1      -2.591  12.058  23.301  0.00  0.00    +0.000 C 
ATOM     24  O   UNL     1      -1.287  11.493  23.353  0.00  0.00    +0.000 OA
ENDBRANCH   1  24
TORSDOF 3
ENDMDL
