MODEL 1
REMARK VINA RESULT:      -5.2      0.000      0.000
REMARK  Name = 
REMARK  5 active torsions:
REMARK  status: ('A' for Active; 'I' for Inactive)
REMARK    1  A    between atoms: C_2  and  O_3
REMARK    2  A    between atoms: C_2  and  C_4
REMARK    3  A    between atoms: C_5  and  C_6
REMARK    4  A    between atoms: C_6  and  O_8
REMARK    5  A    between atoms: C_9  and  C_11
REMARK                            x       y       z     vdW  Elec       q    Type
REMARK                         _______ _______ _______ _____ _____    ______ ____
ROOT
ATOM      1  C   UNL     1       5.646   5.927  16.574  0.00  0.00    +0.000 C 
ATOM      2  C   UNL     1       6.029   6.004  18.029  0.00  0.00    +0.000 C 
ATOM      3  C   UNL     1       4.684   5.381  17.619  0.00  0.00    +0.000 C 
ATOM      4 BR   UNL     1       3.198   6.563  18.150  0.00  0.00    +0.000 Br
ENDROOT
BRANCH   1   6
ATOM      5  O   UNL     1       5.619   4.263  14.932  0.00  0.00    +0.000 OA
ATOM      6  C   UNL     1       6.288   5.099  15.518  0.00  0.00    +0.000 C 
BRANCH   6   7
ATOM      7  O   UNL     1       7.583   5.311  15.200  0.00  0.00    +0.000 OA
ATOM      8  H   UNL     1       8.204   5.655  15.886  0.00  0.00    +0.000 HD
ENDBRANCH   6   7
ENDBRANCH   1   6
BRANCH   2   9
ATOM      9  C   UNL     1       7.109   5.204  18.632  0.00  0.00    +0.000 C 
ATOM     10  O   UNL     1       7.848   4.511  17.952  0.00  0.00    +0.000 OA
BRANCH   9  11
ATOM     11  O   UNL     1       7.267   5.378  19.955  0.00  0.00    +0.000 OA
ATOM     12  H   UNL     1       7.412   4.570  20.484  0.00  0.00    +0.000 HD
ENDBRANCH   9  11
ENDBRANCH   2   9
BRANCH   3  13
ATOM     13  C   UNL     1       4.416   3.902  17.771  0.00  0.00    +0.000 C 
ATOM     14 BR   UNL     1       2.558   3.422  17.421  0.00  0.00    +0.000 Br
ENDBRANCH   3  13
TORSDOF 5
ENDMDL
MODEL 2
REMARK VINA RESULT:      -5.1      0.651      1.124
REMARK  Name = 
REMARK  5 active torsions:
REMARK  status: ('A' for Active; 'I' for Inactive)
REMARK    1  A    between atoms: C_2  and  O_3
REMARK    2  A    between atoms: C_2  and  C_4
REMARK    3  A    between atoms: C_5  and  C_6
REMARK    4  A    between atoms: C_6  and  O_8
REMARK    5  A    between atoms: C_9  and  C_11
REMARK                            x       y       z     vdW  Elec       q    Type
REMARK                         _______ _______ _______ _____ _____    ______ ____
ROOT
ATOM      1  C   UNL     1       5.993   5.812  16.119  0.00  0.00    +0.000 C 
ATOM      2  C   UNL     1       6.465   5.875  17.548  0.00  0.00    +0.000 C 
ATOM      3  C   UNL     1       5.070   5.313  17.222  0.00  0.00    +0.000 C 
ATOM      4 BR   UNL     1       3.674   6.564  17.833  0.00  0.00    +0.000 Br
ENDROOT
BRANCH   1   6
ATOM      5  O   UNL     1       5.919   3.946  14.713  0.00  0.00    +0.000 OA
ATOM      6  C   UNL     1       6.532   4.952  15.032  0.00  0.00    +0.000 C 
BRANCH   6   7
ATOM      7  O   UNL     1       7.664   5.316  14.393  0.00  0.00    +0.000 OA
ATOM      8  H   UNL     1       8.526   5.288  14.873  0.00  0.00    +0.000 HD
ENDBRANCH   6   7
ENDBRANCH   1   6
BRANCH   2   9
ATOM      9  C   UNL     1       7.540   5.028  18.091  0.00  0.00    +0.000 C 
ATOM     10  O   UNL     1       7.845   5.060  19.273  0.00  0.00    +0.000 OA
BRANCH   9  11
ATOM     11  O   UNL     1       8.077   4.167  17.211  0.00  0.00    +0.000 OA
ATOM     12  H   UNL     1       8.047   3.221  17.457  0.00  0.00    +0.000 HD
ENDBRANCH   9  11
ENDBRANCH   2   9
BRANCH   3  13
ATOM     13  C   UNL     1       4.744   3.849  17.398  0.00  0.00    +0.000 C 
ATOM     14 BR   UNL     1       2.828   3.483  17.367  0.00  0.00    +0.000 Br
ENDBRANCH   3  13
TORSDOF 5
ENDMDL
MODEL 3
REMARK VINA RESULT:      -5.0      2.231      3.521
REMARK  Name = 
REMARK  5 active torsions:
REMARK  status: ('A' for Active; 'I' for Inactive)
REMARK    1  A    between atoms: C_2  and  O_3
REMARK    2  A    between atoms: C_2  and  C_4
REMARK    3  A    between atoms: C_5  and  C_6
REMARK    4  A    between atoms: C_6  and  O_8
REMARK    5  A    between atoms: C_9  and  C_11
REMARK                            x       y       z     vdW  Elec       q    Type
REMARK                         _______ _______ _______ _____ _____    ______ ____
ROOT
ATOM      1  C   UNL     1       5.011   5.234  19.364  0.00  0.00    +0.000 C 
ATOM      2  C   UNL     1       3.892   4.225  19.369  0.00  0.00    +0.000 C 
ATOM      3  C   UNL     1       4.024   5.223  18.205  0.00  0.00    +0.000 C 
ATOM      4 BR   UNL     1       2.567   6.549  18.278  0.00  0.00    +0.000 Br
ENDROOT
BRANCH   1   6
ATOM      5  O   UNL     1       7.246   5.478  20.006  0.00  0.00    +0.000 OA
ATOM      6  C   UNL     1       6.466   4.962  19.221  0.00  0.00    +0.000 C 
BRANCH   6   7
ATOM      7  O   UNL     1       6.895   4.120  18.256  0.00  0.00    +0.000 OA
ATOM      8  H   UNL     1       7.618   3.478  18.454  0.00  0.00    +0.000 HD
ENDBRANCH   6   7
ENDBRANCH   1   6
BRANCH   2   9
ATOM      9  C   UNL     1       4.096   2.779  19.185  0.00  0.00    +0.000 C 
ATOM     10  O   UNL     1       3.401   2.126  18.423  0.00  0.00    +0.000 OA
BRANCH   9  11
ATOM     11  O   UNL     1       5.154   2.271  19.840  0.00  0.00    +0.000 OA
ATOM     12  H   UNL     1       5.815   1.801  19.295  0.00  0.00    +0.000 HD
ENDBRANCH   9  11
ENDBRANCH   2   9
BRANCH   3  13
ATOM     13  C   UNL     1       4.417   4.774  16.817  0.00  0.00    +0.000 C 
ATOM     14 BR   UNL     1       5.292   6.176  15.780  0.00  0.00    +0.000 Br
ENDBRANCH   3  13
TORSDOF 5
ENDMDL
MODEL 4
REMARK VINA RESULT:      -5.0      0.970      1.596
REMARK  Name = 
REMARK  5 active torsions:
REMARK  status: ('A' for Active; 'I' for Inactive)
REMARK    1  A    between atoms: C_2  and  O_3
REMARK    2  A    between atoms: C_2  and  C_4
REMARK    3  A    between atoms: C_5  and  C_6
REMARK    4  A    between atoms: C_6  and  O_8
REMARK    5  A    between atoms: C_9  and  C_11
REMARK                            x       y       z     vdW  Elec       q    Type
REMARK                         _______ _______ _______ _____ _____    ______ ____
ROOT
ATOM      1  C   UNL     1       6.099   5.810  16.117  0.00  0.00    +0.000 C 
ATOM      2  C   UNL     1       6.526   5.885  17.560  0.00  0.00    +0.000 C 
ATOM      3  C   UNL     1       5.135   5.337  17.196  0.00  0.00    +0.000 C 
ATOM      4 BR   UNL     1       3.736   6.613  17.746  0.00  0.00    +0.000 Br
ENDROOT
BRANCH   1   6
ATOM      5  O   UNL     1       7.642   5.305  14.435  0.00  0.00    +0.000 OA
ATOM      6  C   UNL     1       6.662   4.930  15.059  0.00  0.00    +0.000 C 
BRANCH   6   7
ATOM      7  O   UNL     1       6.106   3.720  14.833  0.00  0.00    +0.000 OA
ATOM      8  H   UNL     1       5.326   3.646  14.234  0.00  0.00    +0.000 HD
ENDBRANCH   6   7
ENDBRANCH   1   6
BRANCH   2   9
ATOM      9  C   UNL     1       7.572   5.032  18.148  0.00  0.00    +0.000 C 
ATOM     10  O   UNL     1       7.835   5.072  19.339  0.00  0.00    +0.000 OA
BRANCH   9  11
ATOM     11  O   UNL     1       8.130   4.157  17.295  0.00  0.00    +0.000 OA
ATOM     12  H   UNL     1       8.167   4.430  16.358  0.00  0.00    +0.000 HD
ENDBRANCH   9  11
ENDBRANCH   2   9
BRANCH   3  13
ATOM     13  C   UNL     1       4.785   3.879  17.380  0.00  0.00    +0.000 C 
ATOM     14 BR   UNL     1       4.199   3.457  19.192  0.00  0.00    +0.000 Br
ENDBRANCH   3  13
TORSDOF 5
ENDMDL
MODEL 5
REMARK VINA RESULT:      -5.0      1.237      3.339
REMARK  Name = 
REMARK  5 active torsions:
REMARK  status: ('A' for Active; 'I' for Inactive)
REMARK    1  A    between atoms: C_2  and  O_3
REMARK    2  A    between atoms: C_2  and  C_4
REMARK    3  A    between atoms: C_5  and  C_6
REMARK    4  A    between atoms: C_6  and  O_8
REMARK    5  A    between atoms: C_9  and  C_11
REMARK                            x       y       z     vdW  Elec       q    Type
REMARK                         _______ _______ _______ _____ _____    ______ ____
ROOT
ATOM      1  C   UNL     1       5.267   4.320  17.827  0.00  0.00    +0.000 C 
ATOM      2  C   UNL     1       4.875   4.858  16.475  0.00  0.00    +0.000 C 
ATOM      3  C   UNL     1       4.092   5.283  17.729  0.00  0.00    +0.000 C 
ATOM      4 BR   UNL     1       2.293   4.477  17.712  0.00  0.00    +0.000 Br
ENDROOT
BRANCH   1   6
ATOM      5  O   UNL     1       6.439   5.091  19.696  0.00  0.00    +0.000 OA
ATOM      6  C   UNL     1       6.517   4.605  18.579  0.00  0.00    +0.000 C 
BRANCH   6   7
ATOM      7  O   UNL     1       7.711   4.287  18.034  0.00  0.00    +0.000 OA
ATOM      8  H   UNL     1       7.742   3.852  17.149  0.00  0.00    +0.000 HD
ENDBRANCH   6   7
ENDBRANCH   1   6
BRANCH   2   9
ATOM      9  C   UNL     1       5.695   5.809  15.706  0.00  0.00    +0.000 C 
ATOM     10  O   UNL     1       6.889   5.628  15.530  0.00  0.00    +0.000 OA
BRANCH   9  11
ATOM     11  O   UNL     1       5.009   6.818  15.144  0.00  0.00    +0.000 OA
ATOM     12  H   UNL     1       5.541   7.539  14.753  0.00  0.00    +0.000 HD
ENDBRANCH   9  11
ENDBRANCH   2   9
BRANCH   3  13
ATOM     13  C   UNL     1       4.160   6.693  18.266  0.00  0.00    +0.000 C 
ATOM     14 BR   UNL     1       2.488   7.675  18.049  0.00  0.00    +0.000 Br
ENDBRANCH   3  13
TORSDOF 5
ENDMDL
MODEL 6
REMARK VINA RESULT:      -4.9      0.933      1.209
REMARK  Name = 
REMARK  5 active torsions:
REMARK  status: ('A' for Active; 'I' for Inactive)
REMARK    1  A    between atoms: C_2  and  O_3
REMARK    2  A    between atoms: C_2  and  C_4
REMARK    3  A    between atoms: C_5  and  C_6
REMARK    4  A    between atoms: C_6  and  O_8
REMARK    5  A    between atoms: C_9  and  C_11
REMARK                            x       y       z     vdW  Elec       q    Type
REMARK                         _______ _______ _______ _____ _____    ______ ____
ROOT
ATOM      1  C   UNL     1       5.473   6.078  16.597  0.00  0.00    +0.000 C 
ATOM      2  C   UNL     1       5.576   5.758  18.066  0.00  0.00    +0.000 C 
ATOM      3  C   UNL     1       4.218   5.658  17.350  0.00  0.00    +0.000 C 
ATOM      4 BR   UNL     1       3.025   7.109  17.949  0.00  0.00    +0.000 Br
ENDROOT
BRANCH   1   6
ATOM      5  O   UNL     1       5.326   4.656  14.748  0.00  0.00    +0.000 OA
ATOM      6  C   UNL     1       6.063   5.311  15.468  0.00  0.00    +0.000 C 
BRANCH   6   7
ATOM      7  O   UNL     1       7.391   5.382  15.235  0.00  0.00    +0.000 OA
ATOM      8  H   UNL     1       8.024   5.042  15.911  0.00  0.00    +0.000 HD
ENDBRANCH   6   7
ENDBRANCH   1   6
BRANCH   2   9
ATOM      9  C   UNL     1       6.269   4.572  18.597  0.00  0.00    +0.000 C 
ATOM     10  O   UNL     1       5.765   3.869  19.458  0.00  0.00    +0.000 OA
BRANCH   9  11
ATOM     11  O   UNL     1       7.434   4.284  17.994  0.00  0.00    +0.000 OA
ATOM     12  H   UNL     1       8.245   4.481  18.503  0.00  0.00    +0.000 HD
ENDBRANCH   9  11
ENDBRANCH   2   9
BRANCH   3  13
ATOM     13  C   UNL     1       3.544   4.327  17.112  0.00  0.00    +0.000 C 
ATOM     14 BR   UNL     1       1.768   4.216  17.913  0.00  0.00    +0.000 Br
ENDBRANCH   3  13
TORSDOF 5
ENDMDL
MODEL 7
REMARK VINA RESULT:      -4.9      1.043      3.330
REMARK  Name = 
REMARK  5 active torsions:
REMARK  status: ('A' for Active; 'I' for Inactive)
REMARK    1  A    between atoms: C_2  and  O_3
REMARK    2  A    between atoms: C_2  and  C_4
REMARK    3  A    between atoms: C_5  and  C_6
REMARK    4  A    between atoms: C_6  and  O_8
REMARK    5  A    between atoms: C_9  and  C_11
REMARK                            x       y       z     vdW  Elec       q    Type
REMARK                         _______ _______ _______ _____ _____    ______ ____
ROOT
ATOM      1  C   UNL     1       5.424   4.217  17.893  0.00  0.00    +0.000 C 
ATOM      2  C   UNL     1       5.094   4.452  16.442  0.00  0.00    +0.000 C 
ATOM      3  C   UNL     1       4.263   5.137  17.540  0.00  0.00    +0.000 C 
ATOM      4 BR   UNL     1       2.459   4.347  17.620  0.00  0.00    +0.000 Br
ENDROOT
BRANCH   1   6
ATOM      5  O   UNL     1       6.521   5.281  19.662  0.00  0.00    +0.000 OA
ATOM      6  C   UNL     1       6.644   4.658  18.620  0.00  0.00    +0.000 C 
BRANCH   6   7
ATOM      7  O   UNL     1       7.862   4.329  18.137  0.00  0.00    +0.000 OA
ATOM      8  H   UNL     1       8.318   4.938  17.508  0.00  0.00    +0.000 HD
ENDBRANCH   6   7
ENDBRANCH   1   6
BRANCH   2   9
ATOM      9  C   UNL     1       5.955   5.216  15.522  0.00  0.00    +0.000 C 
ATOM     10  O   UNL     1       5.544   6.202  14.932  0.00  0.00    +0.000 OA
BRANCH   9  11
ATOM     11  O   UNL     1       7.231   4.799  15.468  0.00  0.00    +0.000 OA
ATOM     12  H   UNL     1       7.828   5.306  14.884  0.00  0.00    +0.000 HD
ENDBRANCH   9  11
ENDBRANCH   2   9
BRANCH   3  13
ATOM     13  C   UNL     1       4.322   6.630  17.764  0.00  0.00    +0.000 C 
ATOM     14 BR   UNL     1       2.596   7.399  18.250  0.00  0.00    +0.000 Br
ENDBRANCH   3  13
TORSDOF 5
ENDMDL
MODEL 8
REMARK VINA RESULT:      -4.9      3.628      5.096
REMARK  Name = 
REMARK  5 active torsions:
REMARK  status: ('A' for Active; 'I' for Inactive)
REMARK    1  A    between atoms: C_2  and  O_3
REMARK    2  A    between atoms: C_2  and  C_4
REMARK    3  A    between atoms: C_5  and  C_6
REMARK    4  A    between atoms: C_6  and  O_8
REMARK    5  A    between atoms: C_9  and  C_11
REMARK                            x       y       z     vdW  Elec       q    Type
REMARK                         _______ _______ _______ _____ _____    ______ ____
ROOT
ATOM      1  C   UNL     1       3.337   3.569  20.201  0.00  0.00    +0.000 C 
ATOM      2  C   UNL     1       1.907   3.199  19.902  0.00  0.00    +0.000 C 
ATOM      3  C   UNL     1       2.444   4.584  19.502  0.00  0.00    +0.000 C 
ATOM      4 BR   UNL     1       1.639   5.978  20.641  0.00  0.00    +0.000 Br
ENDROOT
BRANCH   1   6
ATOM      5  O   UNL     1       5.302   3.699  18.942  0.00  0.00    +0.000 OA
ATOM      6  C   UNL     1       4.562   2.982  19.595  0.00  0.00    +0.000 C 
BRANCH   6   7
ATOM      7  O   UNL     1       4.854   1.681  19.810  0.00  0.00    +0.000 OA
ATOM      8  H   UNL     1       5.250   1.406  20.671  0.00  0.00    +0.000 HD
ENDBRANCH   6   7
ENDBRANCH   1   6
BRANCH   2   9
ATOM      9  C   UNL     1       1.516   2.193  18.899  0.00  0.00    +0.000 C 
ATOM     10  O   UNL     1       0.391   2.162  18.429  0.00  0.00    +0.000 OA
BRANCH   9  11
ATOM     11  O   UNL     1       2.513   1.393  18.485  0.00  0.00    +0.000 OA
ATOM     12  H   UNL     1       3.003   1.687  17.692  0.00  0.00    +0.000 HD
ENDBRANCH   9  11
ENDBRANCH   2   9
BRANCH   3  13
ATOM     13  C   UNL     1       2.642   4.970  18.055  0.00  0.00    +0.000 C 
ATOM     14 BR   UNL     1       3.541   6.688  17.838  0.00  0.00    +0.000 Br
ENDBRANCH   3  13
TORSDOF 5
ENDMDL
MODEL 9
REMARK VINA RESULT:      -4.9      2.846      3.598
REMARK  Name = 
REMARK  5 active torsions:
REMARK  status: ('A' for Active; 'I' for Inactive)
REMARK    1  A    between atoms: C_2  and  O_3
REMARK    2  A    between atoms: C_2  and  C_4
REMARK    3  A    between atoms: C_5  and  C_6
REMARK    4  A    between atoms: C_6  and  O_8
REMARK    5  A    between atoms: C_9  and  C_11
REMARK                            x       y       z     vdW  Elec       q    Type
REMARK                         _______ _______ _______ _____ _____    ______ ____
ROOT
ATOM      1  C   UNL     1       3.816   3.938  16.962  0.00  0.00    +0.000 C 
ATOM      2  C   UNL     1       5.053   4.230  17.771  0.00  0.00    +0.000 C 
ATOM      3  C   UNL     1       4.107   5.375  17.370  0.00  0.00    +0.000 C 
ATOM      4 BR   UNL     1       4.963   6.519  16.011  0.00  0.00    +0.000 Br
ENDROOT
BRANCH   1   6
ATOM      5  O   UNL     1       1.530   3.731  17.405  0.00  0.00    +0.000 OA
ATOM      6  C   UNL     1       2.616   3.175  17.399  0.00  0.00    +0.000 C 
BRANCH   6   7
ATOM      7  O   UNL     1       2.742   1.875  17.743  0.00  0.00    +0.000 OA
ATOM      8  H   UNL     1       1.945   1.294  17.751  0.00  0.00    +0.000 HD
ENDBRANCH   6   7
ENDBRANCH   1   6
BRANCH   2   9
ATOM      9  C   UNL     1       5.229   3.816  19.173  0.00  0.00    +0.000 C 
ATOM     10  O   UNL     1       4.758   2.772  19.596  0.00  0.00    +0.000 OA
BRANCH   9  11
ATOM     11  O   UNL     1       6.018   4.621  19.904  0.00  0.00    +0.000 OA
ATOM     12  H   UNL     1       6.888   4.840  19.517  0.00  0.00    +0.000 HD
ENDBRANCH   9  11
ENDBRANCH   2   9
BRANCH   3  13
ATOM     13  C   UNL     1       3.271   6.107  18.394  0.00  0.00    +0.000 C 
ATOM     14 BR   UNL     1       2.777   7.908  17.829  0.00  0.00    +0.000 Br
ENDBRANCH   3  13
TORSDOF 5
ENDMDL
