MODEL 1
REMARK VINA RESULT:      -8.6      0.000      0.000
REMARK  Name = 
REMARK  11 active torsions:
REMARK  status: ('A' for Active; 'I' for Inactive)
REMARK    1  A    between atoms: C_1  and  N_2
REMARK    2  A    between atoms: C_9  and  C_10
REMARK    3  A    between atoms: N_12  and  C_13
REMARK    4  A    between atoms: C_13  and  C_14
REMARK    5  A    between atoms: C_14  and  C_15
REMARK    6  A    between atoms: C_15  and  C_16
REMARK    7  A    between atoms: C_16  and  C_17
REMARK    8  A    between atoms: C_17  and  O_18
REMARK    9  A    between atoms: O_18  and  C_19
REMARK   10  A    between atoms: C_22  and  C_23
REMARK   11  A    between atoms: N_25  and  O_26
REMARK                            x       y       z     vdW  Elec       q    Type
REMARK                         _______ _______ _______ _____ _____    ______ ____
ROOT
ATOM      1  C   UNL     1       3.089   6.095  19.332  0.00  0.00    +0.000 A 
ATOM      2  C   UNL     1       4.450   6.280  19.264  0.00  0.00    +0.000 A 
ATOM      3  N   UNL     1       5.003   5.141  18.731  0.00  0.00    +0.000 N 
ATOM      4  C   UNL     1       4.016   4.206  18.483  0.00  0.00    +0.000 A 
ATOM      5  C   UNL     1       4.079   2.898  17.971  0.00  0.00    +0.000 A 
ATOM      6  C   UNL     1       2.886   2.182  17.832  0.00  0.00    +0.000 A 
ATOM      7  C   UNL     1       1.666   2.748  18.182  0.00  0.00    +0.000 A 
ATOM      8  C   UNL     1       1.607   4.051  18.687  0.00  0.00    +0.000 A 
ATOM      9  C   UNL     1       2.796   4.792  18.847  0.00  0.00    +0.000 A 
ENDROOT
BRANCH   1  18
ATOM     10  C   UNL     1       0.316   9.112  21.057  0.00  0.00    +0.000 C 
ATOM     11  N   UNL     1       1.063   9.228  19.818  0.00  0.00    +0.000 N 
ATOM     12  C   UNL     1       1.083  10.327  18.952  0.00  0.00    +0.000 C 
ATOM     13  S   UNL     1       0.413  11.832  19.144  0.00  0.00    +0.000 S 
ATOM     14  N   UNL     1       1.800   9.974  17.837  0.00  0.00    +0.000 N 
ATOM     15  C   UNL     1       2.248   8.684  17.902  0.00  0.00    +0.000 C 
ATOM     16  O   UNL     1       2.800   8.069  17.011  0.00  0.00    +0.000 OA
ATOM     17  C   UNL     1       1.834   8.211  19.266  0.00  0.00    +0.000 C 
ATOM     18  C   UNL     1       2.189   7.064  19.858  0.00  0.00    +0.000 C 
ATOM     19  H   UNL     1       1.923  10.557  17.026  0.00  0.00    +0.000 HD
ENDBRANCH   1  18
BRANCH   3  20
ATOM     20  C   UNL     1       6.431   4.960  18.517  0.00  0.00    +0.000 C 
BRANCH  20  21
ATOM     21  C   UNL     1       7.046   5.991  17.571  0.00  0.00    +0.000 C 
BRANCH  21  22
ATOM     22  C   UNL     1       7.857   7.087  18.279  0.00  0.00    +0.000 C 
BRANCH  22  23
ATOM     23  C   UNL     1       7.879   8.415  17.508  0.00  0.00    +0.000 C 
BRANCH  23  24
ATOM     24  C   UNL     1       8.224   9.585  18.422  0.00  0.00    +0.000 C 
BRANCH  24  25
ATOM     25  O   UNL     1       9.630   9.830  18.436  0.00  0.00    +0.000 OA
BRANCH  25  26
ATOM     26  C   UNL     1       9.980  11.135  18.180  0.00  0.00    +0.000 A 
ATOM     27  C   UNL     1      11.275  11.660  18.281  0.00  0.00    +0.000 A 
ATOM     28  C   UNL     1      11.515  13.008  18.023  0.00  0.00    +0.000 A 
ATOM     29  C   UNL     1      10.465  13.845  17.642  0.00  0.00    +0.000 A 
ATOM     30  C   UNL     1       9.171  13.328  17.526  0.00  0.00    +0.000 A 
ATOM     31  C   UNL     1       8.932  11.976  17.799  0.00  0.00    +0.000 A 
BRANCH  29  32
ATOM     32  C   UNL     1      10.747  15.288  17.380  0.00  0.00    +0.000 C 
ATOM     33  N   UNL     1      10.769  15.735  16.078  0.00  0.00    +0.000 N 
ATOM     34  N   UNL     1      10.982  16.070  18.395  0.00  0.00    +0.000 NA
ATOM     35  H   UNL     1      11.215  15.105  15.424  0.00  0.00    +0.000 HD
ATOM     36  H   UNL     1      11.188  16.665  16.060  0.00  0.00    +0.000 HD
BRANCH  34  37
ATOM     37  O   UNL     1      11.254  17.378  17.968  0.00  0.00    +0.000 OA
ATOM     38  H   UNL     1      10.750  17.906  18.616  0.00  0.00    +0.000 HD
ENDBRANCH  34  37
ENDBRANCH  29  32
ENDBRANCH  25  26
ENDBRANCH  24  25
ENDBRANCH  23  24
ENDBRANCH  22  23
ENDBRANCH  21  22
ENDBRANCH  20  21
ENDBRANCH   3  20
TORSDOF 10
ENDMDL
MODEL 2
REMARK VINA RESULT:      -8.2      0.978      1.360
REMARK  Name = 
REMARK  11 active torsions:
REMARK  status: ('A' for Active; 'I' for Inactive)
REMARK    1  A    between atoms: C_1  and  N_2
REMARK    2  A    between atoms: C_9  and  C_10
REMARK    3  A    between atoms: N_12  and  C_13
REMARK    4  A    between atoms: C_13  and  C_14
REMARK    5  A    between atoms: C_14  and  C_15
REMARK    6  A    between atoms: C_15  and  C_16
REMARK    7  A    between atoms: C_16  and  C_17
REMARK    8  A    between atoms: C_17  and  O_18
REMARK    9  A    between atoms: O_18  and  C_19
REMARK   10  A    between atoms: C_22  and  C_23
REMARK   11  A    between atoms: N_25  and  O_26
REMARK                            x       y       z     vdW  Elec       q    Type
REMARK                         _______ _______ _______ _____ _____    ______ ____
ROOT
ATOM      1  C   UNL     1       3.048   6.052  19.418  0.00  0.00    +0.000 A 
ATOM      2  C   UNL     1       4.418   6.086  19.535  0.00  0.00    +0.000 A 
ATOM      3  N   UNL     1       4.914   4.916  19.016  0.00  0.00    +0.000 N 
ATOM      4  C   UNL     1       3.876   4.107  18.592  0.00  0.00    +0.000 A 
ATOM      5  C   UNL     1       3.869   2.823  18.021  0.00  0.00    +0.000 A 
ATOM      6  C   UNL     1       2.637   2.251  17.691  0.00  0.00    +0.000 A 
ATOM      7  C   UNL     1       1.447   2.935  17.912  0.00  0.00    +0.000 A 
ATOM      8  C   UNL     1       1.459   4.214  18.477  0.00  0.00    +0.000 A 
ATOM      9  C   UNL     1       2.687   4.811  18.828  0.00  0.00    +0.000 A 
ENDROOT
BRANCH   1  18
ATOM     10  C   UNL     1       0.414   9.297  20.934  0.00  0.00    +0.000 C 
ATOM     11  N   UNL     1       1.175   9.303  19.698  0.00  0.00    +0.000 N 
ATOM     12  C   UNL     1       1.254  10.346  18.769  0.00  0.00    +0.000 C 
ATOM     13  S   UNL     1       0.657  11.890  18.865  0.00  0.00    +0.000 S 
ATOM     14  N   UNL     1       1.961   9.893  17.683  0.00  0.00    +0.000 N 
ATOM     15  C   UNL     1       2.344   8.589  17.829  0.00  0.00    +0.000 C 
ATOM     16  O   UNL     1       2.872   7.896  16.982  0.00  0.00    +0.000 OA
ATOM     17  C   UNL     1       1.898   8.219  19.215  0.00  0.00    +0.000 C 
ATOM     18  C   UNL     1       2.193   7.093  19.877  0.00  0.00    +0.000 C 
ATOM     19  H   UNL     1       2.117  10.420  16.841  0.00  0.00    +0.000 HD
ENDBRANCH   1  18
BRANCH   3  20
ATOM     20  C   UNL     1       6.331   4.586  18.977  0.00  0.00    +0.000 C 
BRANCH  20  21
ATOM     21  C   UNL     1       7.098   5.299  17.864  0.00  0.00    +0.000 C 
BRANCH  21  22
ATOM     22  C   UNL     1       7.769   6.609  18.306  0.00  0.00    +0.000 C 
BRANCH  22  23
ATOM     23  C   UNL     1       7.151   7.854  17.653  0.00  0.00    +0.000 C 
BRANCH  23  24
ATOM     24  C   UNL     1       8.173   8.977  17.514  0.00  0.00    +0.000 C 
BRANCH  24  25
ATOM     25  O   UNL     1       8.750   9.306  18.778  0.00  0.00    +0.000 OA
BRANCH  25  26
ATOM     26  C   UNL     1       9.225  10.594  18.864  0.00  0.00    +0.000 A 
ATOM     27  C   UNL     1       8.922  11.630  17.971  0.00  0.00    +0.000 A 
ATOM     28  C   UNL     1       9.480  12.895  18.137  0.00  0.00    +0.000 A 
ATOM     29  C   UNL     1      10.337  13.146  19.210  0.00  0.00    +0.000 A 
ATOM     30  C   UNL     1      10.637  12.122  20.114  0.00  0.00    +0.000 A 
ATOM     31  C   UNL     1      10.084  10.849  19.936  0.00  0.00    +0.000 A 
BRANCH  29  32
ATOM     32  C   UNL     1      10.930  14.509  19.361  0.00  0.00    +0.000 C 
ATOM     33  N   UNL     1      12.178  14.631  19.928  0.00  0.00    +0.000 N 
ATOM     34  N   UNL     1      10.233  15.536  18.968  0.00  0.00    +0.000 NA
ATOM     35  H   UNL     1      12.343  14.022  20.719  0.00  0.00    +0.000 HD
ATOM     36  H   UNL     1      12.336  15.612  20.160  0.00  0.00    +0.000 HD
BRANCH  34  37
ATOM     37  O   UNL     1      10.925  16.733  19.208  0.00  0.00    +0.000 OA
ATOM     38  H   UNL     1      11.383  16.533  20.045  0.00  0.00    +0.000 HD
ENDBRANCH  34  37
ENDBRANCH  29  32
ENDBRANCH  25  26
ENDBRANCH  24  25
ENDBRANCH  23  24
ENDBRANCH  22  23
ENDBRANCH  21  22
ENDBRANCH  20  21
ENDBRANCH   3  20
TORSDOF 10
ENDMDL
MODEL 3
REMARK VINA RESULT:      -8.1      1.285      1.660
REMARK  Name = 
REMARK  11 active torsions:
REMARK  status: ('A' for Active; 'I' for Inactive)
REMARK    1  A    between atoms: C_1  and  N_2
REMARK    2  A    between atoms: C_9  and  C_10
REMARK    3  A    between atoms: N_12  and  C_13
REMARK    4  A    between atoms: C_13  and  C_14
REMARK    5  A    between atoms: C_14  and  C_15
REMARK    6  A    between atoms: C_15  and  C_16
REMARK    7  A    between atoms: C_16  and  C_17
REMARK    8  A    between atoms: C_17  and  O_18
REMARK    9  A    between atoms: O_18  and  C_19
REMARK   10  A    between atoms: C_22  and  C_23
REMARK   11  A    between atoms: N_25  and  O_26
REMARK                            x       y       z     vdW  Elec       q    Type
REMARK                         _______ _______ _______ _____ _____    ______ ____
ROOT
ATOM      1  C   UNL     1       2.300   6.366  19.776  0.00  0.00    +0.000 A 
ATOM      2  C   UNL     1       3.392   6.624  18.982  0.00  0.00    +0.000 A 
ATOM      3  N   UNL     1       3.681   5.479  18.280  0.00  0.00    +0.000 N 
ATOM      4  C   UNL     1       2.805   4.471  18.635  0.00  0.00    +0.000 A 
ATOM      5  C   UNL     1       2.708   3.132  18.220  0.00  0.00    +0.000 A 
ATOM      6  C   UNL     1       1.696   2.339  18.770  0.00  0.00    +0.000 A 
ATOM      7  C   UNL     1       0.802   2.860  19.697  0.00  0.00    +0.000 A 
ATOM      8  C   UNL     1       0.899   4.194  20.105  0.00  0.00    +0.000 A 
ATOM      9  C   UNL     1       1.916   5.014  19.574  0.00  0.00    +0.000 A 
ENDROOT
BRANCH   1  18
ATOM     10  C   UNL     1       0.584   9.327  22.616  0.00  0.00    +0.000 C 
ATOM     11  N   UNL     1       0.896   9.547  21.215  0.00  0.00    +0.000 N 
ATOM     12  C   UNL     1       0.753  10.744  20.504  0.00  0.00    +0.000 C 
ATOM     13  S   UNL     1       0.350  12.255  21.054  0.00  0.00    +0.000 S 
ATOM     14  N   UNL     1       1.025  10.487  19.184  0.00  0.00    +0.000 N 
ATOM     15  C   UNL     1       1.326   9.170  18.970  0.00  0.00    +0.000 C 
ATOM     16  O   UNL     1       1.489   8.637  17.890  0.00  0.00    +0.000 OA
ATOM     17  C   UNL     1       1.329   8.557  20.341  0.00  0.00    +0.000 C 
ATOM     18  C   UNL     1       1.731   7.322  20.665  0.00  0.00    +0.000 C 
ATOM     19  H   UNL     1       0.940  11.157  18.439  0.00  0.00    +0.000 HD
ENDBRANCH   1  18
BRANCH   3  20
ATOM     20  C   UNL     1       4.787   5.365  17.341  0.00  0.00    +0.000 C 
BRANCH  20  21
ATOM     21  C   UNL     1       6.122   5.853  17.902  0.00  0.00    +0.000 C 
BRANCH  21  22
ATOM     22  C   UNL     1       6.484   7.291  17.499  0.00  0.00    +0.000 C 
BRANCH  22  23
ATOM     23  C   UNL     1       7.944   7.654  17.807  0.00  0.00    +0.000 C 
BRANCH  23  24
ATOM     24  C   UNL     1       8.153   9.165  17.814  0.00  0.00    +0.000 C 
BRANCH  24  25
ATOM     25  O   UNL     1       8.919   9.573  18.947  0.00  0.00    +0.000 OA
BRANCH  25  26
ATOM     26  C   UNL     1       9.384  10.866  18.879  0.00  0.00    +0.000 A 
ATOM     27  C   UNL     1       8.967  11.828  17.950  0.00  0.00    +0.000 A 
ATOM     28  C   UNL     1       9.524  13.104  17.953  0.00  0.00    +0.000 A 
ATOM     29  C   UNL     1      10.494  13.442  18.898  0.00  0.00    +0.000 A 
ATOM     30  C   UNL     1      10.908  12.493  19.839  0.00  0.00    +0.000 A 
ATOM     31  C   UNL     1      10.354  11.208  19.824  0.00  0.00    +0.000 A 
BRANCH  29  32
ATOM     32  C   UNL     1      11.082  14.815  18.876  0.00  0.00    +0.000 C 
ATOM     33  N   UNL     1      12.333  15.011  19.415  0.00  0.00    +0.000 N 
ATOM     34  N   UNL     1      10.379  15.784  18.363  0.00  0.00    +0.000 NA
ATOM     35  H   UNL     1      12.505  14.506  20.274  0.00  0.00    +0.000 HD
ATOM     36  H   UNL     1      12.488  16.014  19.522  0.00  0.00    +0.000 HD
BRANCH  34  37
ATOM     37  O   UNL     1      11.067  17.003  18.448  0.00  0.00    +0.000 OA
ATOM     38  H   UNL     1      10.577  17.552  17.807  0.00  0.00    +0.000 HD
ENDBRANCH  34  37
ENDBRANCH  29  32
ENDBRANCH  25  26
ENDBRANCH  24  25
ENDBRANCH  23  24
ENDBRANCH  22  23
ENDBRANCH  21  22
ENDBRANCH  20  21
ENDBRANCH   3  20
TORSDOF 10
ENDMDL
MODEL 4
REMARK VINA RESULT:      -8.0      3.232     10.173
REMARK  Name = 
REMARK  11 active torsions:
REMARK  status: ('A' for Active; 'I' for Inactive)
REMARK    1  A    between atoms: C_1  and  N_2
REMARK    2  A    between atoms: C_9  and  C_10
REMARK    3  A    between atoms: N_12  and  C_13
REMARK    4  A    between atoms: C_13  and  C_14
REMARK    5  A    between atoms: C_14  and  C_15
REMARK    6  A    between atoms: C_15  and  C_16
REMARK    7  A    between atoms: C_16  and  C_17
REMARK    8  A    between atoms: C_17  and  O_18
REMARK    9  A    between atoms: O_18  and  C_19
REMARK   10  A    between atoms: C_22  and  C_23
REMARK   11  A    between atoms: N_25  and  O_26
REMARK                            x       y       z     vdW  Elec       q    Type
REMARK                         _______ _______ _______ _____ _____    ______ ____
ROOT
ATOM      1  C   UNL     1       7.908  14.495  17.867  0.00  0.00    +0.000 A 
ATOM      2  C   UNL     1       8.285  13.173  17.841  0.00  0.00    +0.000 A 
ATOM      3  N   UNL     1       9.658  13.127  17.845  0.00  0.00    +0.000 N 
ATOM      4  C   UNL     1      10.176  14.408  17.841  0.00  0.00    +0.000 A 
ATOM      5  C   UNL     1      11.500  14.878  17.820  0.00  0.00    +0.000 A 
ATOM      6  C   UNL     1      11.713  16.260  17.821  0.00  0.00    +0.000 A 
ATOM      7  C   UNL     1      10.646  17.150  17.850  0.00  0.00    +0.000 A 
ATOM      8  C   UNL     1       9.330  16.678  17.874  0.00  0.00    +0.000 A 
ATOM      9  C   UNL     1       9.085  15.290  17.865  0.00  0.00    +0.000 A 
ENDROOT
BRANCH   1  18
ATOM     10  C   UNL     1       3.655  15.786  17.734  0.00  0.00    +0.000 C 
ATOM     11  N   UNL     1       4.422  15.444  18.919  0.00  0.00    +0.000 N 
ATOM     12  C   UNL     1       3.957  15.418  20.238  0.00  0.00    +0.000 C 
ATOM     13  S   UNL     1       2.415  15.608  20.816  0.00  0.00    +0.000 S 
ATOM     14  N   UNL     1       5.030  15.182  21.060  0.00  0.00    +0.000 N 
ATOM     15  C   UNL     1       6.198  15.067  20.359  0.00  0.00    +0.000 C 
ATOM     16  O   UNL     1       7.314  14.979  20.831  0.00  0.00    +0.000 OA
ATOM     17  C   UNL     1       5.781  15.151  18.918  0.00  0.00    +0.000 C 
ATOM     18  C   UNL     1       6.552  14.926  17.846  0.00  0.00    +0.000 C 
ATOM     19  H   UNL     1       4.992  15.172  22.065  0.00  0.00    +0.000 HD
ENDBRANCH   1  18
BRANCH   3  20
ATOM     20  C   UNL     1      10.425  11.891  17.809  0.00  0.00    +0.000 C 
BRANCH  20  21
ATOM     21  C   UNL     1      10.508  11.179  19.160  0.00  0.00    +0.000 C 
BRANCH  21  22
ATOM     22  C   UNL     1       9.329  10.235  19.444  0.00  0.00    +0.000 C 
BRANCH  22  23
ATOM     23  C   UNL     1       8.629   9.743  18.169  0.00  0.00    +0.000 C 
BRANCH  23  24
ATOM     24  C   UNL     1       8.262   8.266  18.270  0.00  0.00    +0.000 C 
BRANCH  24  25
ATOM     25  O   UNL     1       7.617   7.814  17.080  0.00  0.00    +0.000 OA
BRANCH  25  26
ATOM     26  C   UNL     1       6.753   6.760  17.270  0.00  0.00    +0.000 A 
ATOM     27  C   UNL     1       7.125   5.475  17.686  0.00  0.00    +0.000 A 
ATOM     28  C   UNL     1       6.170   4.470  17.823  0.00  0.00    +0.000 A 
ATOM     29  C   UNL     1       4.826   4.743  17.560  0.00  0.00    +0.000 A 
ATOM     30  C   UNL     1       4.443   6.026  17.156  0.00  0.00    +0.000 A 
ATOM     31  C   UNL     1       5.408   7.029  17.008  0.00  0.00    +0.000 A 
BRANCH  29  32
ATOM     32  C   UNL     1       3.821   3.646  17.705  0.00  0.00    +0.000 C 
ATOM     33  N   UNL     1       4.259   2.385  18.039  0.00  0.00    +0.000 N 
ATOM     34  N   UNL     1       2.567   3.921  17.488  0.00  0.00    +0.000 NA
ATOM     35  H   UNL     1       5.114   2.100  17.579  0.00  0.00    +0.000 HD
ATOM     36  H   UNL     1       3.498   1.723  17.878  0.00  0.00    +0.000 HD
BRANCH  34  37
ATOM     37  O   UNL     1       1.770   2.777  17.639  0.00  0.00    +0.000 OA
ATOM     38  H   UNL     1       1.914   2.556  18.578  0.00  0.00    +0.000 HD
ENDBRANCH  34  37
ENDBRANCH  29  32
ENDBRANCH  25  26
ENDBRANCH  24  25
ENDBRANCH  23  24
ENDBRANCH  22  23
ENDBRANCH  21  22
ENDBRANCH  20  21
ENDBRANCH   3  20
TORSDOF 10
ENDMDL
MODEL 5
REMARK VINA RESULT:      -8.0      5.562      8.513
REMARK  Name = 
REMARK  11 active torsions:
REMARK  status: ('A' for Active; 'I' for Inactive)
REMARK    1  A    between atoms: C_1  and  N_2
REMARK    2  A    between atoms: C_9  and  C_10
REMARK    3  A    between atoms: N_12  and  C_13
REMARK    4  A    between atoms: C_13  and  C_14
REMARK    5  A    between atoms: C_14  and  C_15
REMARK    6  A    between atoms: C_15  and  C_16
REMARK    7  A    between atoms: C_16  and  C_17
REMARK    8  A    between atoms: C_17  and  O_18
REMARK    9  A    between atoms: O_18  and  C_19
REMARK   10  A    between atoms: C_22  and  C_23
REMARK   11  A    between atoms: N_25  and  O_26
REMARK                            x       y       z     vdW  Elec       q    Type
REMARK                         _______ _______ _______ _____ _____    ______ ____
ROOT
ATOM      1  C   UNL     1      -0.230  11.444  20.376  0.00  0.00    +0.000 A 
ATOM      2  C   UNL     1      -0.178  10.238  19.717  0.00  0.00    +0.000 A 
ATOM      3  N   UNL     1       0.826  10.313  18.783  0.00  0.00    +0.000 N 
ATOM      4  C   UNL     1       1.405  11.567  18.808  0.00  0.00    +0.000 A 
ATOM      5  C   UNL     1       2.438  12.132  18.040  0.00  0.00    +0.000 A 
ATOM      6  C   UNL     1       2.812  13.454  18.302  0.00  0.00    +0.000 A 
ATOM      7  C   UNL     1       2.187  14.190  19.301  0.00  0.00    +0.000 A 
ATOM      8  C   UNL     1       1.163  13.624  20.065  0.00  0.00    +0.000 A 
ATOM      9  C   UNL     1       0.758  12.296  19.816  0.00  0.00    +0.000 A 
ENDROOT
BRANCH   1  18
ATOM     10  C   UNL     1      -3.107  12.404  23.628  0.00  0.00    +0.000 C 
ATOM     11  N   UNL     1      -3.286  12.651  22.209  0.00  0.00    +0.000 N 
ATOM     12  C   UNL     1      -4.382  13.274  21.600  0.00  0.00    +0.000 C 
ATOM     13  S   UNL     1      -5.683  14.031  22.294  0.00  0.00    +0.000 S 
ATOM     14  N   UNL     1      -4.218  13.183  20.241  0.00  0.00    +0.000 N 
ATOM     15  C   UNL     1      -3.075  12.511  19.905  0.00  0.00    +0.000 C 
ATOM     16  O   UNL     1      -2.741  12.177  18.786  0.00  0.00    +0.000 OA
ATOM     17  C   UNL     1      -2.404  12.233  21.220  0.00  0.00    +0.000 C 
ATOM     18  C   UNL     1      -1.172  11.740  21.401  0.00  0.00    +0.000 C 
ATOM     19  H   UNL     1      -4.889  13.497  19.560  0.00  0.00    +0.000 HD
ENDBRANCH   1  18
BRANCH   3  20
ATOM     20  C   UNL     1       1.171   9.225  17.881  0.00  0.00    +0.000 C 
BRANCH  20  21
ATOM     21  C   UNL     1       2.423   8.453  18.298  0.00  0.00    +0.000 C 
BRANCH  21  22
ATOM     22  C   UNL     1       2.165   7.364  19.351  0.00  0.00    +0.000 C 
BRANCH  22  23
ATOM     23  C   UNL     1       2.211   5.942  18.772  0.00  0.00    +0.000 C 
BRANCH  23  24
ATOM     24  C   UNL     1       2.962   4.988  19.696  0.00  0.00    +0.000 C 
BRANCH  24  25
ATOM     25  O   UNL     1       4.372   5.187  19.604  0.00  0.00    +0.000 OA
BRANCH  25  26
ATOM     26  C   UNL     1       4.889   4.995  18.344  0.00  0.00    +0.000 A 
ATOM     27  C   UNL     1       4.813   3.804  17.611  0.00  0.00    +0.000 A 
ATOM     28  C   UNL     1       5.396   3.709  16.350  0.00  0.00    +0.000 A 
ATOM     29  C   UNL     1       6.048   4.812  15.796  0.00  0.00    +0.000 A 
ATOM     30  C   UNL     1       6.120   6.010  16.515  0.00  0.00    +0.000 A 
ATOM     31  C   UNL     1       5.544   6.096  17.787  0.00  0.00    +0.000 A 
BRANCH  29  32
ATOM     32  C   UNL     1       6.673   4.683  14.445  0.00  0.00    +0.000 C 
ATOM     33  N   UNL     1       6.334   3.607  13.657  0.00  0.00    +0.000 N 
ATOM     34  N   UNL     1       7.535   5.585  14.071  0.00  0.00    +0.000 NA
ATOM     35  H   UNL     1       6.248   2.730  14.154  0.00  0.00    +0.000 HD
ATOM     36  H   UNL     1       6.999   3.546  12.885  0.00  0.00    +0.000 HD
BRANCH  34  37
ATOM     37  O   UNL     1       8.041   5.296  12.795  0.00  0.00    +0.000 OA
ATOM     38  H   UNL     1       7.236   5.339  12.247  0.00  0.00    +0.000 HD
ENDBRANCH  34  37
ENDBRANCH  29  32
ENDBRANCH  25  26
ENDBRANCH  24  25
ENDBRANCH  23  24
ENDBRANCH  22  23
ENDBRANCH  21  22
ENDBRANCH  20  21
ENDBRANCH   3  20
TORSDOF 10
ENDMDL
MODEL 6
REMARK VINA RESULT:      -8.0      5.422      8.458
REMARK  Name = 
REMARK  11 active torsions:
REMARK  status: ('A' for Active; 'I' for Inactive)
REMARK    1  A    between atoms: C_1  and  N_2
REMARK    2  A    between atoms: C_9  and  C_10
REMARK    3  A    between atoms: N_12  and  C_13
REMARK    4  A    between atoms: C_13  and  C_14
REMARK    5  A    between atoms: C_14  and  C_15
REMARK    6  A    between atoms: C_15  and  C_16
REMARK    7  A    between atoms: C_16  and  C_17
REMARK    8  A    between atoms: C_17  and  O_18
REMARK    9  A    between atoms: O_18  and  C_19
REMARK   10  A    between atoms: C_22  and  C_23
REMARK   11  A    between atoms: N_25  and  O_26
REMARK                            x       y       z     vdW  Elec       q    Type
REMARK                         _______ _______ _______ _____ _____    ______ ____
ROOT
ATOM      1  C   UNL     1       0.372  12.057  19.976  0.00  0.00    +0.000 A 
ATOM      2  C   UNL     1       1.070  11.011  19.422  0.00  0.00    +0.000 A 
ATOM      3  N   UNL     1       0.884   9.910  20.223  0.00  0.00    +0.000 N 
ATOM      4  C   UNL     1       0.097  10.242  21.310  0.00  0.00    +0.000 A 
ATOM      5  C   UNL     1      -0.347   9.481  22.405  0.00  0.00    +0.000 A 
ATOM      6  C   UNL     1      -1.147  10.107  23.366  0.00  0.00    +0.000 A 
ATOM      7  C   UNL     1      -1.503  11.445  23.241  0.00  0.00    +0.000 A 
ATOM      8  C   UNL     1      -1.062  12.197  22.148  0.00  0.00    +0.000 A 
ATOM      9  C   UNL     1      -0.246  11.594  21.168  0.00  0.00    +0.000 A 
ENDROOT
BRANCH   1  18
ATOM     10  C   UNL     1       0.229  16.154  18.253  0.00  0.00    +0.000 C 
ATOM     11  N   UNL     1       0.999  15.723  19.406  0.00  0.00    +0.000 N 
ATOM     12  C   UNL     1       1.812  16.524  20.216  0.00  0.00    +0.000 C 
ATOM     13  S   UNL     1       2.013  18.170  20.207  0.00  0.00    +0.000 S 
ATOM     14  N   UNL     1       2.464  15.705  21.102  0.00  0.00    +0.000 N 
ATOM     15  C   UNL     1       2.145  14.389  20.914  0.00  0.00    +0.000 C 
ATOM     16  O   UNL     1       2.660  13.438  21.469  0.00  0.00    +0.000 OA
ATOM     17  C   UNL     1       1.095  14.406  19.840  0.00  0.00    +0.000 C 
ATOM     18  C   UNL     1       0.355  13.370  19.426  0.00  0.00    +0.000 C 
ATOM     19  H   UNL     1       3.158  16.011  21.762  0.00  0.00    +0.000 HD
ENDBRANCH   1  18
BRANCH   3  20
ATOM     20  C   UNL     1       1.483   8.611  19.961  0.00  0.00    +0.000 C 
BRANCH  20  21
ATOM     21  C   UNL     1       2.051   8.469  18.549  0.00  0.00    +0.000 C 
BRANCH  21  22
ATOM     22  C   UNL     1       2.502   7.043  18.195  0.00  0.00    +0.000 C 
BRANCH  22  23
ATOM     23  C   UNL     1       3.027   6.258  19.406  0.00  0.00    +0.000 C 
BRANCH  23  24
ATOM     24  C   UNL     1       2.858   4.755  19.212  0.00  0.00    +0.000 C 
BRANCH  24  25
ATOM     25  O   UNL     1       4.117   4.085  19.263  0.00  0.00    +0.000 OA
BRANCH  25  26
ATOM     26  C   UNL     1       4.880   4.229  18.127  0.00  0.00    +0.000 A 
ATOM     27  C   UNL     1       6.218   4.642  18.099  0.00  0.00    +0.000 A 
ATOM     28  C   UNL     1       6.892   4.780  16.888  0.00  0.00    +0.000 A 
ATOM     29  C   UNL     1       6.241   4.488  15.688  0.00  0.00    +0.000 A 
ATOM     30  C   UNL     1       4.908   4.063  15.706  0.00  0.00    +0.000 A 
ATOM     31  C   UNL     1       4.231   3.938  16.925  0.00  0.00    +0.000 A 
BRANCH  29  32
ATOM     32  C   UNL     1       6.982   4.653  14.401  0.00  0.00    +0.000 C 
ATOM     33  N   UNL     1       6.649   3.849  13.335  0.00  0.00    +0.000 N 
ATOM     34  N   UNL     1       7.934   5.539  14.342  0.00  0.00    +0.000 NA
ATOM     35  H   UNL     1       6.456   2.886  13.577  0.00  0.00    +0.000 HD
ATOM     36  H   UNL     1       7.379   3.928  12.627  0.00  0.00    +0.000 HD
BRANCH  34  37
ATOM     37  O   UNL     1       8.540   5.541  13.077  0.00  0.00    +0.000 OA
ATOM     38  H   UNL     1       9.460   5.300  13.297  0.00  0.00    +0.000 HD
ENDBRANCH  34  37
ENDBRANCH  29  32
ENDBRANCH  25  26
ENDBRANCH  24  25
ENDBRANCH  23  24
ENDBRANCH  22  23
ENDBRANCH  21  22
ENDBRANCH  20  21
ENDBRANCH   3  20
TORSDOF 10
ENDMDL
MODEL 7
REMARK VINA RESULT:      -8.0      5.553      8.338
REMARK  Name = 
REMARK  11 active torsions:
REMARK  status: ('A' for Active; 'I' for Inactive)
REMARK    1  A    between atoms: C_1  and  N_2
REMARK    2  A    between atoms: C_9  and  C_10
REMARK    3  A    between atoms: N_12  and  C_13
REMARK    4  A    between atoms: C_13  and  C_14
REMARK    5  A    between atoms: C_14  and  C_15
REMARK    6  A    between atoms: C_15  and  C_16
REMARK    7  A    between atoms: C_16  and  C_17
REMARK    8  A    between atoms: C_17  and  O_18
REMARK    9  A    between atoms: O_18  and  C_19
REMARK   10  A    between atoms: C_22  and  C_23
REMARK   11  A    between atoms: N_25  and  O_26
REMARK                            x       y       z     vdW  Elec       q    Type
REMARK                         _______ _______ _______ _____ _____    ______ ____
ROOT
ATOM      1  C   UNL     1       1.527  12.150  19.439  0.00  0.00    +0.000 A 
ATOM      2  C   UNL     1       1.800  11.300  18.392  0.00  0.00    +0.000 A 
ATOM      3  N   UNL     1       1.288  10.065  18.709  0.00  0.00    +0.000 N 
ATOM      4  C   UNL     1       0.714  10.098  19.966  0.00  0.00    +0.000 A 
ATOM      5  C   UNL     1       0.090   9.098  20.731  0.00  0.00    +0.000 A 
ATOM      6  C   UNL     1      -0.402   9.440  21.995  0.00  0.00    +0.000 A 
ATOM      7  C   UNL     1      -0.287  10.737  22.481  0.00  0.00    +0.000 A 
ATOM      8  C   UNL     1       0.332  11.729  21.715  0.00  0.00    +0.000 A 
ATOM      9  C   UNL     1       0.846  11.411  20.442  0.00  0.00    +0.000 A 
ENDROOT
BRANCH   1  18
ATOM     10  C   UNL     1       2.869  16.389  19.495  0.00  0.00    +0.000 C 
ATOM     11  N   UNL     1       1.559  15.898  19.107  0.00  0.00    +0.000 N 
ATOM     12  C   UNL     1       0.484  16.662  18.641  0.00  0.00    +0.000 C 
ATOM     13  S   UNL     1       0.426  18.273  18.253  0.00  0.00    +0.000 S 
ATOM     14  N   UNL     1      -0.604  15.834  18.523  0.00  0.00    +0.000 N 
ATOM     15  C   UNL     1      -0.317  14.553  18.905  0.00  0.00    +0.000 C 
ATOM     16  O   UNL     1      -1.113  13.642  19.020  0.00  0.00    +0.000 OA
ATOM     17  C   UNL     1       1.153  14.572  19.211  0.00  0.00    +0.000 C 
ATOM     18  C   UNL     1       1.932  13.514  19.470  0.00  0.00    +0.000 C 
ATOM     19  H   UNL     1      -1.528  16.134  18.264  0.00  0.00    +0.000 HD
ENDBRANCH   1  18
BRANCH   3  20
ATOM     20  C   UNL     1       1.396   8.901  17.844  0.00  0.00    +0.000 C 
BRANCH  20  21
ATOM     21  C   UNL     1       2.753   8.201  17.919  0.00  0.00    +0.000 C 
BRANCH  21  22
ATOM     22  C   UNL     1       2.669   6.704  18.250  0.00  0.00    +0.000 C 
BRANCH  22  23
ATOM     23  C   UNL     1       3.808   6.223  19.161  0.00  0.00    +0.000 C 
BRANCH  23  24
ATOM     24  C   UNL     1       3.606   4.773  19.589  0.00  0.00    +0.000 C 
BRANCH  24  25
ATOM     25  O   UNL     1       4.755   3.982  19.287  0.00  0.00    +0.000 OA
BRANCH  25  26
ATOM     26  C   UNL     1       5.225   4.134  18.004  0.00  0.00    +0.000 A 
ATOM     27  C   UNL     1       4.496   3.864  16.838  0.00  0.00    +0.000 A 
ATOM     28  C   UNL     1       5.079   4.028  15.583  0.00  0.00    +0.000 A 
ATOM     29  C   UNL     1       6.395   4.482  15.477  0.00  0.00    +0.000 A 
ATOM     30  C   UNL     1       7.127   4.767  16.634  0.00  0.00    +0.000 A 
ATOM     31  C   UNL     1       6.542   4.589  17.893  0.00  0.00    +0.000 A 
BRANCH  29  32
ATOM     32  C   UNL     1       7.000   4.642  14.121  0.00  0.00    +0.000 C 
ATOM     33  N   UNL     1       8.029   5.540  13.954  0.00  0.00    +0.000 N 
ATOM     34  N   UNL     1       6.516   3.937  13.138  0.00  0.00    +0.000 NA
ATOM     35  H   UNL     1       7.914   6.411  14.456  0.00  0.00    +0.000 HD
ATOM     36  H   UNL     1       8.172   5.690  12.955  0.00  0.00    +0.000 HD
BRANCH  34  37
ATOM     37  O   UNL     1       7.178   4.229  11.937  0.00  0.00    +0.000 OA
ATOM     38  H   UNL     1       7.726   4.994  12.194  0.00  0.00    +0.000 HD
ENDBRANCH  34  37
ENDBRANCH  29  32
ENDBRANCH  25  26
ENDBRANCH  24  25
ENDBRANCH  23  24
ENDBRANCH  22  23
ENDBRANCH  21  22
ENDBRANCH  20  21
ENDBRANCH   3  20
TORSDOF 10
ENDMDL
MODEL 8
REMARK VINA RESULT:      -7.9      5.719      8.896
REMARK  Name = 
REMARK  11 active torsions:
REMARK  status: ('A' for Active; 'I' for Inactive)
REMARK    1  A    between atoms: C_1  and  N_2
REMARK    2  A    between atoms: C_9  and  C_10
REMARK    3  A    between atoms: N_12  and  C_13
REMARK    4  A    between atoms: C_13  and  C_14
REMARK    5  A    between atoms: C_14  and  C_15
REMARK    6  A    between atoms: C_15  and  C_16
REMARK    7  A    between atoms: C_16  and  C_17
REMARK    8  A    between atoms: C_17  and  O_18
REMARK    9  A    between atoms: O_18  and  C_19
REMARK   10  A    between atoms: C_22  and  C_23
REMARK   11  A    between atoms: N_25  and  O_26
REMARK                            x       y       z     vdW  Elec       q    Type
REMARK                         _______ _______ _______ _____ _____    ______ ____
ROOT
ATOM      1  C   UNL     1      -0.922  11.273  19.082  0.00  0.00    +0.000 A 
ATOM      2  C   UNL     1      -0.584  10.225  19.906  0.00  0.00    +0.000 A 
ATOM      3  N   UNL     1       0.575  10.563  20.561  0.00  0.00    +0.000 N 
ATOM      4  C   UNL     1       1.009  11.808  20.146  0.00  0.00    +0.000 A 
ATOM      5  C   UNL     1       2.138  12.566  20.501  0.00  0.00    +0.000 A 
ATOM      6  C   UNL     1       2.313  13.816  19.899  0.00  0.00    +0.000 A 
ATOM      7  C   UNL     1       1.390  14.304  18.980  0.00  0.00    +0.000 A 
ATOM      8  C   UNL     1       0.267  13.548  18.633  0.00  0.00    +0.000 A 
ATOM      9  C   UNL     1       0.070  12.280  19.217  0.00  0.00    +0.000 A 
ENDROOT
BRANCH   1  18
ATOM     10  C   UNL     1      -4.456  11.165  16.385  0.00  0.00    +0.000 C 
ATOM     11  N   UNL     1      -4.427  11.630  17.760  0.00  0.00    +0.000 N 
ATOM     12  C   UNL     1      -5.513  12.096  18.508  0.00  0.00    +0.000 C 
ATOM     13  S   UNL     1      -7.127  12.112  18.127  0.00  0.00    +0.000 S 
ATOM     14  N   UNL     1      -5.033  12.565  19.705  0.00  0.00    +0.000 N 
ATOM     15  C   UNL     1      -3.672  12.455  19.790  0.00  0.00    +0.000 C 
ATOM     16  O   UNL     1      -2.969  12.898  20.676  0.00  0.00    +0.000 OA
ATOM     17  C   UNL     1      -3.274  11.746  18.527  0.00  0.00    +0.000 C 
ATOM     18  C   UNL     1      -2.060  11.265  18.227  0.00  0.00    +0.000 C 
ATOM     19  H   UNL     1      -5.591  13.012  20.412  0.00  0.00    +0.000 HD
ENDBRANCH   1  18
BRANCH   3  20
ATOM     20  C   UNL     1       1.248   9.692  21.512  0.00  0.00    +0.000 C 
BRANCH  20  21
ATOM     21  C   UNL     1       0.902   8.212  21.343  0.00  0.00    +0.000 C 
BRANCH  21  22
ATOM     22  C   UNL     1       1.853   7.450  20.407  0.00  0.00    +0.000 C 
BRANCH  22  23
ATOM     23  C   UNL     1       1.658   5.928  20.458  0.00  0.00    +0.000 C 
BRANCH  23  24
ATOM     24  C   UNL     1       2.752   5.199  19.685  0.00  0.00    +0.000 C 
BRANCH  24  25
ATOM     25  O   UNL     1       3.850   6.066  19.406  0.00  0.00    +0.000 OA
BRANCH  25  26
ATOM     26  C   UNL     1       4.525   5.769  18.246  0.00  0.00    +0.000 A 
ATOM     27  C   UNL     1       5.519   6.565  17.661  0.00  0.00    +0.000 A 
ATOM     28  C   UNL     1       6.123   6.182  16.466  0.00  0.00    +0.000 A 
ATOM     29  C   UNL     1       5.752   4.986  15.847  0.00  0.00    +0.000 A 
ATOM     30  C   UNL     1       4.770   4.178  16.429  0.00  0.00    +0.000 A 
ATOM     31  C   UNL     1       4.157   4.573  17.623  0.00  0.00    +0.000 A 
BRANCH  29  32
ATOM     32  C   UNL     1       6.408   4.601  14.561  0.00  0.00    +0.000 C 
ATOM     33  N   UNL     1       7.547   5.266  14.171  0.00  0.00    +0.000 N 
ATOM     34  N   UNL     1       5.863   3.661  13.844  0.00  0.00    +0.000 NA
ATOM     35  H   UNL     1       7.533   6.264  14.341  0.00  0.00    +0.000 HD
ATOM     36  H   UNL     1       7.734   5.047  13.192  0.00  0.00    +0.000 HD
BRANCH  34  37
ATOM     37  O   UNL     1       6.588   3.447  12.662  0.00  0.00    +0.000 OA
ATOM     38  H   UNL     1       7.360   4.027  12.796  0.00  0.00    +0.000 HD
ENDBRANCH  34  37
ENDBRANCH  29  32
ENDBRANCH  25  26
ENDBRANCH  24  25
ENDBRANCH  23  24
ENDBRANCH  22  23
ENDBRANCH  21  22
ENDBRANCH  20  21
ENDBRANCH   3  20
TORSDOF 10
ENDMDL
MODEL 9
REMARK VINA RESULT:      -7.9      1.443      2.071
REMARK  Name = 
REMARK  11 active torsions:
REMARK  status: ('A' for Active; 'I' for Inactive)
REMARK    1  A    between atoms: C_1  and  N_2
REMARK    2  A    between atoms: C_9  and  C_10
REMARK    3  A    between atoms: N_12  and  C_13
REMARK    4  A    between atoms: C_13  and  C_14
REMARK    5  A    between atoms: C_14  and  C_15
REMARK    6  A    between atoms: C_15  and  C_16
REMARK    7  A    between atoms: C_16  and  C_17
REMARK    8  A    between atoms: C_17  and  O_18
REMARK    9  A    between atoms: O_18  and  C_19
REMARK   10  A    between atoms: C_22  and  C_23
REMARK   11  A    between atoms: N_25  and  O_26
REMARK                            x       y       z     vdW  Elec       q    Type
REMARK                         _______ _______ _______ _____ _____    ______ ____
ROOT
ATOM      1  C   UNL     1       2.395   6.327  19.873  0.00  0.00    +0.000 A 
ATOM      2  C   UNL     1       3.541   6.564  19.151  0.00  0.00    +0.000 A 
ATOM      3  N   UNL     1       3.847   5.418  18.459  0.00  0.00    +0.000 N 
ATOM      4  C   UNL     1       2.927   4.428  18.751  0.00  0.00    +0.000 A 
ATOM      5  C   UNL     1       2.825   3.095  18.319  0.00  0.00    +0.000 A 
ATOM      6  C   UNL     1       1.763   2.322  18.798  0.00  0.00    +0.000 A 
ATOM      7  C   UNL     1       0.824   2.858  19.671  0.00  0.00    +0.000 A 
ATOM      8  C   UNL     1       0.927   4.186  20.096  0.00  0.00    +0.000 A 
ATOM      9  C   UNL     1       1.994   4.986  19.637  0.00  0.00    +0.000 A 
ENDROOT
BRANCH   1  18
ATOM     10  C   UNL     1       0.577   9.312  22.622  0.00  0.00    +0.000 C 
ATOM     11  N   UNL     1       0.914   9.511  21.224  0.00  0.00    +0.000 N 
ATOM     12  C   UNL     1       0.766  10.692  20.488  0.00  0.00    +0.000 C 
ATOM     13  S   UNL     1       0.329  12.206  21.002  0.00  0.00    +0.000 S 
ATOM     14  N   UNL     1       1.069  10.415  19.178  0.00  0.00    +0.000 N 
ATOM     15  C   UNL     1       1.395   9.100  18.995  0.00  0.00    +0.000 C 
ATOM     16  O   UNL     1       1.587   8.549  17.929  0.00  0.00    +0.000 OA
ATOM     17  C   UNL     1       1.380   8.512  20.377  0.00  0.00    +0.000 C 
ATOM     18  C   UNL     1       1.794   7.289  20.733  0.00  0.00    +0.000 C 
ATOM     19  H   UNL     1       0.988  11.070  18.420  0.00  0.00    +0.000 HD
ENDBRANCH   1  18
BRANCH   3  20
ATOM     20  C   UNL     1       5.006   5.284  17.591  0.00  0.00    +0.000 C 
BRANCH  20  21
ATOM     21  C   UNL     1       6.222   4.663  18.279  0.00  0.00    +0.000 C 
BRANCH  21  22
ATOM     22  C   UNL     1       7.563   5.294  17.873  0.00  0.00    +0.000 C 
BRANCH  22  23
ATOM     23  C   UNL     1       7.816   6.653  18.542  0.00  0.00    +0.000 C 
BRANCH  23  24
ATOM     24  C   UNL     1       8.039   7.751  17.506  0.00  0.00    +0.000 C 
BRANCH  24  25
ATOM     25  O   UNL     1       7.360   8.951  17.875  0.00  0.00    +0.000 OA
BRANCH  25  26
ATOM     26  C   UNL     1       8.190  10.026  18.094  0.00  0.00    +0.000 A 
ATOM     27  C   UNL     1       8.078  11.275  17.469  0.00  0.00    +0.000 A 
ATOM     28  C   UNL     1       8.992  12.290  17.744  0.00  0.00    +0.000 A 
ATOM     29  C   UNL     1      10.020  12.074  18.663  0.00  0.00    +0.000 A 
ATOM     30  C   UNL     1      10.134  10.835  19.301  0.00  0.00    +0.000 A 
ATOM     31  C   UNL     1       9.222   9.814  19.012  0.00  0.00    +0.000 A 
BRANCH  29  32
ATOM     32  C   UNL     1      10.993  13.176  18.935  0.00  0.00    +0.000 C 
ATOM     33  N   UNL     1      11.362  13.431  20.236  0.00  0.00    +0.000 N 
ATOM     34  N   UNL     1      11.441  13.870  17.928  0.00  0.00    +0.000 NA
ATOM     35  H   UNL     1      10.606  13.376  20.906  0.00  0.00    +0.000 HD
ATOM     36  H   UNL     1      11.839  14.332  20.269  0.00  0.00    +0.000 HD
BRANCH  34  37
ATOM     37  O   UNL     1      12.317  14.876  18.363  0.00  0.00    +0.000 OA
ATOM     38  H   UNL     1      11.846  15.226  19.142  0.00  0.00    +0.000 HD
ENDBRANCH  34  37
ENDBRANCH  29  32
ENDBRANCH  25  26
ENDBRANCH  24  25
ENDBRANCH  23  24
ENDBRANCH  22  23
ENDBRANCH  21  22
ENDBRANCH  20  21
ENDBRANCH   3  20
TORSDOF 10
ENDMDL
