MODEL 1
REMARK VINA RESULT:      -8.6      0.000      0.000
REMARK  Name = 
REMARK  9 active torsions:
REMARK  status: ('A' for Active; 'I' for Inactive)
REMARK    1  A    between atoms: C_1  and  C_2
REMARK    2  A    between atoms: C_4  and  C_5
REMARK    3  A    between atoms: C_7  and  C_8
REMARK    4  A    between atoms: N_10  and  C_11
REMARK    5  A    between atoms: C_11  and  C_12
REMARK    6  A    between atoms: C_12  and  O_14
REMARK    7  A    between atoms: O_14  and  C_15
REMARK    8  A    between atoms: C_15  and  C_16
REMARK    9  A    between atoms: N_18  and  C_19
REMARK                            x       y       z     vdW  Elec       q    Type
REMARK                         _______ _______ _______ _____ _____    ______ ____
ROOT
ATOM      1  O   UNL     1       0.821   3.786  19.605  0.00  0.00    +0.000 OA
ENDROOT
BRANCH   1   2
ATOM      2  C   UNL     1       1.410   3.525  20.795  0.00  0.00    +0.000 C 
ATOM      3  O   UNL     1       1.205   2.535  21.494  0.00  0.00    +0.000 OA
BRANCH   2   4
ATOM      4  C   UNL     1       2.394   4.625  21.139  0.00  0.00    +0.000 C 
BRANCH   4   7
ATOM      5  C   UNL     1       1.953   6.852  20.202  0.00  0.00    +0.000 C 
ATOM      6  O   UNL     1       2.570   6.577  19.177  0.00  0.00    +0.000 OA
ATOM      7  N   UNL     1       1.786   5.936  21.223  0.00  0.00    +0.000 N 
ATOM      8  H   UNL     1       1.173   6.114  22.000  0.00  0.00    +0.000 HD
BRANCH   5  15
ATOM      9  C   UNL     1       0.863  11.503  18.539  0.00  0.00    +0.000 C 
ATOM     10  C   UNL     1       0.813  10.463  19.618  0.00  0.00    +0.000 A 
ATOM     11  C   UNL     1       0.174  10.717  20.834  0.00  0.00    +0.000 A 
ATOM     12  C   UNL     1       0.124   9.739  21.833  0.00  0.00    +0.000 A 
ATOM     13  C   UNL     1      -0.570  10.011  23.138  0.00  0.00    +0.000 C 
ATOM     14  C   UNL     1       0.723   8.496  21.601  0.00  0.00    +0.000 A 
ATOM     15  C   UNL     1       1.369   8.215  20.385  0.00  0.00    +0.000 A 
ATOM     16  C   UNL     1       1.405   9.207  19.397  0.00  0.00    +0.000 A 
ENDBRANCH   5  15
ENDBRANCH   4   7
ENDBRANCH   2   4
ENDBRANCH   1   2
BRANCH   1  17
ATOM     17  C   UNL     1       0.906   2.761  18.625  0.00  0.00    +0.000 C 
BRANCH  17  18
ATOM     18  C   UNL     1       2.364   2.570  18.243  0.00  0.00    +0.000 C 
ATOM     19  O   UNL     1       2.899   1.464  18.372  0.00  0.00    +0.000 OA
ATOM     20  N   UNL     1       3.065   3.692  17.793  0.00  0.00    +0.000 N 
ATOM     21  H   UNL     1       2.665   4.606  17.986  0.00  0.00    +0.000 HD
BRANCH  20  22
ATOM     22  C   UNL     1       4.523   3.572  17.761  0.00  0.00    +0.000 C 
ATOM     23  C   UNL     1       5.085   3.919  19.153  0.00  0.00    +0.000 C 
ATOM     24  C   UNL     1       5.593   5.353  19.213  0.00  0.00    +0.000 C 
ATOM     25  C   UNL     1       6.774   5.485  18.262  0.00  0.00    +0.000 C 
ATOM     26  C   UNL     1       6.408   5.045  16.867  0.00  0.00    +0.000 A 
ATOM     27  C   UNL     1       7.300   5.352  15.826  0.00  0.00    +0.000 A 
ATOM     28  C   UNL     1       7.034   4.940  14.526  0.00  0.00    +0.000 A 
ATOM     29  C   UNL     1       5.857   4.254  14.247  0.00  0.00    +0.000 A 
ATOM     30  C   UNL     1       4.971   3.917  15.281  0.00  0.00    +0.000 A 
ATOM     31  C   UNL     1       5.257   4.260  16.613  0.00  0.00    +0.000 A 
ENDBRANCH  20  22
ENDBRANCH  17  18
ENDBRANCH   1  17
TORSDOF 7
ENDMDL
MODEL 2
REMARK VINA RESULT:      -8.5      1.497      6.580
REMARK  Name = 
REMARK  9 active torsions:
REMARK  status: ('A' for Active; 'I' for Inactive)
REMARK    1  A    between atoms: C_1  and  C_2
REMARK    2  A    between atoms: C_4  and  C_5
REMARK    3  A    between atoms: C_7  and  C_8
REMARK    4  A    between atoms: N_10  and  C_11
REMARK    5  A    between atoms: C_11  and  C_12
REMARK    6  A    between atoms: C_12  and  O_14
REMARK    7  A    between atoms: O_14  and  C_15
REMARK    8  A    between atoms: C_15  and  C_16
REMARK    9  A    between atoms: N_18  and  C_19
REMARK                            x       y       z     vdW  Elec       q    Type
REMARK                         _______ _______ _______ _____ _____    ______ ____
ROOT
ATOM      1  O   UNL     1       2.227   2.265  21.027  0.00  0.00    +0.000 OA
ENDROOT
BRANCH   1   2
ATOM      2  C   UNL     1       2.915   2.077  19.878  0.00  0.00    +0.000 C 
ATOM      3  O   UNL     1       2.419   1.888  18.769  0.00  0.00    +0.000 OA
BRANCH   2   4
ATOM      4  C   UNL     1       4.405   2.160  20.145  0.00  0.00    +0.000 C 
BRANCH   4   7
ATOM      5  C   UNL     1       5.287   4.233  19.166  0.00  0.00    +0.000 C 
ATOM      6  O   UNL     1       4.861   4.896  20.108  0.00  0.00    +0.000 OA
ATOM      7  N   UNL     1       5.136   2.861  19.110  0.00  0.00    +0.000 N 
ATOM      8  H   UNL     1       5.596   2.305  18.410  0.00  0.00    +0.000 HD
BRANCH   5  15
ATOM      9  C   UNL     1       6.613   4.530  14.294  0.00  0.00    +0.000 C 
ATOM     10  C   UNL     1       6.631   5.094  15.683  0.00  0.00    +0.000 A 
ATOM     11  C   UNL     1       7.269   6.306  15.960  0.00  0.00    +0.000 A 
ATOM     12  C   UNL     1       7.275   6.830  17.257  0.00  0.00    +0.000 A 
ATOM     13  C   UNL     1       7.956   8.137  17.553  0.00  0.00    +0.000 C 
ATOM     14  C   UNL     1       6.631   6.126  18.280  0.00  0.00    +0.000 A 
ATOM     15  C   UNL     1       5.981   4.906  18.026  0.00  0.00    +0.000 A 
ATOM     16  C   UNL     1       5.984   4.401  16.721  0.00  0.00    +0.000 A 
ENDBRANCH   5  15
ENDBRANCH   4   7
ENDBRANCH   2   4
ENDBRANCH   1   2
BRANCH   1  17
ATOM     17  C   UNL     1       2.392   3.528  21.658  0.00  0.00    +0.000 C 
BRANCH  17  18
ATOM     18  C   UNL     1       1.599   4.567  20.882  0.00  0.00    +0.000 C 
ATOM     19  O   UNL     1       0.462   4.306  20.480  0.00  0.00    +0.000 OA
ATOM     20  N   UNL     1       2.225   5.788  20.615  0.00  0.00    +0.000 N 
ATOM     21  H   UNL     1       3.237   5.830  20.711  0.00  0.00    +0.000 HD
BRANCH  20  22
ATOM     22  C   UNL     1       1.597   6.626  19.594  0.00  0.00    +0.000 C 
ATOM     23  C   UNL     1       2.239   6.318  18.227  0.00  0.00    +0.000 C 
ATOM     24  C   UNL     1       3.300   7.346  17.862  0.00  0.00    +0.000 C 
ATOM     25  C   UNL     1       2.623   8.697  17.688  0.00  0.00    +0.000 C 
ATOM     26  C   UNL     1       1.831   9.077  18.914  0.00  0.00    +0.000 A 
ATOM     27  C   UNL     1       1.369  10.399  19.015  0.00  0.00    +0.000 A 
ATOM     28  C   UNL     1       0.604  10.797  20.104  0.00  0.00    +0.000 A 
ATOM     29  C   UNL     1       0.326   9.889  21.121  0.00  0.00    +0.000 A 
ATOM     30  C   UNL     1       0.759   8.558  21.020  0.00  0.00    +0.000 A 
ATOM     31  C   UNL     1       1.471   8.118  19.892  0.00  0.00    +0.000 A 
ENDBRANCH  20  22
ENDBRANCH  17  18
ENDBRANCH   1  17
TORSDOF 7
ENDMDL
MODEL 3
REMARK VINA RESULT:      -8.1      1.415      7.717
REMARK  Name = 
REMARK  9 active torsions:
REMARK  status: ('A' for Active; 'I' for Inactive)
REMARK    1  A    between atoms: C_1  and  C_2
REMARK    2  A    between atoms: C_4  and  C_5
REMARK    3  A    between atoms: C_7  and  C_8
REMARK    4  A    between atoms: N_10  and  C_11
REMARK    5  A    between atoms: C_11  and  C_12
REMARK    6  A    between atoms: C_12  and  O_14
REMARK    7  A    between atoms: O_14  and  C_15
REMARK    8  A    between atoms: C_15  and  C_16
REMARK    9  A    between atoms: N_18  and  C_19
REMARK                            x       y       z     vdW  Elec       q    Type
REMARK                         _______ _______ _______ _____ _____    ______ ____
ROOT
ATOM      1  O   UNL     1       2.638   4.749  20.903  0.00  0.00    +0.000 OA
ENDROOT
BRANCH   1   2
ATOM      2  C   UNL     1       2.628   3.468  21.339  0.00  0.00    +0.000 C 
ATOM      3  O   UNL     1       2.116   3.071  22.385  0.00  0.00    +0.000 OA
BRANCH   2   4
ATOM      4  C   UNL     1       3.321   2.571  20.334  0.00  0.00    +0.000 C 
BRANCH   4   7
ATOM      5  C   UNL     1       3.956   3.427  18.120  0.00  0.00    +0.000 C 
ATOM      6  O   UNL     1       2.910   3.014  17.627  0.00  0.00    +0.000 OA
ATOM      7  N   UNL     1       4.237   3.281  19.465  0.00  0.00    +0.000 N 
ATOM      8  H   UNL     1       5.027   3.733  19.894  0.00  0.00    +0.000 HD
BRANCH   5  15
ATOM      9  C   UNL     1       6.383   4.050  13.727  0.00  0.00    +0.000 C 
ATOM     10  C   UNL     1       6.165   4.440  15.159  0.00  0.00    +0.000 A 
ATOM     11  C   UNL     1       6.889   5.484  15.739  0.00  0.00    +0.000 A 
ATOM     12  C   UNL     1       6.674   5.847  17.073  0.00  0.00    +0.000 A 
ATOM     13  C   UNL     1       7.448   6.975  17.695  0.00  0.00    +0.000 C 
ATOM     14  C   UNL     1       5.721   5.150  17.825  0.00  0.00    +0.000 A 
ATOM     15  C   UNL     1       4.979   4.098  17.262  0.00  0.00    +0.000 A 
ATOM     16  C   UNL     1       5.207   3.752  15.924  0.00  0.00    +0.000 A 
ENDBRANCH   5  15
ENDBRANCH   4   7
ENDBRANCH   2   4
ENDBRANCH   1   2
BRANCH   1  17
ATOM     17  C   UNL     1       1.386   5.280  20.491  0.00  0.00    +0.000 C 
BRANCH  17  18
ATOM     18  C   UNL     1       1.501   6.793  20.410  0.00  0.00    +0.000 C 
ATOM     19  O   UNL     1       2.498   7.313  19.899  0.00  0.00    +0.000 OA
ATOM     20  N   UNL     1       0.468   7.549  20.970  0.00  0.00    +0.000 N 
ATOM     21  H   UNL     1      -0.160   7.082  21.619  0.00  0.00    +0.000 HD
BRANCH  20  22
ATOM     22  C   UNL     1       0.751   8.968  21.189  0.00  0.00    +0.000 C 
ATOM     23  C   UNL     1       0.854   9.230  22.705  0.00  0.00    +0.000 C 
ATOM     24  C   UNL     1      -0.441   9.802  23.264  0.00  0.00    +0.000 C 
ATOM     25  C   UNL     1      -0.673  11.169  22.638  0.00  0.00    +0.000 C 
ATOM     26  C   UNL     1      -0.663  11.093  21.132  0.00  0.00    +0.000 A 
ATOM     27  C   UNL     1      -1.122  12.210  20.415  0.00  0.00    +0.000 A 
ATOM     28  C   UNL     1      -1.101  12.212  19.025  0.00  0.00    +0.000 A 
ATOM     29  C   UNL     1      -0.660  11.084  18.340  0.00  0.00    +0.000 A 
ATOM     30  C   UNL     1      -0.174   9.972  19.044  0.00  0.00    +0.000 A 
ATOM     31  C   UNL     1      -0.119   9.979  20.448  0.00  0.00    +0.000 A 
ENDBRANCH  20  22
ENDBRANCH  17  18
ENDBRANCH   1  17
TORSDOF 7
ENDMDL
MODEL 4
REMARK VINA RESULT:      -8.1      3.517      5.414
REMARK  Name = 
REMARK  9 active torsions:
REMARK  status: ('A' for Active; 'I' for Inactive)
REMARK    1  A    between atoms: C_1  and  C_2
REMARK    2  A    between atoms: C_4  and  C_5
REMARK    3  A    between atoms: C_7  and  C_8
REMARK    4  A    between atoms: N_10  and  C_11
REMARK    5  A    between atoms: C_11  and  C_12
REMARK    6  A    between atoms: C_12  and  O_14
REMARK    7  A    between atoms: O_14  and  C_15
REMARK    8  A    between atoms: C_15  and  C_16
REMARK    9  A    between atoms: N_18  and  C_19
REMARK                            x       y       z     vdW  Elec       q    Type
REMARK                         _______ _______ _______ _____ _____    ______ ____
ROOT
ATOM      1  O   UNL     1       1.304   9.615  20.908  0.00  0.00    +0.000 OA
ENDROOT
BRANCH   1   2
ATOM      2  C   UNL     1       0.593  10.193  21.904  0.00  0.00    +0.000 C 
ATOM      3  O   UNL     1       0.475   9.756  23.047  0.00  0.00    +0.000 OA
BRANCH   2   4
ATOM      4  C   UNL     1      -0.024  11.489  21.417  0.00  0.00    +0.000 C 
BRANCH   4   7
ATOM      5  C   UNL     1      -1.013  11.531  19.169  0.00  0.00    +0.000 C 
ATOM      6  O   UNL     1       0.058  11.866  18.670  0.00  0.00    +0.000 OA
ATOM      7  N   UNL     1      -1.146  11.290  20.523  0.00  0.00    +0.000 N 
ATOM      8  H   UNL     1      -1.983  10.891  20.911  0.00  0.00    +0.000 HD
BRANCH   5  15
ATOM      9  C   UNL     1      -5.957  12.144  18.294  0.00  0.00    +0.000 C 
ATOM     10  C   UNL     1      -4.605  11.675  17.845  0.00  0.00    +0.000 A 
ATOM     11  C   UNL     1      -4.421  11.118  16.577  0.00  0.00    +0.000 A 
ATOM     12  C   UNL     1      -3.156  10.690  16.162  0.00  0.00    +0.000 A 
ATOM     13  C   UNL     1      -2.957  10.097  14.795  0.00  0.00    +0.000 C 
ATOM     14  C   UNL     1      -2.069  10.828  17.033  0.00  0.00    +0.000 A 
ATOM     15  C   UNL     1      -2.229  11.388  18.312  0.00  0.00    +0.000 A 
ATOM     16  C   UNL     1      -3.503  11.812  18.707  0.00  0.00    +0.000 A 
ENDBRANCH   5  15
ENDBRANCH   4   7
ENDBRANCH   2   4
ENDBRANCH   1   2
BRANCH   1  17
ATOM     17  C   UNL     1       1.526   8.217  21.026  0.00  0.00    +0.000 C 
BRANCH  17  18
ATOM     18  C   UNL     1       1.914   7.668  19.663  0.00  0.00    +0.000 C 
ATOM     19  O   UNL     1       1.791   8.369  18.655  0.00  0.00    +0.000 OA
ATOM     20  N   UNL     1       2.362   6.346  19.605  0.00  0.00    +0.000 N 
ATOM     21  H   UNL     1       2.165   5.745  20.401  0.00  0.00    +0.000 HD
BRANCH  20  22
ATOM     22  C   UNL     1       2.400   5.734  18.276  0.00  0.00    +0.000 C 
ATOM     23  C   UNL     1       1.548   4.450  18.291  0.00  0.00    +0.000 C 
ATOM     24  C   UNL     1       2.410   3.207  18.461  0.00  0.00    +0.000 C 
ATOM     25  C   UNL     1       3.309   3.074  17.240  0.00  0.00    +0.000 C 
ATOM     26  C   UNL     1       4.118   4.327  17.015  0.00  0.00    +0.000 A 
ATOM     27  C   UNL     1       5.178   4.268  16.096  0.00  0.00    +0.000 A 
ATOM     28  C   UNL     1       5.935   5.399  15.820  0.00  0.00    +0.000 A 
ATOM     29  C   UNL     1       5.665   6.590  16.488  0.00  0.00    +0.000 A 
ATOM     30  C   UNL     1       4.592   6.670  17.388  0.00  0.00    +0.000 A 
ATOM     31  C   UNL     1       3.769   5.556  17.625  0.00  0.00    +0.000 A 
ENDBRANCH  20  22
ENDBRANCH  17  18
ENDBRANCH   1  17
TORSDOF 7
ENDMDL
MODEL 5
REMARK VINA RESULT:      -8.1      1.198      7.695
REMARK  Name = 
REMARK  9 active torsions:
REMARK  status: ('A' for Active; 'I' for Inactive)
REMARK    1  A    between atoms: C_1  and  C_2
REMARK    2  A    between atoms: C_4  and  C_5
REMARK    3  A    between atoms: C_7  and  C_8
REMARK    4  A    between atoms: N_10  and  C_11
REMARK    5  A    between atoms: C_11  and  C_12
REMARK    6  A    between atoms: C_12  and  O_14
REMARK    7  A    between atoms: O_14  and  C_15
REMARK    8  A    between atoms: C_15  and  C_16
REMARK    9  A    between atoms: N_18  and  C_19
REMARK                            x       y       z     vdW  Elec       q    Type
REMARK                         _______ _______ _______ _____ _____    ______ ____
ROOT
ATOM      1  O   UNL     1       1.220   4.688  19.671  0.00  0.00    +0.000 OA
ENDROOT
BRANCH   1   2
ATOM      2  C   UNL     1       1.199   3.336  19.733  0.00  0.00    +0.000 C 
ATOM      3  O   UNL     1       0.961   2.669  20.739  0.00  0.00    +0.000 OA
BRANCH   2   4
ATOM      4  C   UNL     1       1.485   2.749  18.366  0.00  0.00    +0.000 C 
BRANCH   4   7
ATOM      5  C   UNL     1       3.897   3.189  18.215  0.00  0.00    +0.000 C 
ATOM      6  O   UNL     1       4.117   2.488  19.199  0.00  0.00    +0.000 OA
ATOM      7  N   UNL     1       2.623   3.355  17.707  0.00  0.00    +0.000 N 
ATOM      8  H   UNL     1       2.458   3.817  16.829  0.00  0.00    +0.000 HD
BRANCH   5  15
ATOM      9  C   UNL     1       6.542   4.456  14.095  0.00  0.00    +0.000 C 
ATOM     10  C   UNL     1       6.313   4.553  15.574  0.00  0.00    +0.000 A 
ATOM     11  C   UNL     1       7.123   5.360  16.376  0.00  0.00    +0.000 A 
ATOM     12  C   UNL     1       6.899   5.451  17.754  0.00  0.00    +0.000 A 
ATOM     13  C   UNL     1       7.766   6.324  18.616  0.00  0.00    +0.000 C 
ATOM     14  C   UNL     1       5.848   4.722  18.324  0.00  0.00    +0.000 A 
ATOM     15  C   UNL     1       5.018   3.907  17.536  0.00  0.00    +0.000 A 
ATOM     16  C   UNL     1       5.258   3.832  16.159  0.00  0.00    +0.000 A 
ENDBRANCH   5  15
ENDBRANCH   4   7
ENDBRANCH   2   4
ENDBRANCH   1   2
BRANCH   1  17
ATOM     17  C   UNL     1       1.762   5.359  20.800  0.00  0.00    +0.000 C 
BRANCH  17  18
ATOM     18  C   UNL     1       1.663   6.858  20.570  0.00  0.00    +0.000 C 
ATOM     19  O   UNL     1       2.468   7.425  19.826  0.00  0.00    +0.000 OA
ATOM     20  N   UNL     1       0.667   7.552  21.263  0.00  0.00    +0.000 N 
ATOM     21  H   UNL     1       0.240   7.092  22.063  0.00  0.00    +0.000 HD
BRANCH  20  22
ATOM     22  C   UNL     1       0.801   9.009  21.300  0.00  0.00    +0.000 C 
ATOM     23  C   UNL     1       0.863   9.469  22.769  0.00  0.00    +0.000 C 
ATOM     24  C   UNL     1      -0.489   9.970  23.257  0.00  0.00    +0.000 C 
ATOM     25  C   UNL     1      -0.854  11.217  22.464  0.00  0.00    +0.000 C 
ATOM     26  C   UNL     1      -0.823  10.953  20.980  0.00  0.00    +0.000 A 
ATOM     27  C   UNL     1      -1.387  11.917  20.129  0.00  0.00    +0.000 A 
ATOM     28  C   UNL     1      -1.355  11.746  18.751  0.00  0.00    +0.000 A 
ATOM     29  C   UNL     1      -0.795  10.592  18.212  0.00  0.00    +0.000 A 
ATOM     30  C   UNL     1      -0.203   9.634  19.049  0.00  0.00    +0.000 A 
ATOM     31  C   UNL     1      -0.161   9.824  20.441  0.00  0.00    +0.000 A 
ENDBRANCH  20  22
ENDBRANCH  17  18
ENDBRANCH   1  17
TORSDOF 7
ENDMDL
MODEL 6
REMARK VINA RESULT:      -8.0      1.290      7.734
REMARK  Name = 
REMARK  9 active torsions:
REMARK  status: ('A' for Active; 'I' for Inactive)
REMARK    1  A    between atoms: C_1  and  C_2
REMARK    2  A    between atoms: C_4  and  C_5
REMARK    3  A    between atoms: C_7  and  C_8
REMARK    4  A    between atoms: N_10  and  C_11
REMARK    5  A    between atoms: C_11  and  C_12
REMARK    6  A    between atoms: C_12  and  O_14
REMARK    7  A    between atoms: O_14  and  C_15
REMARK    8  A    between atoms: C_15  and  C_16
REMARK    9  A    between atoms: N_18  and  C_19
REMARK                            x       y       z     vdW  Elec       q    Type
REMARK                         _______ _______ _______ _____ _____    ______ ____
ROOT
ATOM      1  O   UNL     1       1.722   4.685  19.456  0.00  0.00    +0.000 OA
ENDROOT
BRANCH   1   2
ATOM      2  C   UNL     1       1.328   3.392  19.508  0.00  0.00    +0.000 C 
ATOM      3  O   UNL     1       0.372   2.959  20.149  0.00  0.00    +0.000 OA
BRANCH   2   4
ATOM      4  C   UNL     1       2.225   2.540  18.631  0.00  0.00    +0.000 C 
BRANCH   4   7
ATOM      5  C   UNL     1       4.481   3.502  18.496  0.00  0.00    +0.000 C 
ATOM      6  O   UNL     1       4.792   3.003  19.574  0.00  0.00    +0.000 OA
ATOM      7  N   UNL     1       3.236   3.304  17.930  0.00  0.00    +0.000 N 
ATOM      8  H   UNL     1       3.026   3.600  16.993  0.00  0.00    +0.000 HD
BRANCH   5  15
ATOM      9  C   UNL     1       7.967   7.163  18.334  0.00  0.00    +0.000 C 
ATOM     10  C   UNL     1       7.146   6.118  17.640  0.00  0.00    +0.000 A 
ATOM     11  C   UNL     1       7.290   5.881  16.270  0.00  0.00    +0.000 A 
ATOM     12  C   UNL     1       6.526   4.899  15.631  0.00  0.00    +0.000 A 
ATOM     13  C   UNL     1       6.686   4.641  14.159  0.00  0.00    +0.000 C 
ATOM     14  C   UNL     1       5.612   4.150  16.381  0.00  0.00    +0.000 A 
ATOM     15  C   UNL     1       5.452   4.367  17.760  0.00  0.00    +0.000 A 
ATOM     16  C   UNL     1       6.228   5.354  18.381  0.00  0.00    +0.000 A 
ENDBRANCH   5  15
ENDBRANCH   4   7
ENDBRANCH   2   4
ENDBRANCH   1   2
BRANCH   1  17
ATOM     17  C   UNL     1       1.874   5.345  20.705  0.00  0.00    +0.000 C 
BRANCH  17  18
ATOM     18  C   UNL     1       1.756   6.844  20.482  0.00  0.00    +0.000 C 
ATOM     19  O   UNL     1       2.547   7.423  19.731  0.00  0.00    +0.000 OA
ATOM     20  N   UNL     1       0.762   7.524  21.189  0.00  0.00    +0.000 N 
ATOM     21  H   UNL     1       0.349   7.056  21.992  0.00  0.00    +0.000 HD
BRANCH  20  22
ATOM     22  C   UNL     1       0.880   8.982  21.231  0.00  0.00    +0.000 C 
ATOM     23  C   UNL     1       0.987   9.434  22.700  0.00  0.00    +0.000 C 
ATOM     24  C   UNL     1      -0.353   9.917  23.237  0.00  0.00    +0.000 C 
ATOM     25  C   UNL     1      -0.760  11.164  22.465  0.00  0.00    +0.000 C 
ATOM     26  C   UNL     1      -0.777  10.909  20.979  0.00  0.00    +0.000 A 
ATOM     27  C   UNL     1      -1.381  11.871  20.155  0.00  0.00    +0.000 A 
ATOM     28  C   UNL     1      -1.394  11.709  18.775  0.00  0.00    +0.000 A 
ATOM     29  C   UNL     1      -0.839  10.565  18.210  0.00  0.00    +0.000 A 
ATOM     30  C   UNL     1      -0.208   9.609  19.020  0.00  0.00    +0.000 A 
ATOM     31  C   UNL     1      -0.121   9.791  20.410  0.00  0.00    +0.000 A 
ENDBRANCH  20  22
ENDBRANCH  17  18
ENDBRANCH   1  17
TORSDOF 7
ENDMDL
MODEL 7
REMARK VINA RESULT:      -8.0      1.443      7.837
REMARK  Name = 
REMARK  9 active torsions:
REMARK  status: ('A' for Active; 'I' for Inactive)
REMARK    1  A    between atoms: C_1  and  C_2
REMARK    2  A    between atoms: C_4  and  C_5
REMARK    3  A    between atoms: C_7  and  C_8
REMARK    4  A    between atoms: N_10  and  C_11
REMARK    5  A    between atoms: C_11  and  C_12
REMARK    6  A    between atoms: C_12  and  O_14
REMARK    7  A    between atoms: O_14  and  C_15
REMARK    8  A    between atoms: C_15  and  C_16
REMARK    9  A    between atoms: N_18  and  C_19
REMARK                            x       y       z     vdW  Elec       q    Type
REMARK                         _______ _______ _______ _____ _____    ______ ____
ROOT
ATOM      1  O   UNL     1       2.522   4.609  20.585  0.00  0.00    +0.000 OA
ENDROOT
BRANCH   1   2
ATOM      2  C   UNL     1       2.666   3.383  21.139  0.00  0.00    +0.000 C 
ATOM      3  O   UNL     1       2.085   2.978  22.144  0.00  0.00    +0.000 OA
BRANCH   2   4
ATOM      4  C   UNL     1       3.637   2.554  20.322  0.00  0.00    +0.000 C 
BRANCH   4   7
ATOM      5  C   UNL     1       4.193   3.442  18.100  0.00  0.00    +0.000 C 
ATOM      6  O   UNL     1       3.204   2.909  17.605  0.00  0.00    +0.000 OA
ATOM      7  N   UNL     1       4.477   3.348  19.449  0.00  0.00    +0.000 N 
ATOM      8  H   UNL     1       5.209   3.889  19.876  0.00  0.00    +0.000 HD
BRANCH   5  15
ATOM      9  C   UNL     1       7.586   7.122  17.373  0.00  0.00    +0.000 C 
ATOM     10  C   UNL     1       6.793   5.962  16.849  0.00  0.00    +0.000 A 
ATOM     11  C   UNL     1       6.947   5.522  15.532  0.00  0.00    +0.000 A 
ATOM     12  C   UNL     1       6.210   4.434  15.052  0.00  0.00    +0.000 A 
ATOM     13  C   UNL     1       6.380   3.957  13.637  0.00  0.00    +0.000 C 
ATOM     14  C   UNL     1       5.313   3.786  15.909  0.00  0.00    +0.000 A 
ATOM     15  C   UNL     1       5.144   4.208  17.239  0.00  0.00    +0.000 A 
ATOM     16  C   UNL     1       5.893   5.298  17.700  0.00  0.00    +0.000 A 
ENDBRANCH   5  15
ENDBRANCH   4   7
ENDBRANCH   2   4
ENDBRANCH   1   2
BRANCH   1  17
ATOM     17  C   UNL     1       1.256   5.229  20.757  0.00  0.00    +0.000 C 
BRANCH  17  18
ATOM     18  C   UNL     1       1.420   6.730  20.579  0.00  0.00    +0.000 C 
ATOM     19  O   UNL     1       2.472   7.189  20.123  0.00  0.00    +0.000 OA
ATOM     20  N   UNL     1       0.364   7.547  20.991  0.00  0.00    +0.000 N 
ATOM     21  H   UNL     1      -0.331   7.142  21.613  0.00  0.00    +0.000 HD
BRANCH  20  22
ATOM     22  C   UNL     1       0.666   8.971  21.133  0.00  0.00    +0.000 C 
ATOM     23  C   UNL     1       0.832   9.301  22.629  0.00  0.00    +0.000 C 
ATOM     24  C   UNL     1      -0.435   9.910  23.214  0.00  0.00    +0.000 C 
ATOM     25  C   UNL     1      -0.682  11.249  22.535  0.00  0.00    +0.000 C 
ATOM     26  C   UNL     1      -0.734  11.105  21.035  0.00  0.00    +0.000 A 
ATOM     27  C   UNL     1      -1.213  12.192  20.287  0.00  0.00    +0.000 A 
ATOM     28  C   UNL     1      -1.249  12.130  18.899  0.00  0.00    +0.000 A 
ATOM     29  C   UNL     1      -0.845  10.969  18.249  0.00  0.00    +0.000 A 
ATOM     30  C   UNL     1      -0.339   9.886  18.983  0.00  0.00    +0.000 A 
ATOM     31  C   UNL     1      -0.226   9.956  20.382  0.00  0.00    +0.000 A 
ENDBRANCH  20  22
ENDBRANCH  17  18
ENDBRANCH   1  17
TORSDOF 7
ENDMDL
MODEL 8
REMARK VINA RESULT:      -7.9      4.967      6.831
REMARK  Name = 
REMARK  9 active torsions:
REMARK  status: ('A' for Active; 'I' for Inactive)
REMARK    1  A    between atoms: C_1  and  C_2
REMARK    2  A    between atoms: C_4  and  C_5
REMARK    3  A    between atoms: C_7  and  C_8
REMARK    4  A    between atoms: N_10  and  C_11
REMARK    5  A    between atoms: C_11  and  C_12
REMARK    6  A    between atoms: C_12  and  O_14
REMARK    7  A    between atoms: O_14  and  C_15
REMARK    8  A    between atoms: C_15  and  C_16
REMARK    9  A    between atoms: N_18  and  C_19
REMARK                            x       y       z     vdW  Elec       q    Type
REMARK                         _______ _______ _______ _____ _____    ______ ____
ROOT
ATOM      1  O   UNL     1       0.298   9.733  18.827  0.00  0.00    +0.000 OA
ENDROOT
BRANCH   1   2
ATOM      2  C   UNL     1      -0.466  10.761  18.391  0.00  0.00    +0.000 C 
ATOM      3  O   UNL     1      -0.251  11.954  18.600  0.00  0.00    +0.000 OA
BRANCH   2   4
ATOM      4  C   UNL     1      -1.627  10.234  17.572  0.00  0.00    +0.000 C 
BRANCH   4   7
ATOM      5  C   UNL     1      -3.949  10.914  17.147  0.00  0.00    +0.000 C 
ATOM      6  O   UNL     1      -3.832  10.677  15.948  0.00  0.00    +0.000 OA
ATOM      7  N   UNL     1      -2.918  10.696  18.040  0.00  0.00    +0.000 N 
ATOM      8  H   UNL     1      -3.053  10.763  19.034  0.00  0.00    +0.000 HD
BRANCH   5  15
ATOM      9  C   UNL     1      -7.716  10.993  20.522  0.00  0.00    +0.000 C 
ATOM     10  C   UNL     1      -7.058  11.549  19.294  0.00  0.00    +0.000 A 
ATOM     11  C   UNL     1      -7.601  12.646  18.621  0.00  0.00    +0.000 A 
ATOM     12  C   UNL     1      -6.977  13.164  17.481  0.00  0.00    +0.000 A 
ATOM     13  C   UNL     1      -7.557  14.349  16.760  0.00  0.00    +0.000 C 
ATOM     14  C   UNL     1      -5.796  12.570  17.020  0.00  0.00    +0.000 A 
ATOM     15  C   UNL     1      -5.230  11.468  17.682  0.00  0.00    +0.000 A 
ATOM     16  C   UNL     1      -5.869  10.967  18.823  0.00  0.00    +0.000 A 
ENDBRANCH   5  15
ENDBRANCH   4   7
ENDBRANCH   2   4
ENDBRANCH   1   2
BRANCH   1  17
ATOM     17  C   UNL     1       1.574   9.598  18.218  0.00  0.00    +0.000 C 
BRANCH  17  18
ATOM     18  C   UNL     1       2.144   8.235  18.577  0.00  0.00    +0.000 C 
ATOM     19  O   UNL     1       2.106   7.836  19.745  0.00  0.00    +0.000 OA
ATOM     20  N   UNL     1       2.739   7.495  17.552  0.00  0.00    +0.000 N 
ATOM     21  H   UNL     1       2.996   7.989  16.701  0.00  0.00    +0.000 HD
BRANCH  20  22
ATOM     22  C   UNL     1       3.571   6.367  17.969  0.00  0.00    +0.000 C 
ATOM     23  C   UNL     1       4.988   6.549  17.391  0.00  0.00    +0.000 C 
ATOM     24  C   UNL     1       5.188   5.726  16.126  0.00  0.00    +0.000 C 
ATOM     25  C   UNL     1       5.093   4.251  16.491  0.00  0.00    +0.000 C 
ATOM     26  C   UNL     1       3.797   3.943  17.198  0.00  0.00    +0.000 A 
ATOM     27  C   UNL     1       3.444   2.594  17.363  0.00  0.00    +0.000 A 
ATOM     28  C   UNL     1       2.281   2.248  18.039  0.00  0.00    +0.000 A 
ATOM     29  C   UNL     1       1.440   3.246  18.521  0.00  0.00    +0.000 A 
ATOM     30  C   UNL     1       1.794   4.596  18.387  0.00  0.00    +0.000 A 
ATOM     31  C   UNL     1       3.002   4.965  17.771  0.00  0.00    +0.000 A 
ENDBRANCH  20  22
ENDBRANCH  17  18
ENDBRANCH   1  17
TORSDOF 7
ENDMDL
MODEL 9
REMARK VINA RESULT:      -7.9      3.741      5.389
REMARK  Name = 
REMARK  9 active torsions:
REMARK  status: ('A' for Active; 'I' for Inactive)
REMARK    1  A    between atoms: C_1  and  C_2
REMARK    2  A    between atoms: C_4  and  C_5
REMARK    3  A    between atoms: C_7  and  C_8
REMARK    4  A    between atoms: N_10  and  C_11
REMARK    5  A    between atoms: C_11  and  C_12
REMARK    6  A    between atoms: C_12  and  O_14
REMARK    7  A    between atoms: O_14  and  C_15
REMARK    8  A    between atoms: C_15  and  C_16
REMARK    9  A    between atoms: N_18  and  C_19
REMARK                            x       y       z     vdW  Elec       q    Type
REMARK                         _______ _______ _______ _____ _____    ______ ____
ROOT
ATOM      1  O   UNL     1       0.775   9.241  20.418  0.00  0.00    +0.000 OA
ENDROOT
BRANCH   1   2
ATOM      2  C   UNL     1       0.843  10.184  21.385  0.00  0.00    +0.000 C 
ATOM      3  O   UNL     1       1.382  10.049  22.482  0.00  0.00    +0.000 OA
BRANCH   2   4
ATOM      4  C   UNL     1       0.177  11.461  20.913  0.00  0.00    +0.000 C 
BRANCH   4   7
ATOM      5  C   UNL     1      -1.875  12.024  19.684  0.00  0.00    +0.000 C 
ATOM      6  O   UNL     1      -2.137  12.927  20.475  0.00  0.00    +0.000 OA
ATOM      7  N   UNL     1      -0.730  11.259  19.802  0.00  0.00    +0.000 N 
ATOM      8  H   UNL     1      -0.449  10.612  19.085  0.00  0.00    +0.000 HD
BRANCH   5  15
ATOM      9  C   UNL     1      -2.837  10.386  14.997  0.00  0.00    +0.000 C 
ATOM     10  C   UNL     1      -3.320  10.917  16.313  0.00  0.00    +0.000 A 
ATOM     11  C   UNL     1      -4.683  11.103  16.559  0.00  0.00    +0.000 A 
ATOM     12  C   UNL     1      -5.126  11.592  17.792  0.00  0.00    +0.000 A 
ATOM     13  C   UNL     1      -6.593  11.785  18.057  0.00  0.00    +0.000 C 
ATOM     14  C   UNL     1      -4.187  11.893  18.784  0.00  0.00    +0.000 A 
ATOM     15  C   UNL     1      -2.811  11.712  18.562  0.00  0.00    +0.000 A 
ATOM     16  C   UNL     1      -2.388  11.219  17.322  0.00  0.00    +0.000 A 
ENDBRANCH   5  15
ENDBRANCH   4   7
ENDBRANCH   2   4
ENDBRANCH   1   2
BRANCH   1  17
ATOM     17  C   UNL     1       1.493   8.039  20.663  0.00  0.00    +0.000 C 
BRANCH  17  18
ATOM     18  C   UNL     1       2.088   7.551  19.352  0.00  0.00    +0.000 C 
ATOM     19  O   UNL     1       2.134   8.303  18.374  0.00  0.00    +0.000 OA
ATOM     20  N   UNL     1       2.527   6.225  19.298  0.00  0.00    +0.000 N 
ATOM     21  H   UNL     1       2.200   5.590  20.021  0.00  0.00    +0.000 HD
BRANCH  20  22
ATOM     22  C   UNL     1       2.771   5.679  17.963  0.00  0.00    +0.000 C 
ATOM     23  C   UNL     1       1.850   4.463  17.743  0.00  0.00    +0.000 C 
ATOM     24  C   UNL     1       2.582   3.152  17.989  0.00  0.00    +0.000 C 
ATOM     25  C   UNL     1       3.682   3.013  16.945  0.00  0.00    +0.000 C 
ATOM     26  C   UNL     1       4.597   4.211  16.948  0.00  0.00    +0.000 A 
ATOM     27  C   UNL     1       5.803   4.118  16.234  0.00  0.00    +0.000 A 
ATOM     28  C   UNL     1       6.669   5.202  16.170  0.00  0.00    +0.000 A 
ATOM     29  C   UNL     1       6.358   6.375  16.851  0.00  0.00    +0.000 A 
ATOM     30  C   UNL     1       5.145   6.491  17.545  0.00  0.00    +0.000 A 
ATOM     31  C   UNL     1       4.222   5.431  17.560  0.00  0.00    +0.000 A 
ENDBRANCH  20  22
ENDBRANCH  17  18
ENDBRANCH   1  17
TORSDOF 7
ENDMDL
