MODEL 1
REMARK VINA RESULT:      -8.5      0.000      0.000
REMARK  Name = 
REMARK  8 active torsions:
REMARK  status: ('A' for Active; 'I' for Inactive)
REMARK    1  A    between atoms: C_1  and  C_2
REMARK    2  A    between atoms: C_2  and  C_3
REMARK    3  A    between atoms: C_3  and  N_4
REMARK    4  A    between atoms: C_3  and  C_22
REMARK    5  A    between atoms: N_14  and  CA_15
REMARK    6  A    between atoms: CA_15  and  CB_16
REMARK    7  A    between atoms: CA_15  and  C_17
REMARK    8  A    between atoms: C_17  and  O_18
REMARK                            x       y       z     vdW  Elec       q    Type
REMARK                         _______ _______ _______ _____ _____    ______ ____
ROOT
ATOM      1  N   UNK A   0       4.950   5.520  17.445  0.00  0.00    +0.000 N 
ATOM      2  C   UNK A   0       4.190   5.086  18.497  0.00  0.00    +0.000 C 
ATOM      3  O   UNK A   0       4.553   4.166  19.226  0.00  0.00    +0.000 OA
ATOM      4  N   UNK A   0       3.018   5.785  18.706  0.00  0.00    +0.000 N 
ATOM      5  C   UNK A   0       2.121   5.386  19.791  0.00  0.00    +0.000 C 
ATOM      6  C   UNK A   0       2.008   6.513  20.820  0.00  0.00    +0.000 C 
ATOM      7  C   UNK A   0       1.666   7.813  20.155  0.00  0.00    +0.000 A 
ATOM      8  C   UNK A   0       1.108   8.876  20.826  0.00  0.00    +0.000 A 
ATOM      9  N   UNK A   0       0.831  10.061  20.248  0.00  0.00    +0.000 NA
ATOM     10  C   UNK A   0       1.126  10.195  18.950  0.00  0.00    +0.000 A 
ATOM     11  N   ALA A   1       0.836  11.367  18.273  0.00  0.00    +0.000 N 
ATOM     12  N   UNK A   0       1.688   9.231  18.214  0.00  0.00    +0.000 NA
ATOM     13  C   UNK A   0       1.958   8.051  18.823  0.00  0.00    +0.000 A 
ATOM     14  C   UNK A   0       2.608   6.986  17.970  0.00  0.00    +0.000 C 
ATOM     15  H   UNK A   0       4.482   5.992  16.689  0.00  0.00    +0.000 HD
ATOM     16  H   ALA A   1       1.375  11.358  17.413  0.00  0.00    +0.000 HD
ENDROOT
BRANCH  11  17
ATOM     17  CA  ALA A   1       0.851  12.620  19.034  0.00  0.00    +0.000 C 
ATOM     18  CB  ALA A   1       2.234  13.265  19.002  0.00  0.00    +0.000 C 
BRANCH  17  19
ATOM     19  C   ALA A   1      -0.185  13.573  18.404  0.00  0.00    +0.000 C 
BRANCH  19  20
ATOM     20  O   ALA A   1      -1.044  12.858  17.517  0.00  0.00    +0.000 OA
ATOM     21  H   ALA A   1      -0.657  11.962  17.457  0.00  0.00    +0.000 HD
ENDBRANCH  19  20
ENDBRANCH  17  19
ENDBRANCH  11  17
BRANCH   1  22
ATOM     22  C   UNK A   0       6.286   5.017  17.172  0.00  0.00    +0.000 C 
BRANCH  22  23
ATOM     23  C   UNK A   0       6.452   4.787  15.671  0.00  0.00    +0.000 A 
ATOM     24  C   UNK A   0       5.560   3.950  14.978  0.00  0.00    +0.000 A 
ATOM     25  C   UNK A   0       5.741   3.683  13.617  0.00  0.00    +0.000 A 
ATOM     26  C   UNK A   0       6.808   4.259  12.936  0.00  0.00    +0.000 A 
ATOM     27  F   UNK A   0       6.989   3.983  11.637  0.00  0.00    +0.000 F 
ATOM     28  C   UNK A   0       7.681   5.109  13.599  0.00  0.00    +0.000 A 
ATOM     29  F   UNK A   0       8.709   5.669  12.945  0.00  0.00    +0.000 F 
ATOM     30  C   UNK A   0       7.507   5.383  14.953  0.00  0.00    +0.000 A 
ENDBRANCH  22  23
BRANCH  22  32
ATOM     31  C   UNK A   0       7.798   5.785  19.114  0.00  0.00    +0.000 C 
ATOM     32  C   UNK A   0       7.373   5.995  17.670  0.00  0.00    +0.000 C 
ENDBRANCH  22  32
ENDBRANCH   1  22
TORSDOF 6
ENDMDL
MODEL 2
REMARK VINA RESULT:      -8.2      0.520      1.249
REMARK  Name = 
REMARK  8 active torsions:
REMARK  status: ('A' for Active; 'I' for Inactive)
REMARK    1  A    between atoms: C_1  and  C_2
REMARK    2  A    between atoms: C_2  and  C_3
REMARK    3  A    between atoms: C_3  and  N_4
REMARK    4  A    between atoms: C_3  and  C_22
REMARK    5  A    between atoms: N_14  and  CA_15
REMARK    6  A    between atoms: CA_15  and  CB_16
REMARK    7  A    between atoms: CA_15  and  C_17
REMARK    8  A    between atoms: C_17  and  O_18
REMARK                            x       y       z     vdW  Elec       q    Type
REMARK                         _______ _______ _______ _____ _____    ______ ____
ROOT
ATOM      1  N   UNK A   0       4.990   5.481  17.385  0.00  0.00    +0.000 N 
ATOM      2  C   UNK A   0       4.200   5.064  18.423  0.00  0.00    +0.000 C 
ATOM      3  O   UNK A   0       4.534   4.143  19.164  0.00  0.00    +0.000 OA
ATOM      4  N   UNK A   0       3.035   5.781  18.601  0.00  0.00    +0.000 N 
ATOM      5  C   UNK A   0       2.108   5.401  19.667  0.00  0.00    +0.000 C 
ATOM      6  C   UNK A   0       1.987   6.535  20.688  0.00  0.00    +0.000 C 
ATOM      7  C   UNK A   0       1.679   7.836  20.008  0.00  0.00    +0.000 A 
ATOM      8  C   UNK A   0       1.122   8.911  20.661  0.00  0.00    +0.000 A 
ATOM      9  N   UNK A   0       0.876  10.096  20.071  0.00  0.00    +0.000 NA
ATOM     10  C   UNK A   0       1.202  10.219  18.779  0.00  0.00    +0.000 A 
ATOM     11  N   ALA A   1       0.944  11.391  18.090  0.00  0.00    +0.000 N 
ATOM     12  N   UNK A   0       1.766   9.243  18.061  0.00  0.00    +0.000 NA
ATOM     13  C   UNK A   0       2.005   8.063  18.682  0.00  0.00    +0.000 A 
ATOM     14  C   UNK A   0       2.659   6.983  17.849  0.00  0.00    +0.000 C 
ATOM     15  H   UNK A   0       4.547   5.956  16.617  0.00  0.00    +0.000 HD
ATOM     16  H   ALA A   1       1.502  11.370  17.242  0.00  0.00    +0.000 HD
ENDROOT
BRANCH  11  17
ATOM     17  CA  ALA A   1       0.959  12.648  18.844  0.00  0.00    +0.000 C 
ATOM     18  CB  ALA A   1       2.121  13.536  18.406  0.00  0.00    +0.000 C 
BRANCH  17  19
ATOM     19  C   ALA A   1      -0.378  13.374  18.591  0.00  0.00    +0.000 C 
BRANCH  19  20
ATOM     20  O   ALA A   1      -1.022  12.840  17.434  0.00  0.00    +0.000 OA
ATOM     21  H   ALA A   1      -0.406  12.161  17.092  0.00  0.00    +0.000 HD
ENDBRANCH  19  20
ENDBRANCH  17  19
ENDBRANCH  11  17
BRANCH   1  22
ATOM     22  C   UNK A   0       6.325   4.957  17.146  0.00  0.00    +0.000 C 
BRANCH  22  23
ATOM     23  C   UNK A   0       6.530   4.741  15.647  0.00  0.00    +0.000 A 
ATOM     24  C   UNK A   0       7.676   5.245  15.007  0.00  0.00    +0.000 A 
ATOM     25  C   UNK A   0       7.841   5.108  13.625  0.00  0.00    +0.000 A 
ATOM     26  C   UNK A   0       6.868   4.457  12.874  0.00  0.00    +0.000 A 
ATOM     27  F   UNK A   0       7.021   4.347  11.547  0.00  0.00    +0.000 F 
ATOM     28  C   UNK A   0       5.745   3.930  13.495  0.00  0.00    +0.000 A 
ATOM     29  F   UNK A   0       4.807   3.299  12.775  0.00  0.00    +0.000 F 
ATOM     30  C   UNK A   0       5.573   4.059  14.870  0.00  0.00    +0.000 A 
ENDBRANCH  22  23
BRANCH  22  32
ATOM     31  C   UNK A   0       7.723   5.745  19.164  0.00  0.00    +0.000 C 
ATOM     32  C   UNK A   0       7.414   5.911  17.685  0.00  0.00    +0.000 C 
ENDBRANCH  22  32
ENDBRANCH   1  22
TORSDOF 6
ENDMDL
MODEL 3
REMARK VINA RESULT:      -7.4      0.977      1.171
REMARK  Name = 
REMARK  8 active torsions:
REMARK  status: ('A' for Active; 'I' for Inactive)
REMARK    1  A    between atoms: C_1  and  C_2
REMARK    2  A    between atoms: C_2  and  C_3
REMARK    3  A    between atoms: C_3  and  N_4
REMARK    4  A    between atoms: C_3  and  C_22
REMARK    5  A    between atoms: N_14  and  CA_15
REMARK    6  A    between atoms: CA_15  and  CB_16
REMARK    7  A    between atoms: CA_15  and  C_17
REMARK    8  A    between atoms: C_17  and  O_18
REMARK                            x       y       z     vdW  Elec       q    Type
REMARK                         _______ _______ _______ _____ _____    ______ ____
ROOT
ATOM      1  N   UNK A   0       4.850   5.801  17.533  0.00  0.00    +0.000 N 
ATOM      2  C   UNK A   0       4.074   5.390  18.584  0.00  0.00    +0.000 C 
ATOM      3  O   UNK A   0       4.420   4.476  19.328  0.00  0.00    +0.000 OA
ATOM      4  N   UNK A   0       2.909   6.105  18.771  0.00  0.00    +0.000 N 
ATOM      5  C   UNK A   0       1.997   5.730  19.852  0.00  0.00    +0.000 C 
ATOM      6  C   UNK A   0       1.886   6.871  20.866  0.00  0.00    +0.000 C 
ATOM      7  C   UNK A   0       1.565   8.166  20.180  0.00  0.00    +0.000 A 
ATOM      8  C   UNK A   0       1.013   9.244  20.832  0.00  0.00    +0.000 A 
ATOM      9  N   UNK A   0       0.755  10.424  20.237  0.00  0.00    +0.000 NA
ATOM     10  C   UNK A   0       1.065  10.538  18.940  0.00  0.00    +0.000 A 
ATOM     11  N   ALA A   1       0.795  11.705  18.245  0.00  0.00    +0.000 N 
ATOM     12  N   UNK A   0       1.623   9.558  18.222  0.00  0.00    +0.000 NA
ATOM     13  C   UNK A   0       1.873   8.384  18.849  0.00  0.00    +0.000 A 
ATOM     14  C   UNK A   0       2.520   7.300  18.016  0.00  0.00    +0.000 C 
ATOM     15  H   UNK A   0       4.395   6.269  16.767  0.00  0.00    +0.000 HD
ATOM     16  H   ALA A   1       1.342  11.678  17.390  0.00  0.00    +0.000 HD
ENDROOT
BRANCH  11  17
ATOM     17  CA  ALA A   1       0.816  12.968  18.989  0.00  0.00    +0.000 C 
ATOM     18  CB  ALA A   1      -0.397  13.083  19.909  0.00  0.00    +0.000 C 
BRANCH  17  19
ATOM     19  C   ALA A   1       2.111  13.008  19.825  0.00  0.00    +0.000 C 
BRANCH  19  20
ATOM     20  O   ALA A   1       1.804  13.090  21.216  0.00  0.00    +0.000 OA
ATOM     21  H   ALA A   1       1.188  12.349  21.384  0.00  0.00    +0.000 HD
ENDBRANCH  19  20
ENDBRANCH  17  19
ENDBRANCH  11  17
BRANCH   1  22
ATOM     22  C   UNK A   0       6.183   5.280  17.281  0.00  0.00    +0.000 C 
BRANCH  22  23
ATOM     23  C   UNK A   0       6.329   4.941  15.798  0.00  0.00    +0.000 A 
ATOM     24  C   UNK A   0       5.416   4.069  15.176  0.00  0.00    +0.000 A 
ATOM     25  C   UNK A   0       5.579   3.702  13.836  0.00  0.00    +0.000 A 
ATOM     26  C   UNK A   0       6.647   4.211  13.106  0.00  0.00    +0.000 A 
ATOM     27  F   UNK A   0       6.810   3.839  11.828  0.00  0.00    +0.000 F 
ATOM     28  C   UNK A   0       7.540   5.093  13.696  0.00  0.00    +0.000 A 
ATOM     29  F   UNK A   0       8.569   5.588  12.994  0.00  0.00    +0.000 F 
ATOM     30  C   UNK A   0       7.385   5.466  15.029  0.00  0.00    +0.000 A 
ENDBRANCH  22  23
BRANCH  22  32
ATOM     31  C   UNK A   0       7.889   6.039  19.058  0.00  0.00    +0.000 C 
ATOM     32  C   UNK A   0       7.275   6.292  17.690  0.00  0.00    +0.000 C 
ENDBRANCH  22  32
ENDBRANCH   1  22
TORSDOF 6
ENDMDL
MODEL 4
REMARK VINA RESULT:      -7.4      4.038      5.424
REMARK  Name = 
REMARK  8 active torsions:
REMARK  status: ('A' for Active; 'I' for Inactive)
REMARK    1  A    between atoms: C_1  and  C_2
REMARK    2  A    between atoms: C_2  and  C_3
REMARK    3  A    between atoms: C_3  and  N_4
REMARK    4  A    between atoms: C_3  and  C_22
REMARK    5  A    between atoms: N_14  and  CA_15
REMARK    6  A    between atoms: CA_15  and  CB_16
REMARK    7  A    between atoms: CA_15  and  C_17
REMARK    8  A    between atoms: C_17  and  O_18
REMARK                            x       y       z     vdW  Elec       q    Type
REMARK                         _______ _______ _______ _____ _____    ______ ____
ROOT
ATOM      1  N   UNK A   0       2.746   7.381  19.116  0.00  0.00    +0.000 N 
ATOM      2  C   UNK A   0       1.752   7.799  19.959  0.00  0.00    +0.000 C 
ATOM      3  O   UNK A   0       1.403   7.136  20.932  0.00  0.00    +0.000 OA
ATOM      4  N   UNK A   0       1.210   9.033  19.664  0.00  0.00    +0.000 N 
ATOM      5  C   UNK A   0       0.123   9.561  20.490  0.00  0.00    +0.000 C 
ATOM      6  C   UNK A   0       0.573  10.846  21.189  0.00  0.00    +0.000 C 
ATOM      7  C   UNK A   0       1.156  11.816  20.205  0.00  0.00    +0.000 A 
ATOM      8  C   UNK A   0       1.259  13.165  20.451  0.00  0.00    +0.000 A 
ATOM      9  N   UNK A   0       1.815  14.040  19.592  0.00  0.00    +0.000 NA
ATOM     10  C   UNK A   0       2.292  13.552  18.441  0.00  0.00    +0.000 A 
ATOM     11  N   ALA A   1       2.843  14.391  17.487  0.00  0.00    +0.000 N 
ATOM     12  N   UNK A   0       2.259  12.256  18.115  0.00  0.00    +0.000 NA
ATOM     13  C   UNK A   0       1.698  11.399  19.002  0.00  0.00    +0.000 A 
ATOM     14  C   UNK A   0       1.689   9.938  18.613  0.00  0.00    +0.000 C 
ATOM     15  H   UNK A   0       2.750   7.742  18.177  0.00  0.00    +0.000 HD
ATOM     16  H   ALA A   1       3.374  13.809  16.847  0.00  0.00    +0.000 HD
ENDROOT
BRANCH  11  17
ATOM     17  CA  ALA A   1       3.503  15.616  17.949  0.00  0.00    +0.000 C 
ATOM     18  CB  ALA A   1       5.020  15.447  17.972  0.00  0.00    +0.000 C 
BRANCH  17  19
ATOM     19  C   ALA A   1       3.117  16.758  16.988  0.00  0.00    +0.000 C 
BRANCH  19  20
ATOM     20  O   ALA A   1       2.290  17.711  17.654  0.00  0.00    +0.000 OA
ATOM     21  H   ALA A   1       1.408  17.611  17.244  0.00  0.00    +0.000 HD
ENDBRANCH  19  20
ENDBRANCH  17  19
ENDBRANCH  11  17
BRANCH   1  22
ATOM     22  C   UNK A   0       3.544   6.191  19.361  0.00  0.00    +0.000 C 
BRANCH  22  23
ATOM     23  C   UNK A   0       2.685   4.945  19.150  0.00  0.00    +0.000 A 
ATOM     24  C   UNK A   0       2.092   4.695  17.899  0.00  0.00    +0.000 A 
ATOM     25  C   UNK A   0       1.252   3.592  17.715  0.00  0.00    +0.000 A 
ATOM     26  C   UNK A   0       1.007   2.725  18.774  0.00  0.00    +0.000 A 
ATOM     27  F   UNK A   0       0.185   1.682  18.597  0.00  0.00    +0.000 F 
ATOM     28  C   UNK A   0       1.607   2.942  20.006  0.00  0.00    +0.000 A 
ATOM     29  F   UNK A   0       1.376   2.106  21.028  0.00  0.00    +0.000 F 
ATOM     30  C   UNK A   0       2.447   4.036  20.199  0.00  0.00    +0.000 A 
ENDBRANCH  22  23
BRANCH  22  32
ATOM     31  C   UNK A   0       5.847   5.142  18.864  0.00  0.00    +0.000 C 
ATOM     32  C   UNK A   0       4.777   6.133  18.432  0.00  0.00    +0.000 C 
ENDBRANCH  22  32
ENDBRANCH   1  22
TORSDOF 6
ENDMDL
MODEL 5
REMARK VINA RESULT:      -7.2      1.009      1.183
REMARK  Name = 
REMARK  8 active torsions:
REMARK  status: ('A' for Active; 'I' for Inactive)
REMARK    1  A    between atoms: C_1  and  C_2
REMARK    2  A    between atoms: C_2  and  C_3
REMARK    3  A    between atoms: C_3  and  N_4
REMARK    4  A    between atoms: C_3  and  C_22
REMARK    5  A    between atoms: N_14  and  CA_15
REMARK    6  A    between atoms: CA_15  and  CB_16
REMARK    7  A    between atoms: CA_15  and  C_17
REMARK    8  A    between atoms: C_17  and  O_18
REMARK                            x       y       z     vdW  Elec       q    Type
REMARK                         _______ _______ _______ _____ _____    ______ ____
ROOT
ATOM      1  N   UNK A   0       5.088   4.953  17.266  0.00  0.00    +0.000 N 
ATOM      2  C   UNK A   0       4.421   4.545  18.390  0.00  0.00    +0.000 C 
ATOM      3  O   UNK A   0       4.873   3.682  19.138  0.00  0.00    +0.000 OA
ATOM      4  N   UNK A   0       3.235   5.206  18.643  0.00  0.00    +0.000 N 
ATOM      5  C   UNK A   0       2.433   4.829  19.807  0.00  0.00    +0.000 C 
ATOM      6  C   UNK A   0       2.338   6.004  20.783  0.00  0.00    +0.000 C 
ATOM      7  C   UNK A   0       1.894   7.251  20.078  0.00  0.00    +0.000 A 
ATOM      8  C   UNK A   0       1.336   8.325  20.730  0.00  0.00    +0.000 A 
ATOM      9  N   UNK A   0       0.968   9.464  20.114  0.00  0.00    +0.000 NA
ATOM     10  C   UNK A   0       1.168   9.540  18.794  0.00  0.00    +0.000 A 
ATOM     11  N   ALA A   1       0.780  10.661  18.079  0.00  0.00    +0.000 N 
ATOM     12  N   UNK A   0       1.722   8.561  18.070  0.00  0.00    +0.000 NA
ATOM     13  C   UNK A   0       2.085   7.429  18.719  0.00  0.00    +0.000 A 
ATOM     14  C   UNK A   0       2.724   6.347  17.877  0.00  0.00    +0.000 C 
ATOM     15  H   UNK A   0       4.550   5.364  16.522  0.00  0.00    +0.000 HD
ATOM     16  H   ALA A   1       1.260  10.628  17.185  0.00  0.00    +0.000 HD
ENDROOT
BRANCH  11  17
ATOM     17  CA  ALA A   1       0.790  11.953  18.772  0.00  0.00    +0.000 C 
ATOM     18  CB  ALA A   1       0.292  11.809  20.208  0.00  0.00    +0.000 C 
BRANCH  17  19
ATOM     19  C   ALA A   1       2.237  12.485  18.771  0.00  0.00    +0.000 C 
BRANCH  19  20
ATOM     20  O   ALA A   1       2.739  12.559  17.437  0.00  0.00    +0.000 OA
ATOM     21  H   ALA A   1       2.635  11.655  17.077  0.00  0.00    +0.000 HD
ENDBRANCH  19  20
ENDBRANCH  17  19
ENDBRANCH  11  17
BRANCH   1  22
ATOM     22  C   UNK A   0       6.424   4.491  16.927  0.00  0.00    +0.000 C 
BRANCH  22  23
ATOM     23  C   UNK A   0       6.595   4.485  15.409  0.00  0.00    +0.000 A 
ATOM     24  C   UNK A   0       5.739   3.714  14.601  0.00  0.00    +0.000 A 
ATOM     25  C   UNK A   0       5.928   3.650  13.217  0.00  0.00    +0.000 A 
ATOM     26  C   UNK A   0       6.966   4.365  12.628  0.00  0.00    +0.000 A 
ATOM     27  F   UNK A   0       7.154   4.284  11.304  0.00  0.00    +0.000 F 
ATOM     28  C   UNK A   0       7.801   5.152  13.407  0.00  0.00    +0.000 A 
ATOM     29  F   UNK A   0       8.800   5.845  12.842  0.00  0.00    +0.000 F 
ATOM     30  C   UNK A   0       7.619   5.223  14.786  0.00  0.00    +0.000 A 
ENDBRANCH  22  23
BRANCH  22  32
ATOM     31  C   UNK A   0       7.130   6.849  17.696  0.00  0.00    +0.000 C 
ATOM     32  C   UNK A   0       7.511   5.383  17.567  0.00  0.00    +0.000 C 
ENDBRANCH  22  32
ENDBRANCH   1  22
TORSDOF 6
ENDMDL
MODEL 6
REMARK VINA RESULT:      -7.1      3.728      5.213
REMARK  Name = 
REMARK  8 active torsions:
REMARK  status: ('A' for Active; 'I' for Inactive)
REMARK    1  A    between atoms: C_1  and  C_2
REMARK    2  A    between atoms: C_2  and  C_3
REMARK    3  A    between atoms: C_3  and  N_4
REMARK    4  A    between atoms: C_3  and  C_22
REMARK    5  A    between atoms: N_14  and  CA_15
REMARK    6  A    between atoms: CA_15  and  CB_16
REMARK    7  A    between atoms: CA_15  and  C_17
REMARK    8  A    between atoms: C_17  and  O_18
REMARK                            x       y       z     vdW  Elec       q    Type
REMARK                         _______ _______ _______ _____ _____    ______ ____
ROOT
ATOM      1  N   UNK A   0       2.160   7.848  19.057  0.00  0.00    +0.000 N 
ATOM      2  C   UNK A   0       1.498   7.904  20.254  0.00  0.00    +0.000 C 
ATOM      3  O   UNK A   0       1.749   7.129  21.173  0.00  0.00    +0.000 OA
ATOM      4  N   UNK A   0       0.570   8.920  20.367  0.00  0.00    +0.000 N 
ATOM      5  C   UNK A   0      -0.210   9.052  21.598  0.00  0.00    +0.000 C 
ATOM      6  C   UNK A   0       0.107  10.386  22.279  0.00  0.00    +0.000 C 
ATOM      7  C   UNK A   0      -0.026  11.525  21.313  0.00  0.00    +0.000 A 
ATOM      8  C   UNK A   0      -0.207  12.829  21.711  0.00  0.00    +0.000 A 
ATOM      9  N   UNK A   0      -0.289  13.866  20.855  0.00  0.00    +0.000 NA
ATOM     10  C   UNK A   0      -0.183  13.594  19.550  0.00  0.00    +0.000 A 
ATOM     11  N   ALA A   1      -0.297  14.598  18.603  0.00  0.00    +0.000 N 
ATOM     12  N   UNK A   0       0.015  12.365  19.061  0.00  0.00    +0.000 NA
ATOM     13  C   UNK A   0       0.098  11.343  19.947  0.00  0.00    +0.000 A 
ATOM     14  C   UNK A   0       0.338   9.968  19.367  0.00  0.00    +0.000 C 
ATOM     15  H   UNK A   0       1.700   8.228  18.246  0.00  0.00    +0.000 HD
ATOM     16  H   ALA A   1       0.080  14.235  17.733  0.00  0.00    +0.000 HD
ENDROOT
BRANCH  11  17
ATOM     17  CA  ALA A   1       0.130  15.949  18.981  0.00  0.00    +0.000 C 
ATOM     18  CB  ALA A   1       1.595  16.181  18.624  0.00  0.00    +0.000 C 
BRANCH  17  19
ATOM     19  C   ALA A   1      -0.759  16.959  18.228  0.00  0.00    +0.000 C 
BRANCH  19  20
ATOM     20  O   ALA A   1      -1.986  17.162  18.929  0.00  0.00    +0.000 OA
ATOM     21  H   ALA A   1      -1.955  18.092  19.229  0.00  0.00    +0.000 HD
ENDBRANCH  19  20
ENDBRANCH  17  19
ENDBRANCH  11  17
BRANCH   1  22
ATOM     22  C   UNK A   0       3.282   6.957  18.813  0.00  0.00    +0.000 C 
BRANCH  22  23
ATOM     23  C   UNK A   0       2.805   5.506  18.866  0.00  0.00    +0.000 A 
ATOM     24  C   UNK A   0       1.857   5.036  17.940  0.00  0.00    +0.000 A 
ATOM     25  C   UNK A   0       1.366   3.729  18.021  0.00  0.00    +0.000 A 
ATOM     26  C   UNK A   0       1.827   2.878  19.020  0.00  0.00    +0.000 A 
ATOM     27  F   UNK A   0       1.338   1.634  19.105  0.00  0.00    +0.000 F 
ATOM     28  C   UNK A   0       2.782   3.318  19.924  0.00  0.00    +0.000 A 
ATOM     29  F   UNK A   0       3.231   2.500  20.887  0.00  0.00    +0.000 F 
ATOM     30  C   UNK A   0       3.278   4.617  19.851  0.00  0.00    +0.000 A 
ENDBRANCH  22  23
BRANCH  22  32
ATOM     31  C   UNK A   0       5.234   6.474  17.200  0.00  0.00    +0.000 C 
ATOM     32  C   UNK A   0       3.941   7.235  17.444  0.00  0.00    +0.000 C 
ENDBRANCH  22  32
ENDBRANCH   1  22
TORSDOF 6
ENDMDL
MODEL 7
REMARK VINA RESULT:      -7.0      1.117      1.709
REMARK  Name = 
REMARK  8 active torsions:
REMARK  status: ('A' for Active; 'I' for Inactive)
REMARK    1  A    between atoms: C_1  and  C_2
REMARK    2  A    between atoms: C_2  and  C_3
REMARK    3  A    between atoms: C_3  and  N_4
REMARK    4  A    between atoms: C_3  and  C_22
REMARK    5  A    between atoms: N_14  and  CA_15
REMARK    6  A    between atoms: CA_15  and  CB_16
REMARK    7  A    between atoms: CA_15  and  C_17
REMARK    8  A    between atoms: C_17  and  O_18
REMARK                            x       y       z     vdW  Elec       q    Type
REMARK                         _______ _______ _______ _____ _____    ______ ____
ROOT
ATOM      1  N   UNK A   0       4.861   5.742  17.573  0.00  0.00    +0.000 N 
ATOM      2  C   UNK A   0       4.045   5.347  18.599  0.00  0.00    +0.000 C 
ATOM      3  O   UNK A   0       4.348   4.425  19.352  0.00  0.00    +0.000 OA
ATOM      4  N   UNK A   0       2.891   6.088  18.753  0.00  0.00    +0.000 N 
ATOM      5  C   UNK A   0       1.939   5.732  19.806  0.00  0.00    +0.000 C 
ATOM      6  C   UNK A   0       1.824   6.876  20.817  0.00  0.00    +0.000 C 
ATOM      7  C   UNK A   0       1.553   8.177  20.124  0.00  0.00    +0.000 A 
ATOM      8  C   UNK A   0       1.005   9.267  20.760  0.00  0.00    +0.000 A 
ATOM      9  N   UNK A   0       0.792  10.453  20.159  0.00  0.00    +0.000 NA
ATOM     10  C   UNK A   0       1.142  10.561  18.873  0.00  0.00    +0.000 A 
ATOM     11  N   ALA A   1       0.918  11.734  18.171  0.00  0.00    +0.000 N 
ATOM     12  N   UNK A   0       1.699   9.569  18.170  0.00  0.00    +0.000 NA
ATOM     13  C   UNK A   0       1.905   8.390  18.803  0.00  0.00    +0.000 A 
ATOM     14  C   UNK A   0       2.551   7.292  17.988  0.00  0.00    +0.000 C 
ATOM     15  H   UNK A   0       4.439   6.220  16.794  0.00  0.00    +0.000 HD
ATOM     16  H   ALA A   1       1.490  11.696  17.333  0.00  0.00    +0.000 HD
ENDROOT
BRANCH  11  17
ATOM     17  CA  ALA A   1       0.945  12.995  18.918  0.00  0.00    +0.000 C 
ATOM     18  CB  ALA A   1      -0.254  13.103  19.856  0.00  0.00    +0.000 C 
BRANCH  17  19
ATOM     19  C   ALA A   1       2.253  13.040  19.733  0.00  0.00    +0.000 C 
BRANCH  19  20
ATOM     20  O   ALA A   1       1.967  13.072  21.131  0.00  0.00    +0.000 OA
ATOM     21  H   ALA A   1       2.432  13.864  21.467  0.00  0.00    +0.000 HD
ENDBRANCH  19  20
ENDBRANCH  17  19
ENDBRANCH  11  17
BRANCH   1  22
ATOM     22  C   UNK A   0       6.189   5.191  17.359  0.00  0.00    +0.000 C 
BRANCH  22  23
ATOM     23  C   UNK A   0       6.382   4.879  15.876  0.00  0.00    +0.000 A 
ATOM     24  C   UNK A   0       7.597   5.187  15.238  0.00  0.00    +0.000 A 
ATOM     25  C   UNK A   0       7.760   4.964  13.867  0.00  0.00    +0.000 A 
ATOM     26  C   UNK A   0       6.715   4.422  13.125  0.00  0.00    +0.000 A 
ATOM     27  F   UNK A   0       6.871   4.230  11.808  0.00  0.00    +0.000 F 
ATOM     28  C   UNK A   0       5.521   4.088  13.745  0.00  0.00    +0.000 A 
ATOM     29  F   UNK A   0       4.513   3.562  13.034  0.00  0.00    +0.000 F 
ATOM     30  C   UNK A   0       5.349   4.303  15.110  0.00  0.00    +0.000 A 
ENDBRANCH  22  23
BRANCH  22  32
ATOM     31  C   UNK A   0       7.873   5.847  19.198  0.00  0.00    +0.000 C 
ATOM     32  C   UNK A   0       7.290   6.166  17.831  0.00  0.00    +0.000 C 
ENDBRANCH  22  32
ENDBRANCH   1  22
TORSDOF 6
ENDMDL
MODEL 8
REMARK VINA RESULT:      -6.8      3.338      5.091
REMARK  Name = 
REMARK  8 active torsions:
REMARK  status: ('A' for Active; 'I' for Inactive)
REMARK    1  A    between atoms: C_1  and  C_2
REMARK    2  A    between atoms: C_2  and  C_3
REMARK    3  A    between atoms: C_3  and  N_4
REMARK    4  A    between atoms: C_3  and  C_22
REMARK    5  A    between atoms: N_14  and  CA_15
REMARK    6  A    between atoms: CA_15  and  CB_16
REMARK    7  A    between atoms: CA_15  and  C_17
REMARK    8  A    between atoms: C_17  and  O_18
REMARK                            x       y       z     vdW  Elec       q    Type
REMARK                         _______ _______ _______ _____ _____    ______ ____
ROOT
ATOM      1  N   UNK A   0       1.879   6.812  20.004  0.00  0.00    +0.000 N 
ATOM      2  C   UNK A   0       1.916   7.720  18.980  0.00  0.00    +0.000 C 
ATOM      3  O   UNK A   0       2.166   7.386  17.825  0.00  0.00    +0.000 OA
ATOM      4  N   UNK A   0       1.606   9.018  19.332  0.00  0.00    +0.000 N 
ATOM      5  C   UNK A   0       1.640  10.070  18.316  0.00  0.00    +0.000 C 
ATOM      6  C   UNK A   0       0.241  10.662  18.126  0.00  0.00    +0.000 C 
ATOM      7  C   UNK A   0      -0.352  11.065  19.443  0.00  0.00    +0.000 A 
ATOM      8  C   UNK A   0      -1.379  11.973  19.557  0.00  0.00    +0.000 A 
ATOM      9  N   UNK A   0      -1.946  12.315  20.730  0.00  0.00    +0.000 NA
ATOM     10  C   UNK A   0      -1.474  11.726  21.835  0.00  0.00    +0.000 A 
ATOM     11  N   ALA A   1      -1.976  12.052  23.084  0.00  0.00    +0.000 N 
ATOM     12  N   UNK A   0      -0.494  10.816  21.829  0.00  0.00    +0.000 NA
ATOM     13  C   UNK A   0       0.053  10.490  20.634  0.00  0.00    +0.000 A 
ATOM     14  C   UNK A   0       1.148   9.447  20.658  0.00  0.00    +0.000 C 
ATOM     15  H   UNK A   0       2.033   7.150  20.939  0.00  0.00    +0.000 HD
ATOM     16  H   ALA A   1      -1.689  11.318  23.723  0.00  0.00    +0.000 HD
ENDROOT
BRANCH  11  17
ATOM     17  CA  ALA A   1      -3.376  12.478  23.171  0.00  0.00    +0.000 C 
ATOM     18  CB  ALA A   1      -4.001  12.038  24.492  0.00  0.00    +0.000 C 
BRANCH  17  19
ATOM     19  C   ALA A   1      -3.415  14.015  23.059  0.00  0.00    +0.000 C 
BRANCH  19  20
ATOM     20  O   ALA A   1      -3.820  14.409  21.749  0.00  0.00    +0.000 OA
ATOM     21  H   ALA A   1      -3.029  14.827  21.354  0.00  0.00    +0.000 HD
ENDBRANCH  19  20
ENDBRANCH  17  19
ENDBRANCH  11  17
BRANCH   1  22
ATOM     22  C   UNK A   0       2.015   5.379  19.798  0.00  0.00    +0.000 C 
BRANCH  22  23
ATOM     23  C   UNK A   0       3.318   5.089  19.055  0.00  0.00    +0.000 A 
ATOM     24  C   UNK A   0       3.299   4.390  17.834  0.00  0.00    +0.000 A 
ATOM     25  C   UNK A   0       4.490   4.063  17.179  0.00  0.00    +0.000 A 
ATOM     26  C   UNK A   0       5.709   4.442  17.733  0.00  0.00    +0.000 A 
ATOM     27  F   UNK A   0       6.848   4.108  17.111  0.00  0.00    +0.000 F 
ATOM     28  C   UNK A   0       5.744   5.156  18.921  0.00  0.00    +0.000 A 
ATOM     29  F   UNK A   0       6.916   5.526  19.456  0.00  0.00    +0.000 F 
ATOM     30  C   UNK A   0       4.563   5.488  19.580  0.00  0.00    +0.000 A 
ENDBRANCH  22  23
BRANCH  22  32
ATOM     31  C   UNK A   0       1.469   3.188  21.042  0.00  0.00    +0.000 C 
ATOM     32  C   UNK A   0       2.000   4.609  21.137  0.00  0.00    +0.000 C 
ENDBRANCH  22  32
ENDBRANCH   1  22
TORSDOF 6
ENDMDL
MODEL 9
REMARK VINA RESULT:      -6.8      4.270      7.309
REMARK  Name = 
REMARK  8 active torsions:
REMARK  status: ('A' for Active; 'I' for Inactive)
REMARK    1  A    between atoms: C_1  and  C_2
REMARK    2  A    between atoms: C_2  and  C_3
REMARK    3  A    between atoms: C_3  and  N_4
REMARK    4  A    between atoms: C_3  and  C_22
REMARK    5  A    between atoms: N_14  and  CA_15
REMARK    6  A    between atoms: CA_15  and  CB_16
REMARK    7  A    between atoms: CA_15  and  C_17
REMARK    8  A    between atoms: C_17  and  O_18
REMARK                            x       y       z     vdW  Elec       q    Type
REMARK                         _______ _______ _______ _____ _____    ______ ____
ROOT
ATOM      1  N   UNK A   0       1.085  10.018  19.750  0.00  0.00    +0.000 N 
ATOM      2  C   UNK A   0       0.140  10.972  19.484  0.00  0.00    +0.000 C 
ATOM      3  O   UNK A   0      -1.021  10.862  19.870  0.00  0.00    +0.000 OA
ATOM      4  N   UNK A   0       0.596  12.078  18.797  0.00  0.00    +0.000 N 
ATOM      5  C   UNK A   0      -0.341  13.145  18.441  0.00  0.00    +0.000 C 
ATOM      6  C   UNK A   0       0.054  14.446  19.145  0.00  0.00    +0.000 C 
ATOM      7  C   UNK A   0       1.501  14.763  18.913  0.00  0.00    +0.000 A 
ATOM      8  C   UNK A   0       2.026  16.025  19.058  0.00  0.00    +0.000 A 
ATOM      9  N   UNK A   0       3.330  16.316  18.890  0.00  0.00    +0.000 NA
ATOM     10  C   UNK A   0       4.147  15.306  18.566  0.00  0.00    +0.000 A 
ATOM     11  N   ALA A   1       5.494  15.528  18.336  0.00  0.00    +0.000 N 
ATOM     12  N   UNK A   0       3.741  14.041  18.421  0.00  0.00    +0.000 NA
ATOM     13  C   UNK A   0       2.424  13.779  18.601  0.00  0.00    +0.000 A 
ATOM     14  C   UNK A   0       1.997  12.337  18.446  0.00  0.00    +0.000 C 
ATOM     15  H   UNK A   0       1.881   9.961  19.137  0.00  0.00    +0.000 HD
ATOM     16  H   ALA A   1       5.959  14.627  18.382  0.00  0.00    +0.000 HD
ENDROOT
BRANCH  11  17
ATOM     17  CA  ALA A   1       6.141  16.629  19.057  0.00  0.00    +0.000 C 
ATOM     18  CB  ALA A   1       6.271  16.309  20.544  0.00  0.00    +0.000 C 
BRANCH  17  19
ATOM     19  C   ALA A   1       7.540  16.844  18.444  0.00  0.00    +0.000 C 
BRANCH  19  20
ATOM     20  O   ALA A   1       7.839  18.237  18.364  0.00  0.00    +0.000 OA
ATOM     21  H   ALA A   1       7.799  18.450  17.410  0.00  0.00    +0.000 HD
ENDBRANCH  19  20
ENDBRANCH  17  19
ENDBRANCH  11  17
BRANCH   1  22
ATOM     22  C   UNK A   0       0.832   8.866  20.600  0.00  0.00    +0.000 C 
BRANCH  22  23
ATOM     23  C   UNK A   0       1.582   7.652  20.056  0.00  0.00    +0.000 A 
ATOM     24  C   UNK A   0       1.569   6.435  20.760  0.00  0.00    +0.000 A 
ATOM     25  C   UNK A   0       2.305   5.337  20.304  0.00  0.00    +0.000 A 
ATOM     26  C   UNK A   0       3.052   5.444  19.136  0.00  0.00    +0.000 A 
ATOM     27  F   UNK A   0       3.773   4.395  18.715  0.00  0.00    +0.000 F 
ATOM     28  C   UNK A   0       3.054   6.628  18.415  0.00  0.00    +0.000 A 
ATOM     29  F   UNK A   0       3.770   6.733  17.287  0.00  0.00    +0.000 F 
ATOM     30  C   UNK A   0       2.322   7.726  18.860  0.00  0.00    +0.000 A 
ENDBRANCH  22  23
BRANCH  22  32
ATOM     31  C   UNK A   0       0.125   9.492  22.999  0.00  0.00    +0.000 C 
ATOM     32  C   UNK A   0       1.264   9.132  22.059  0.00  0.00    +0.000 C 
ENDBRANCH  22  32
ENDBRANCH   1  22
TORSDOF 6
ENDMDL
