MODEL 1
REMARK VINA RESULT:      -9.2      0.000      0.000
REMARK  Name = 
REMARK  7 active torsions:
REMARK  status: ('A' for Active; 'I' for Inactive)
REMARK    1  A    between atoms: C_1  and  C_2
REMARK    2  A    between atoms: C_2  and  S_3
REMARK    3  A    between atoms: C_2  and  C_20
REMARK    4  A    between atoms: S_3  and  C_4
REMARK    5  A    between atoms: C_6  and  C_7
REMARK    6  A    between atoms: C_14  and  C_15
REMARK    7  A    between atoms: N_22  and  C_23
REMARK                            x       y       z     vdW  Elec       q    Type
REMARK                         _______ _______ _______ _____ _____    ______ ____
ROOT
ATOM      1  S   UNL     1       3.606   2.732  18.247  0.00  0.00    +0.000 S 
ENDROOT
BRANCH   1   2
ATOM      2  C   UNL     1       5.061   3.565  17.670  0.00  0.00    +0.000 A 
ATOM      3  N   UNL     1       5.293   3.579  16.352  0.00  0.00    +0.000 NA
ATOM      4  C   UNL     1       6.361   4.280  15.913  0.00  0.00    +0.000 A 
ATOM      5  C   UNL     1       7.186   4.958  16.791  0.00  0.00    +0.000 A 
ATOM      6  C   UNL     1       6.878   4.893  18.140  0.00  0.00    +0.000 A 
ATOM      7  N   UNL     1       5.807   4.193  18.588  0.00  0.00    +0.000 NA
BRANCH   4   8
ATOM      8  C   UNL     1       6.592   4.271  14.453  0.00  0.00    +0.000 A 
ATOM      9  C   UNL     1       5.906   3.401  13.586  0.00  0.00    +0.000 A 
ATOM     10  C   UNL     1       6.121   3.424  12.205  0.00  0.00    +0.000 A 
ATOM     11  C   UNL     1       7.042   4.319  11.652  0.00  0.00    +0.000 A 
ATOM     12  C   UNL     1       7.743   5.179  12.495  0.00  0.00    +0.000 A 
ATOM     13  C   UNL     1       7.527   5.158  13.873  0.00  0.00    +0.000 A 
ENDBRANCH   4   8
BRANCH   6  14
ATOM     14  C   UNL     1       7.743   5.646  19.140  0.00  0.00    +0.000 C 
ATOM     15  F   UNL     1       8.895   4.982  19.455  0.00  0.00    +0.000 F 
ATOM     16  F   UNL     1       8.145   6.869  18.692  0.00  0.00    +0.000 F 
ATOM     17  F   UNL     1       7.114   5.862  20.330  0.00  0.00    +0.000 F 
ENDBRANCH   6  14
ENDBRANCH   1   2
BRANCH   1  19
ATOM     18  C   UNL     1       2.229   3.206  20.613  0.00  0.00    +0.000 C 
ATOM     19  C   UNL     1       3.156   3.882  19.606  0.00  0.00    +0.000 C 
BRANCH  19  20
ATOM     20  C   UNL     1       2.473   5.142  19.057  0.00  0.00    +0.000 C 
ATOM     21  O   UNL     1       1.503   5.092  18.304  0.00  0.00    +0.000 OA
ATOM     22  N   UNL     1       3.009   6.320  19.534  0.00  0.00    +0.000 N 
ATOM     23  H   UNL     1       3.981   6.277  19.825  0.00  0.00    +0.000 HD
BRANCH  22  24
ATOM     24  C   UNL     1       2.456   7.592  19.324  0.00  0.00    +0.000 A 
ATOM     25  C   UNL     1       2.579   8.274  18.094  0.00  0.00    +0.000 A 
ATOM     26  C   UNL     1       1.804   9.412  17.833  0.00  0.00    +0.000 A 
ATOM     27  C   UNL     1       0.936   9.820  18.822  0.00  0.00    +0.000 A 
ATOM     28  C   UNL     1       0.897   9.205  20.054  0.00  0.00    +0.000 A 
ATOM     29  C   UNL     1       1.649   8.096  20.342  0.00  0.00    +0.000 A 
ATOM     30  O   UNL     1      -0.055   9.739  20.868  0.00  0.00    +0.000 OA
ATOM     31  C   UNL     1      -0.832  10.417  19.865  0.00  0.00    +0.000 C 
ATOM     32  O   UNL     1      -0.041  10.764  18.707  0.00  0.00    +0.000 OA
ENDBRANCH  22  24
ENDBRANCH  19  20
ENDBRANCH   1  19
TORSDOF 6
ENDMDL
MODEL 2
REMARK VINA RESULT:      -9.1      1.282      1.589
REMARK  Name = 
REMARK  7 active torsions:
REMARK  status: ('A' for Active; 'I' for Inactive)
REMARK    1  A    between atoms: C_1  and  C_2
REMARK    2  A    between atoms: C_2  and  S_3
REMARK    3  A    between atoms: C_2  and  C_20
REMARK    4  A    between atoms: S_3  and  C_4
REMARK    5  A    between atoms: C_6  and  C_7
REMARK    6  A    between atoms: C_14  and  C_15
REMARK    7  A    between atoms: N_22  and  C_23
REMARK                            x       y       z     vdW  Elec       q    Type
REMARK                         _______ _______ _______ _____ _____    ______ ____
ROOT
ATOM      1  S   UNL     1       2.919   4.205  18.189  0.00  0.00    +0.000 S 
ENDROOT
BRANCH   1   2
ATOM      2  C   UNL     1       4.583   4.467  17.633  0.00  0.00    +0.000 A 
ATOM      3  N   UNL     1       4.842   4.298  16.331  0.00  0.00    +0.000 NA
ATOM      4  C   UNL     1       6.093   4.573  15.903  0.00  0.00    +0.000 A 
ATOM      5  C   UNL     1       7.070   5.015  16.775  0.00  0.00    +0.000 A 
ATOM      6  C   UNL     1       6.722   5.164  18.106  0.00  0.00    +0.000 A 
ATOM      7  N   UNL     1       5.468   4.891  18.545  0.00  0.00    +0.000 NA
BRANCH   4   8
ATOM      8  C   UNL     1       6.347   4.371  14.461  0.00  0.00    +0.000 A 
ATOM      9  C   UNL     1       5.596   3.474  13.680  0.00  0.00    +0.000 A 
ATOM     10  C   UNL     1       5.836   3.313  12.313  0.00  0.00    +0.000 A 
ATOM     11  C   UNL     1       6.849   4.046  11.687  0.00  0.00    +0.000 A 
ATOM     12  C   UNL     1       7.615   4.929  12.445  0.00  0.00    +0.000 A 
ATOM     13  C   UNL     1       7.374   5.091  13.809  0.00  0.00    +0.000 A 
ENDBRANCH   4   8
BRANCH   6  14
ATOM     14  C   UNL     1       7.759   5.673  19.097  0.00  0.00    +0.000 C 
ATOM     15  F   UNL     1       8.833   4.837  19.221  0.00  0.00    +0.000 F 
ATOM     16  F   UNL     1       8.284   6.883  18.754  0.00  0.00    +0.000 F 
ATOM     17  F   UNL     1       7.264   5.814  20.359  0.00  0.00    +0.000 F 
ENDBRANCH   6  14
ENDBRANCH   1   2
BRANCH   1  19
ATOM     18  C   UNL     1       2.176   4.478  20.851  0.00  0.00    +0.000 C 
ATOM     19  C   UNL     1       3.005   5.151  19.760  0.00  0.00    +0.000 C 
BRANCH  19  20
ATOM     20  C   UNL     1       2.510   6.589  19.565  0.00  0.00    +0.000 C 
ATOM     21  O   UNL     1       2.426   7.114  18.456  0.00  0.00    +0.000 OA
ATOM     22  N   UNL     1       2.115   7.207  20.733  0.00  0.00    +0.000 N 
ATOM     23  H   UNL     1       2.549   6.863  21.583  0.00  0.00    +0.000 HD
BRANCH  22  24
ATOM     24  C   UNL     1       1.465   8.449  20.800  0.00  0.00    +0.000 A 
ATOM     25  C   UNL     1       0.954   9.096  19.653  0.00  0.00    +0.000 A 
ATOM     26  C   UNL     1       0.093  10.192  19.782  0.00  0.00    +0.000 A 
ATOM     27  C   UNL     1      -0.221  10.597  21.060  0.00  0.00    +0.000 A 
ATOM     28  C   UNL     1       0.360  10.021  22.169  0.00  0.00    +0.000 A 
ATOM     29  C   UNL     1       1.213   8.953  22.075  0.00  0.00    +0.000 A 
ATOM     30  O   UNL     1      -0.117  10.543  23.333  0.00  0.00    +0.000 OA
ATOM     31  C   UNL     1      -1.311  11.156  22.814  0.00  0.00    +0.000 C 
ATOM     32  O   UNL     1      -1.182  11.498  21.416  0.00  0.00    +0.000 OA
ENDBRANCH  22  24
ENDBRANCH  19  20
ENDBRANCH   1  19
TORSDOF 6
ENDMDL
MODEL 3
REMARK VINA RESULT:      -9.1      0.710      1.720
REMARK  Name = 
REMARK  7 active torsions:
REMARK  status: ('A' for Active; 'I' for Inactive)
REMARK    1  A    between atoms: C_1  and  C_2
REMARK    2  A    between atoms: C_2  and  S_3
REMARK    3  A    between atoms: C_2  and  C_20
REMARK    4  A    between atoms: S_3  and  C_4
REMARK    5  A    between atoms: C_6  and  C_7
REMARK    6  A    between atoms: C_14  and  C_15
REMARK    7  A    between atoms: N_22  and  C_23
REMARK                            x       y       z     vdW  Elec       q    Type
REMARK                         _______ _______ _______ _____ _____    ______ ____
ROOT
ATOM      1  S   UNL     1       3.780   2.653  18.210  0.00  0.00    +0.000 S 
ENDROOT
BRANCH   1   2
ATOM      2  C   UNL     1       5.197   3.559  17.646  0.00  0.00    +0.000 A 
ATOM      3  N   UNL     1       5.424   3.609  16.328  0.00  0.00    +0.000 NA
ATOM      4  C   UNL     1       6.460   4.363  15.901  0.00  0.00    +0.000 A 
ATOM      5  C   UNL     1       7.257   5.059  16.791  0.00  0.00    +0.000 A 
ATOM      6  C   UNL     1       6.956   4.954  18.138  0.00  0.00    +0.000 A 
ATOM      7  N   UNL     1       5.918   4.201  18.575  0.00  0.00    +0.000 NA
BRANCH   4   8
ATOM      8  C   UNL     1       6.686   4.393  14.441  0.00  0.00    +0.000 A 
ATOM      9  C   UNL     1       7.598   5.279  13.836  0.00  0.00    +0.000 A 
ATOM     10  C   UNL     1       7.815   5.276  12.456  0.00  0.00    +0.000 A 
ATOM     11  C   UNL     1       7.114   4.386  11.636  0.00  0.00    +0.000 A 
ATOM     12  C   UNL     1       6.197   3.511  12.212  0.00  0.00    +0.000 A 
ATOM     13  C   UNL     1       5.981   3.512  13.591  0.00  0.00    +0.000 A 
ENDBRANCH   4   8
BRANCH   6  14
ATOM     14  C   UNL     1       7.791   5.725  19.152  0.00  0.00    +0.000 C 
ATOM     15  F   UNL     1       7.146   5.911  20.342  0.00  0.00    +0.000 F 
ATOM     16  F   UNL     1       8.961   5.102  19.471  0.00  0.00    +0.000 F 
ATOM     17  F   UNL     1       8.126   6.974  18.723  0.00  0.00    +0.000 F 
ENDBRANCH   6  14
ENDBRANCH   1   2
BRANCH   1  19
ATOM     18  C   UNL     1       2.737   2.803  20.780  0.00  0.00    +0.000 C 
ATOM     19  C   UNL     1       3.390   3.658  19.697  0.00  0.00    +0.000 C 
BRANCH  19  20
ATOM     20  C   UNL     1       2.458   4.824  19.343  0.00  0.00    +0.000 C 
ATOM     21  O   UNL     1       1.379   4.659  18.778  0.00  0.00    +0.000 OA
ATOM     22  N   UNL     1       2.916   6.053  19.770  0.00  0.00    +0.000 N 
ATOM     23  H   UNL     1       3.921   6.137  19.877  0.00  0.00    +0.000 HD
BRANCH  22  24
ATOM     24  C   UNL     1       2.172   7.241  19.726  0.00  0.00    +0.000 A 
ATOM     25  C   UNL     1       1.485   7.744  20.853  0.00  0.00    +0.000 A 
ATOM     26  C   UNL     1       0.975   9.048  20.850  0.00  0.00    +0.000 A 
ATOM     27  C   UNL     1       1.174   9.797  19.711  0.00  0.00    +0.000 A 
ATOM     28  C   UNL     1       1.758   9.263  18.583  0.00  0.00    +0.000 A 
ATOM     29  C   UNL     1       2.259   7.989  18.553  0.00  0.00    +0.000 A 
ATOM     30  O   UNL     1       1.893  10.182  17.587  0.00  0.00    +0.000 OA
ATOM     31  C   UNL     1       1.730  11.374  18.377  0.00  0.00    +0.000 C 
ATOM     32  O   UNL     1       0.944  11.133  19.566  0.00  0.00    +0.000 OA
ENDBRANCH  22  24
ENDBRANCH  19  20
ENDBRANCH   1  19
TORSDOF 6
ENDMDL
MODEL 4
REMARK VINA RESULT:      -9.0      1.247      1.876
REMARK  Name = 
REMARK  7 active torsions:
REMARK  status: ('A' for Active; 'I' for Inactive)
REMARK    1  A    between atoms: C_1  and  C_2
REMARK    2  A    between atoms: C_2  and  S_3
REMARK    3  A    between atoms: C_2  and  C_20
REMARK    4  A    between atoms: S_3  and  C_4
REMARK    5  A    between atoms: C_6  and  C_7
REMARK    6  A    between atoms: C_14  and  C_15
REMARK    7  A    between atoms: N_22  and  C_23
REMARK                            x       y       z     vdW  Elec       q    Type
REMARK                         _______ _______ _______ _____ _____    ______ ____
ROOT
ATOM      1  S   UNL     1       2.884   4.207  18.036  0.00  0.00    +0.000 S 
ENDROOT
BRANCH   1   2
ATOM      2  C   UNL     1       4.559   4.478  17.518  0.00  0.00    +0.000 A 
ATOM      3  N   UNL     1       4.846   4.323  16.220  0.00  0.00    +0.000 NA
ATOM      4  C   UNL     1       6.104   4.605  15.821  0.00  0.00    +0.000 A 
ATOM      5  C   UNL     1       7.063   5.039  16.718  0.00  0.00    +0.000 A 
ATOM      6  C   UNL     1       6.686   5.173  18.043  0.00  0.00    +0.000 A 
ATOM      7  N   UNL     1       5.424   4.893  18.453  0.00  0.00    +0.000 NA
BRANCH   4   8
ATOM      8  C   UNL     1       6.389   4.418  14.383  0.00  0.00    +0.000 A 
ATOM      9  C   UNL     1       7.440   5.087  13.728  0.00  0.00    +0.000 A 
ATOM     10  C   UNL     1       7.708   4.880  12.373  0.00  0.00    +0.000 A 
ATOM     11  C   UNL     1       6.921   3.997  11.628  0.00  0.00    +0.000 A 
ATOM     12  C   UNL     1       5.866   3.335  12.252  0.00  0.00    +0.000 A 
ATOM     13  C   UNL     1       5.599   3.541  13.606  0.00  0.00    +0.000 A 
ENDBRANCH   4   8
BRANCH   6  14
ATOM     14  C   UNL     1       7.701   5.674  19.061  0.00  0.00    +0.000 C 
ATOM     15  F   UNL     1       8.202   6.907  18.753  0.00  0.00    +0.000 F 
ATOM     16  F   UNL     1       7.188   5.799  20.318  0.00  0.00    +0.000 F 
ATOM     17  F   UNL     1       8.789   4.860  19.170  0.00  0.00    +0.000 F 
ENDBRANCH   6  14
ENDBRANCH   1   2
BRANCH   1  19
ATOM     18  C   UNL     1       2.896   3.493  20.720  0.00  0.00    +0.000 C 
ATOM     19  C   UNL     1       3.062   4.697  19.797  0.00  0.00    +0.000 C 
BRANCH  19  20
ATOM     20  C   UNL     1       2.033   5.770  20.175  0.00  0.00    +0.000 C 
ATOM     21  O   UNL     1       0.962   5.497  20.714  0.00  0.00    +0.000 OA
ATOM     22  N   UNL     1       2.447   7.059  19.911  0.00  0.00    +0.000 N 
ATOM     23  H   UNL     1       3.131   7.159  19.167  0.00  0.00    +0.000 HD
BRANCH  22  24
ATOM     24  C   UNL     1       1.770   8.216  20.322  0.00  0.00    +0.000 A 
ATOM     25  C   UNL     1       1.097   9.060  19.412  0.00  0.00    +0.000 A 
ATOM     26  C   UNL     1       0.223  10.051  19.876  0.00  0.00    +0.000 A 
ATOM     27  C   UNL     1       0.059  10.155  21.240  0.00  0.00    +0.000 A 
ATOM     28  C   UNL     1       0.794   9.391  22.121  0.00  0.00    +0.000 A 
ATOM     29  C   UNL     1       1.664   8.421  21.697  0.00  0.00    +0.000 A 
ATOM     30  O   UNL     1       0.450   9.623  23.418  0.00  0.00    +0.000 OA
ATOM     31  C   UNL     1      -0.819  10.261  23.187  0.00  0.00    +0.000 C 
ATOM     32  O   UNL     1      -0.879  10.899  21.892  0.00  0.00    +0.000 OA
ENDBRANCH  22  24
ENDBRANCH  19  20
ENDBRANCH   1  19
TORSDOF 6
ENDMDL
MODEL 5
REMARK VINA RESULT:      -8.7      1.159      1.973
REMARK  Name = 
REMARK  7 active torsions:
REMARK  status: ('A' for Active; 'I' for Inactive)
REMARK    1  A    between atoms: C_1  and  C_2
REMARK    2  A    between atoms: C_2  and  S_3
REMARK    3  A    between atoms: C_2  and  C_20
REMARK    4  A    between atoms: S_3  and  C_4
REMARK    5  A    between atoms: C_6  and  C_7
REMARK    6  A    between atoms: C_14  and  C_15
REMARK    7  A    between atoms: N_22  and  C_23
REMARK                            x       y       z     vdW  Elec       q    Type
REMARK                         _______ _______ _______ _____ _____    ______ ____
ROOT
ATOM      1  S   UNL     1       2.921   4.289  17.908  0.00  0.00    +0.000 S 
ENDROOT
BRANCH   1   2
ATOM      2  C   UNL     1       4.609   4.547  17.427  0.00  0.00    +0.000 A 
ATOM      3  N   UNL     1       4.919   4.405  16.132  0.00  0.00    +0.000 NA
ATOM      4  C   UNL     1       6.188   4.678  15.761  0.00  0.00    +0.000 A 
ATOM      5  C   UNL     1       7.134   5.089  16.682  0.00  0.00    +0.000 A 
ATOM      6  C   UNL     1       6.733   5.210  18.002  0.00  0.00    +0.000 A 
ATOM      7  N   UNL     1       5.460   4.939  18.383  0.00  0.00    +0.000 NA
BRANCH   4   8
ATOM      8  C   UNL     1       6.499   4.507  14.327  0.00  0.00    +0.000 A 
ATOM      9  C   UNL     1       7.506   5.246  13.679  0.00  0.00    +0.000 A 
ATOM     10  C   UNL     1       7.801   5.054  12.327  0.00  0.00    +0.000 A 
ATOM     11  C   UNL     1       7.085   4.116  11.578  0.00  0.00    +0.000 A 
ATOM     12  C   UNL     1       6.073   3.383  12.196  0.00  0.00    +0.000 A 
ATOM     13  C   UNL     1       5.780   3.574  13.546  0.00  0.00    +0.000 A 
ENDBRANCH   4   8
BRANCH   6  14
ATOM     14  C   UNL     1       7.734   5.684  19.046  0.00  0.00    +0.000 C 
ATOM     15  F   UNL     1       7.197   5.771  20.299  0.00  0.00    +0.000 F 
ATOM     16  F   UNL     1       8.811   4.859  19.174  0.00  0.00    +0.000 F 
ATOM     17  F   UNL     1       8.231   6.925  18.779  0.00  0.00    +0.000 F 
ENDBRANCH   6  14
ENDBRANCH   1   2
BRANCH   1  19
ATOM     18  C   UNL     1       2.942   3.308  20.506  0.00  0.00    +0.000 C 
ATOM     19  C   UNL     1       3.102   4.599  19.709  0.00  0.00    +0.000 C 
BRANCH  19  20
ATOM     20  C   UNL     1       2.071   5.625  20.196  0.00  0.00    +0.000 C 
ATOM     21  O   UNL     1       1.106   5.312  20.890  0.00  0.00    +0.000 OA
ATOM     22  N   UNL     1       2.363   6.924  19.836  0.00  0.00    +0.000 N 
ATOM     23  H   UNL     1       2.927   7.034  18.999  0.00  0.00    +0.000 HD
BRANCH  22  24
ATOM     24  C   UNL     1       1.678   8.055  20.303  0.00  0.00    +0.000 A 
ATOM     25  C   UNL     1       1.404   8.259  21.673  0.00  0.00    +0.000 A 
ATOM     26  C   UNL     1       0.956   9.505  22.130  0.00  0.00    +0.000 A 
ATOM     27  C   UNL     1       0.802  10.500  21.190  0.00  0.00    +0.000 A 
ATOM     28  C   UNL     1       0.978  10.261  19.844  0.00  0.00    +0.000 A 
ATOM     29  C   UNL     1       1.406   9.051  19.366  0.00  0.00    +0.000 A 
ATOM     30  O   UNL     1       0.813  11.386  19.094  0.00  0.00    +0.000 OA
ATOM     31  C   UNL     1       0.945  12.360  20.145  0.00  0.00    +0.000 C 
ATOM     32  O   UNL     1       0.575  11.822  21.434  0.00  0.00    +0.000 OA
ENDBRANCH  22  24
ENDBRANCH  19  20
ENDBRANCH   1  19
TORSDOF 6
ENDMDL
MODEL 6
REMARK VINA RESULT:      -8.5      1.287      1.940
REMARK  Name = 
REMARK  7 active torsions:
REMARK  status: ('A' for Active; 'I' for Inactive)
REMARK    1  A    between atoms: C_1  and  C_2
REMARK    2  A    between atoms: C_2  and  S_3
REMARK    3  A    between atoms: C_2  and  C_20
REMARK    4  A    between atoms: S_3  and  C_4
REMARK    5  A    between atoms: C_6  and  C_7
REMARK    6  A    between atoms: C_14  and  C_15
REMARK    7  A    between atoms: N_22  and  C_23
REMARK                            x       y       z     vdW  Elec       q    Type
REMARK                         _______ _______ _______ _____ _____    ______ ____
ROOT
ATOM      1  S   UNL     1       2.897   4.442  18.082  0.00  0.00    +0.000 S 
ENDROOT
BRANCH   1   2
ATOM      2  C   UNL     1       4.584   4.621  17.563  0.00  0.00    +0.000 A 
ATOM      3  N   UNL     1       4.863   4.436  16.268  0.00  0.00    +0.000 NA
ATOM      4  C   UNL     1       6.135   4.649  15.866  0.00  0.00    +0.000 A 
ATOM      5  C   UNL     1       7.114   5.043  16.759  0.00  0.00    +0.000 A 
ATOM      6  C   UNL     1       6.744   5.211  18.083  0.00  0.00    +0.000 A 
ATOM      7  N   UNL     1       5.469   5.001  18.494  0.00  0.00    +0.000 NA
BRANCH   4   8
ATOM      8  C   UNL     1       6.410   4.432  14.431  0.00  0.00    +0.000 A 
ATOM      9  C   UNL     1       5.674   3.523  13.649  0.00  0.00    +0.000 A 
ATOM     10  C   UNL     1       5.934   3.349  12.288  0.00  0.00    +0.000 A 
ATOM     11  C   UNL     1       6.953   4.079  11.668  0.00  0.00    +0.000 A 
ATOM     12  C   UNL     1       7.704   4.974  12.426  0.00  0.00    +0.000 A 
ATOM     13  C   UNL     1       7.443   5.149  13.786  0.00  0.00    +0.000 A 
ENDBRANCH   4   8
BRANCH   6  14
ATOM     14  C   UNL     1       7.783   5.670  19.096  0.00  0.00    +0.000 C 
ATOM     15  F   UNL     1       8.282   6.912  18.823  0.00  0.00    +0.000 F 
ATOM     16  F   UNL     1       7.298   5.751  20.367  0.00  0.00    +0.000 F 
ATOM     17  F   UNL     1       8.869   4.848  19.152  0.00  0.00    +0.000 F 
ENDBRANCH   6  14
ENDBRANCH   1   2
BRANCH   1  19
ATOM     18  C   UNL     1       2.189   4.581  20.765  0.00  0.00    +0.000 C 
ATOM     19  C   UNL     1       3.020   5.297  19.703  0.00  0.00    +0.000 C 
BRANCH  19  20
ATOM     20  C   UNL     1       2.552   6.753  19.593  0.00  0.00    +0.000 C 
ATOM     21  O   UNL     1       2.726   7.429  18.580  0.00  0.00    +0.000 OA
ATOM     22  N   UNL     1       1.872   7.206  20.704  0.00  0.00    +0.000 N 
ATOM     23  H   UNL     1       2.096   6.742  21.579  0.00  0.00    +0.000 HD
BRANCH  22  24
ATOM     24  C   UNL     1       1.196   8.433  20.782  0.00  0.00    +0.000 A 
ATOM     25  C   UNL     1       0.722   8.958  22.005  0.00  0.00    +0.000 A 
ATOM     26  C   UNL     1       0.289  10.287  22.086  0.00  0.00    +0.000 A 
ATOM     27  C   UNL     1       0.347  11.038  20.933  0.00  0.00    +0.000 A 
ATOM     28  C   UNL     1       0.717  10.488  19.725  0.00  0.00    +0.000 A 
ATOM     29  C   UNL     1       1.138   9.188  19.612  0.00  0.00    +0.000 A 
ATOM     30  O   UNL     1       0.744  11.410  18.723  0.00  0.00    +0.000 OA
ATOM     31  C   UNL     1       0.771  12.599  19.534  0.00  0.00    +0.000 C 
ATOM     32  O   UNL     1       0.169  12.386  20.830  0.00  0.00    +0.000 OA
ENDBRANCH  22  24
ENDBRANCH  19  20
ENDBRANCH   1  19
TORSDOF 6
ENDMDL
MODEL 7
REMARK VINA RESULT:      -8.5      4.771      7.470
REMARK  Name = 
REMARK  7 active torsions:
REMARK  status: ('A' for Active; 'I' for Inactive)
REMARK    1  A    between atoms: C_1  and  C_2
REMARK    2  A    between atoms: C_2  and  S_3
REMARK    3  A    between atoms: C_2  and  C_20
REMARK    4  A    between atoms: S_3  and  C_4
REMARK    5  A    between atoms: C_6  and  C_7
REMARK    6  A    between atoms: C_14  and  C_15
REMARK    7  A    between atoms: N_22  and  C_23
REMARK                            x       y       z     vdW  Elec       q    Type
REMARK                         _______ _______ _______ _____ _____    ______ ____
ROOT
ATOM      1  S   UNL     1       6.692   5.685  16.695  0.00  0.00    +0.000 S 
ENDROOT
BRANCH   1   2
ATOM      2  C   UNL     1       5.246   5.442  17.694  0.00  0.00    +0.000 A 
ATOM      3  N   UNL     1       4.447   6.495  17.905  0.00  0.00    +0.000 NA
ATOM      4  C   UNL     1       3.309   6.285  18.601  0.00  0.00    +0.000 A 
ATOM      5  C   UNL     1       2.980   5.031  19.080  0.00  0.00    +0.000 A 
ATOM      6  C   UNL     1       3.860   3.994  18.819  0.00  0.00    +0.000 A 
ATOM      7  N   UNL     1       5.004   4.195  18.120  0.00  0.00    +0.000 NA
BRANCH   4   8
ATOM      8  C   UNL     1       2.452   7.469  18.820  0.00  0.00    +0.000 A 
ATOM      9  C   UNL     1       2.115   8.360  17.785  0.00  0.00    +0.000 A 
ATOM     10  C   UNL     1       1.284   9.461  18.007  0.00  0.00    +0.000 A 
ATOM     11  C   UNL     1       0.770   9.706  19.284  0.00  0.00    +0.000 A 
ATOM     12  C   UNL     1       1.101   8.845  20.327  0.00  0.00    +0.000 A 
ATOM     13  C   UNL     1       1.930   7.745  20.105  0.00  0.00    +0.000 A 
ENDBRANCH   4   8
BRANCH   6  14
ATOM     14  C   UNL     1       3.525   2.591  19.304  0.00  0.00    +0.000 C 
ATOM     15  F   UNL     1       2.989   1.803  18.325  0.00  0.00    +0.000 F 
ATOM     16  F   UNL     1       4.611   1.905  19.762  0.00  0.00    +0.000 F 
ATOM     17  F   UNL     1       2.612   2.582  20.316  0.00  0.00    +0.000 F 
ENDBRANCH   6  14
ENDBRANCH   1   2
BRANCH   1  19
ATOM     18  C   UNL     1       7.359   5.886  19.384  0.00  0.00    +0.000 C 
ATOM     19  C   UNL     1       7.816   6.328  17.996  0.00  0.00    +0.000 C 
BRANCH  19  20
ATOM     20  C   UNL     1       7.889   7.859  17.952  0.00  0.00    +0.000 C 
ATOM     21  O   UNL     1       7.132   8.537  17.260  0.00  0.00    +0.000 OA
ATOM     22  N   UNL     1       8.833   8.398  18.801  0.00  0.00    +0.000 N 
ATOM     23  H   UNL     1       9.617   7.794  19.029  0.00  0.00    +0.000 HD
BRANCH  22  24
ATOM     24  C   UNL     1       8.974   9.766  19.074  0.00  0.00    +0.000 A 
ATOM     25  C   UNL     1       9.114  10.263  20.388  0.00  0.00    +0.000 A 
ATOM     26  C   UNL     1       9.510  11.589  20.608  0.00  0.00    +0.000 A 
ATOM     27  C   UNL     1       9.749  12.365  19.495  0.00  0.00    +0.000 A 
ATOM     28  C   UNL     1       9.514  11.899  18.220  0.00  0.00    +0.000 A 
ATOM     29  C   UNL     1       9.118  10.610  17.974  0.00  0.00    +0.000 A 
ATOM     30  O   UNL     1       9.851  12.811  17.266  0.00  0.00    +0.000 OA
ATOM     31  C   UNL     1      10.683  13.662  18.075  0.00  0.00    +0.000 C 
ATOM     32  O   UNL     1      10.327  13.600  19.474  0.00  0.00    +0.000 OA
ENDBRANCH  22  24
ENDBRANCH  19  20
ENDBRANCH   1  19
TORSDOF 6
ENDMDL
MODEL 8
REMARK VINA RESULT:      -8.5      4.827      7.480
REMARK  Name = 
REMARK  7 active torsions:
REMARK  status: ('A' for Active; 'I' for Inactive)
REMARK    1  A    between atoms: C_1  and  C_2
REMARK    2  A    between atoms: C_2  and  S_3
REMARK    3  A    between atoms: C_2  and  C_20
REMARK    4  A    between atoms: S_3  and  C_4
REMARK    5  A    between atoms: C_6  and  C_7
REMARK    6  A    between atoms: C_14  and  C_15
REMARK    7  A    between atoms: N_22  and  C_23
REMARK                            x       y       z     vdW  Elec       q    Type
REMARK                         _______ _______ _______ _____ _____    ______ ____
ROOT
ATOM      1  S   UNL     1       6.604   5.743  16.420  0.00  0.00    +0.000 S 
ENDROOT
BRANCH   1   2
ATOM      2  C   UNL     1       5.107   5.454  17.326  0.00  0.00    +0.000 A 
ATOM      3  N   UNL     1       4.370   6.516  17.673  0.00  0.00    +0.000 NA
ATOM      4  C   UNL     1       3.194   6.283  18.295  0.00  0.00    +0.000 A 
ATOM      5  C   UNL     1       2.765   4.997  18.564  0.00  0.00    +0.000 A 
ATOM      6  C   UNL     1       3.586   3.953  18.173  0.00  0.00    +0.000 A 
ATOM      7  N   UNL     1       4.767   4.177  17.547  0.00  0.00    +0.000 NA
BRANCH   4   8
ATOM      8  C   UNL     1       2.407   7.477  18.669  0.00  0.00    +0.000 A 
ATOM      9  C   UNL     1       1.911   7.678  19.970  0.00  0.00    +0.000 A 
ATOM     10  C   UNL     1       1.189   8.824  20.311  0.00  0.00    +0.000 A 
ATOM     11  C   UNL     1       0.934   9.805  19.348  0.00  0.00    +0.000 A 
ATOM     12  C   UNL     1       1.403   9.620  18.049  0.00  0.00    +0.000 A 
ATOM     13  C   UNL     1       2.125   8.476  17.710  0.00  0.00    +0.000 A 
ENDBRANCH   4   8
BRANCH   6  14
ATOM     14  C   UNL     1       3.141   2.519  18.425  0.00  0.00    +0.000 C 
ATOM     15  F   UNL     1       3.828   1.608  17.674  0.00  0.00    +0.000 F 
ATOM     16  F   UNL     1       3.313   2.120  19.717  0.00  0.00    +0.000 F 
ATOM     17  F   UNL     1       1.826   2.312  18.132  0.00  0.00    +0.000 F 
ENDBRANCH   6  14
ENDBRANCH   1   2
BRANCH   1  19
ATOM     18  C   UNL     1       7.107   5.843  19.150  0.00  0.00    +0.000 C 
ATOM     19  C   UNL     1       7.654   6.326  17.809  0.00  0.00    +0.000 C 
BRANCH  19  20
ATOM     20  C   UNL     1       7.746   7.857  17.823  0.00  0.00    +0.000 C 
ATOM     21  O   UNL     1       6.966   8.572  17.197  0.00  0.00    +0.000 OA
ATOM     22  N   UNL     1       8.739   8.348  18.645  0.00  0.00    +0.000 N 
ATOM     23  H   UNL     1       9.524   7.726  18.809  0.00  0.00    +0.000 HD
BRANCH  22  24
ATOM     24  C   UNL     1       8.913   9.703  18.965  0.00  0.00    +0.000 A 
ATOM     25  C   UNL     1       9.081  10.148  20.295  0.00  0.00    +0.000 A 
ATOM     26  C   UNL     1       9.508  11.456  20.557  0.00  0.00    +0.000 A 
ATOM     27  C   UNL     1       9.749  12.267  19.470  0.00  0.00    +0.000 A 
ATOM     28  C   UNL     1       9.488  11.853  18.181  0.00  0.00    +0.000 A 
ATOM     29  C   UNL     1       9.062  10.583  17.894  0.00  0.00    +0.000 A 
ATOM     30  O   UNL     1       9.833  12.792  17.257  0.00  0.00    +0.000 OA
ATOM     31  C   UNL     1      10.694  13.595  18.085  0.00  0.00    +0.000 C 
ATOM     32  O   UNL     1      10.354  13.489  19.485  0.00  0.00    +0.000 OA
ENDBRANCH  22  24
ENDBRANCH  19  20
ENDBRANCH   1  19
TORSDOF 6
ENDMDL
MODEL 9
REMARK VINA RESULT:      -8.4      0.973      1.633
REMARK  Name = 
REMARK  7 active torsions:
REMARK  status: ('A' for Active; 'I' for Inactive)
REMARK    1  A    between atoms: C_1  and  C_2
REMARK    2  A    between atoms: C_2  and  S_3
REMARK    3  A    between atoms: C_2  and  C_20
REMARK    4  A    between atoms: S_3  and  C_4
REMARK    5  A    between atoms: C_6  and  C_7
REMARK    6  A    between atoms: C_14  and  C_15
REMARK    7  A    between atoms: N_22  and  C_23
REMARK                            x       y       z     vdW  Elec       q    Type
REMARK                         _______ _______ _______ _____ _____    ______ ____
ROOT
ATOM      1  S   UNL     1       3.323   3.330  18.094  0.00  0.00    +0.000 S 
ENDROOT
BRANCH   1   2
ATOM      2  C   UNL     1       4.901   3.934  17.554  0.00  0.00    +0.000 A 
ATOM      3  N   UNL     1       5.173   3.893  16.245  0.00  0.00    +0.000 NA
ATOM      4  C   UNL     1       6.344   4.424  15.833  0.00  0.00    +0.000 A 
ATOM      5  C   UNL     1       7.231   4.991  16.729  0.00  0.00    +0.000 A 
ATOM      6  C   UNL     1       6.875   4.993  18.068  0.00  0.00    +0.000 A 
ATOM      7  N   UNL     1       5.701   4.463  18.489  0.00  0.00    +0.000 NA
BRANCH   4   8
ATOM      8  C   UNL     1       6.615   4.359  14.382  0.00  0.00    +0.000 A 
ATOM      9  C   UNL     1       5.984   3.427  13.537  0.00  0.00    +0.000 A 
ATOM     10  C   UNL     1       6.237   3.396  12.163  0.00  0.00    +0.000 A 
ATOM     11  C   UNL     1       7.141   4.297  11.594  0.00  0.00    +0.000 A 
ATOM     12  C   UNL     1       7.788   5.219  12.414  0.00  0.00    +0.000 A 
ATOM     13  C   UNL     1       7.535   5.251  13.786  0.00  0.00    +0.000 A 
ENDBRANCH   4   8
BRANCH   6  14
ATOM     14  C   UNL     1       7.809   5.630  19.087  0.00  0.00    +0.000 C 
ATOM     15  F   UNL     1       7.229   5.792  20.313  0.00  0.00    +0.000 F 
ATOM     16  F   UNL     1       8.936   4.898  19.317  0.00  0.00    +0.000 F 
ATOM     17  F   UNL     1       8.228   6.873  18.719  0.00  0.00    +0.000 F 
ENDBRANCH   6  14
ENDBRANCH   1   2
BRANCH   1  19
ATOM     18  C   UNL     1       3.050   2.581  20.754  0.00  0.00    +0.000 C 
ATOM     19  C   UNL     1       3.462   3.758  19.874  0.00  0.00    +0.000 C 
BRANCH  19  20
ATOM     20  C   UNL     1       2.593   4.974  20.216  0.00  0.00    +0.000 C 
ATOM     21  O   UNL     1       2.046   5.109  21.310  0.00  0.00    +0.000 OA
ATOM     22  N   UNL     1       2.534   5.918  19.213  0.00  0.00    +0.000 N 
ATOM     23  H   UNL     1       2.687   5.572  18.271  0.00  0.00    +0.000 HD
BRANCH  22  24
ATOM     24  C   UNL     1       1.955   7.189  19.345  0.00  0.00    +0.000 A 
ATOM     25  C   UNL     1       1.423   7.653  20.568  0.00  0.00    +0.000 A 
ATOM     26  C   UNL     1       1.093   9.004  20.732  0.00  0.00    +0.000 A 
ATOM     27  C   UNL     1       1.310   9.838  19.657  0.00  0.00    +0.000 A 
ATOM     28  C   UNL     1       1.736   9.357  18.438  0.00  0.00    +0.000 A 
ATOM     29  C   UNL     1       2.058   8.039  18.245  0.00  0.00    +0.000 A 
ATOM     30  O   UNL     1       1.922  10.351  17.526  0.00  0.00    +0.000 OA
ATOM     31  C   UNL     1       1.976  11.463  18.437  0.00  0.00    +0.000 C 
ATOM     32  O   UNL     1       1.251  11.200  19.659  0.00  0.00    +0.000 OA
ENDBRANCH  22  24
ENDBRANCH  19  20
ENDBRANCH   1  19
TORSDOF 6
ENDMDL
