MODEL 1
REMARK VINA RESULT:      -9.4      0.000      0.000
REMARK  Name = 
REMARK  1 active torsions:
REMARK  status: ('A' for Active; 'I' for Inactive)
REMARK    1  A    between atoms: C_4  and  C_5
REMARK                            x       y       z     vdW  Elec       q    Type
REMARK                         _______ _______ _______ _____ _____    ______ ____
ROOT
ATOM      1  O   UNL     1       3.708   1.139  18.501  0.00  0.00    +0.000 OA
ATOM      2  C   UNL     1       3.597   2.332  18.222  0.00  0.00    +0.000 C 
ATOM      3  C   UNL     1       4.064   2.892  16.911  0.00  0.00    +0.000 C 
ATOM      4  C   UNL     1       4.913   4.128  17.166  0.00  0.00    +0.000 C 
ATOM      5  S   UNL     1       3.829   5.474  17.698  0.00  0.00    +0.000 S 
ATOM      6  C   UNL     1       2.963   4.655  19.041  0.00  0.00    +0.000 A 
ATOM      7  C   UNL     1       2.226   5.410  19.976  0.00  0.00    +0.000 A 
ATOM      8  F   UNL     1       2.202   6.758  19.874  0.00  0.00    +0.000 F 
ATOM      9  C   UNL     1       1.541   4.840  21.055  0.00  0.00    +0.000 A 
ATOM     10  C   UNL     1       1.572   3.436  21.219  0.00  0.00    +0.000 A 
ATOM     11  C   UNL     1       2.262   2.671  20.297  0.00  0.00    +0.000 A 
ATOM     12  C   UNL     1       2.940   3.240  19.208  0.00  0.00    +0.000 A 
ENDROOT
BRANCH   4  13
ATOM     13  C   UNL     1       5.935   4.401  16.082  0.00  0.00    +0.000 A 
ATOM     14  C   UNL     1       7.155   4.972  16.431  0.00  0.00    +0.000 A 
ATOM     15  N   UNL     1       7.531   5.674  15.335  0.00  0.00    +0.000 N 
ATOM     16  C   UNL     1       7.154   4.935  14.230  0.00  0.00    +0.000 A 
ATOM     17  C   UNL     1       7.685   4.945  12.942  0.00  0.00    +0.000 A 
ATOM     18  C   UNL     1       7.078   4.105  12.015  0.00  0.00    +0.000 A 
ATOM     19  C   UNL     1       5.926   3.388  12.369  0.00  0.00    +0.000 A 
ATOM     20 CL   UNL     1       5.212   2.366  11.173  0.00  0.00    +0.000 Cl
ATOM     21  C   UNL     1       5.375   3.446  13.657  0.00  0.00    +0.000 A 
ATOM     22  C   UNL     1       6.046   4.184  14.656  0.00  0.00    +0.000 A 
ATOM     23  H   UNL     1       8.096   6.524  15.317  0.00  0.00    +0.000 HD
ENDBRANCH   4  13
TORSDOF 1
ENDMDL
MODEL 2
REMARK VINA RESULT:      -9.4      1.869      2.170
REMARK  Name = 
REMARK  1 active torsions:
REMARK  status: ('A' for Active; 'I' for Inactive)
REMARK    1  A    between atoms: C_4  and  C_5
REMARK                            x       y       z     vdW  Elec       q    Type
REMARK                         _______ _______ _______ _____ _____    ______ ____
ROOT
ATOM      1  O   UNL     1       1.510   5.707  17.627  0.00  0.00    +0.000 OA
ATOM      2  C   UNL     1       2.547   5.230  18.086  0.00  0.00    +0.000 C 
ATOM      3  C   UNL     1       3.902   5.637  17.586  0.00  0.00    +0.000 C 
ATOM      4  C   UNL     1       4.722   4.391  17.289  0.00  0.00    +0.000 C 
ATOM      5  S   UNL     1       5.198   3.625  18.856  0.00  0.00    +0.000 S 
ATOM      6  C   UNL     1       3.586   3.504  19.638  0.00  0.00    +0.000 A 
ATOM      7  C   UNL     1       3.403   2.677  20.765  0.00  0.00    +0.000 A 
ATOM      8  F   UNL     1       4.442   1.950  21.234  0.00  0.00    +0.000 F 
ATOM      9  C   UNL     1       2.173   2.523  21.414  0.00  0.00    +0.000 A 
ATOM     10  C   UNL     1       1.052   3.239  20.932  0.00  0.00    +0.000 A 
ATOM     11  C   UNL     1       1.214   4.080  19.848  0.00  0.00    +0.000 A 
ATOM     12  C   UNL     1       2.449   4.244  19.203  0.00  0.00    +0.000 A 
ENDROOT
BRANCH   4  13
ATOM     13  C   UNL     1       5.783   4.597  16.227  0.00  0.00    +0.000 A 
ATOM     14  C   UNL     1       7.009   5.141  16.593  0.00  0.00    +0.000 A 
ATOM     15  N   UNL     1       7.438   5.795  15.487  0.00  0.00    +0.000 N 
ATOM     16  C   UNL     1       7.070   5.032  14.395  0.00  0.00    +0.000 A 
ATOM     17  C   UNL     1       7.637   4.983  13.124  0.00  0.00    +0.000 A 
ATOM     18  C   UNL     1       7.030   4.131  12.207  0.00  0.00    +0.000 A 
ATOM     19  C   UNL     1       5.846   3.463  12.550  0.00  0.00    +0.000 A 
ATOM     20 CL   UNL     1       5.135   2.423  11.367  0.00  0.00    +0.000 Cl
ATOM     21  C   UNL     1       5.262   3.580  13.819  0.00  0.00    +0.000 A 
ATOM     22  C   UNL     1       5.927   4.330  14.813  0.00  0.00    +0.000 A 
ATOM     23  H   UNL     1       8.030   6.626  15.458  0.00  0.00    +0.000 HD
ENDBRANCH   4  13
TORSDOF 1
ENDMDL
MODEL 3
REMARK VINA RESULT:      -9.2      1.965      2.383
REMARK  Name = 
REMARK  1 active torsions:
REMARK  status: ('A' for Active; 'I' for Inactive)
REMARK    1  A    between atoms: C_4  and  C_5
REMARK                            x       y       z     vdW  Elec       q    Type
REMARK                         _______ _______ _______ _____ _____    ______ ____
ROOT
ATOM      1  O   UNL     1       3.083   7.201  18.686  0.00  0.00    +0.000 OA
ATOM      2  C   UNL     1       3.516   6.054  18.594  0.00  0.00    +0.000 C 
ATOM      3  C   UNL     1       4.870   5.756  18.020  0.00  0.00    +0.000 C 
ATOM      4  C   UNL     1       4.743   4.652  16.981  0.00  0.00    +0.000 C 
ATOM      5  S   UNL     1       4.429   3.090  17.834  0.00  0.00    +0.000 S 
ATOM      6  C   UNL     1       3.025   3.571  18.845  0.00  0.00    +0.000 A 
ATOM      7  C   UNL     1       2.223   2.589  19.461  0.00  0.00    +0.000 A 
ATOM      8  F   UNL     1       2.497   1.281  19.259  0.00  0.00    +0.000 F 
ATOM      9  C   UNL     1       1.106   2.892  20.248  0.00  0.00    +0.000 A 
ATOM     10  C   UNL     1       0.763   4.249  20.454  0.00  0.00    +0.000 A 
ATOM     11  C   UNL     1       1.553   5.230  19.885  0.00  0.00    +0.000 A 
ATOM     12  C   UNL     1       2.679   4.928  19.105  0.00  0.00    +0.000 A 
ENDROOT
BRANCH   4  13
ATOM     13  C   UNL     1       5.814   4.695  15.911  0.00  0.00    +0.000 A 
ATOM     14  C   UNL     1       7.097   5.110  16.254  0.00  0.00    +0.000 A 
ATOM     15  N   UNL     1       7.591   5.668  15.122  0.00  0.00    +0.000 N 
ATOM     16  C   UNL     1       7.132   4.910  14.061  0.00  0.00    +0.000 A 
ATOM     17  C   UNL     1       7.683   4.748  12.792  0.00  0.00    +0.000 A 
ATOM     18  C   UNL     1       6.978   3.936  11.910  0.00  0.00    +0.000 A 
ATOM     19  C   UNL     1       5.728   3.420  12.281  0.00  0.00    +0.000 A 
ATOM     20 CL   UNL     1       4.896   2.423  11.140  0.00  0.00    +0.000 Cl
ATOM     21  C   UNL     1       5.168   3.652  13.545  0.00  0.00    +0.000 A 
ATOM     22  C   UNL     1       5.920   4.359  14.507  0.00  0.00    +0.000 A 
ATOM     23  H   UNL     1       8.273   6.424  15.059  0.00  0.00    +0.000 HD
ENDBRANCH   4  13
TORSDOF 1
ENDMDL
MODEL 4
REMARK VINA RESULT:      -8.1      1.328      1.687
REMARK  Name = 
REMARK  1 active torsions:
REMARK  status: ('A' for Active; 'I' for Inactive)
REMARK    1  A    between atoms: C_4  and  C_5
REMARK                            x       y       z     vdW  Elec       q    Type
REMARK                         _______ _______ _______ _____ _____    ______ ____
ROOT
ATOM      1  O   UNL     1       3.297   3.116  19.342  0.00  0.00    +0.000 OA
ATOM      2  C   UNL     1       3.305   4.140  18.661  0.00  0.00    +0.000 C 
ATOM      3  C   UNL     1       3.821   4.159  17.252  0.00  0.00    +0.000 C 
ATOM      4  C   UNL     1       4.791   5.318  17.088  0.00  0.00    +0.000 C 
ATOM      5  S   UNL     1       3.851   6.862  17.084  0.00  0.00    +0.000 S 
ATOM      6  C   UNL     1       2.913   6.652  18.600  0.00  0.00    +0.000 A 
ATOM      7  C   UNL     1       2.259   7.753  19.190  0.00  0.00    +0.000 A 
ATOM      8  F   UNL     1       2.371   8.976  18.624  0.00  0.00    +0.000 F 
ATOM      9  C   UNL     1       1.525   7.665  20.378  0.00  0.00    +0.000 A 
ATOM     10  C   UNL     1       1.415   6.411  21.022  0.00  0.00    +0.000 A 
ATOM     11  C   UNL     1       2.021   5.310  20.446  0.00  0.00    +0.000 A 
ATOM     12  C   UNL     1       2.748   5.395  19.249  0.00  0.00    +0.000 A 
ENDROOT
BRANCH   4  13
ATOM     13  C   UNL     1       5.831   5.096  16.009  0.00  0.00    +0.000 A 
ATOM     14  C   UNL     1       7.174   5.294  16.313  0.00  0.00    +0.000 A 
ATOM     15  N   UNL     1       7.738   5.677  15.142  0.00  0.00    +0.000 N 
ATOM     16  C   UNL     1       7.129   4.947  14.140  0.00  0.00    +0.000 A 
ATOM     17  C   UNL     1       7.617   4.604  12.880  0.00  0.00    +0.000 A 
ATOM     18  C   UNL     1       6.760   3.876  12.061  0.00  0.00    +0.000 A 
ATOM     19  C   UNL     1       5.445   3.620  12.476  0.00  0.00    +0.000 A 
ATOM     20 CL   UNL     1       4.425   2.717  11.412  0.00  0.00    +0.000 Cl
ATOM     21  C   UNL     1       4.961   4.033  13.725  0.00  0.00    +0.000 A 
ATOM     22  C   UNL     1       5.846   4.654  14.631  0.00  0.00    +0.000 A 
ATOM     23  H   UNL     1       8.543   6.292  15.023  0.00  0.00    +0.000 HD
ENDBRANCH   4  13
TORSDOF 1
ENDMDL
MODEL 5
REMARK VINA RESULT:      -7.8      5.264      7.796
REMARK  Name = 
REMARK  1 active torsions:
REMARK  status: ('A' for Active; 'I' for Inactive)
REMARK    1  A    between atoms: C_4  and  C_5
REMARK                            x       y       z     vdW  Elec       q    Type
REMARK                         _______ _______ _______ _____ _____    ______ ____
ROOT
ATOM      1  O   UNL     1       4.826   5.427  17.395  0.00  0.00    +0.000 OA
ATOM      2  C   UNL     1       3.820   5.429  18.103  0.00  0.00    +0.000 C 
ATOM      3  C   UNL     1       2.703   6.411  17.899  0.00  0.00    +0.000 C 
ATOM      4  C   UNL     1       2.344   7.045  19.234  0.00  0.00    +0.000 C 
ATOM      5  S   UNL     1       1.483   5.817  20.244  0.00  0.00    +0.000 S 
ATOM      6  C   UNL     1       2.663   4.466  20.152  0.00  0.00    +0.000 A 
ATOM      7  C   UNL     1       2.575   3.385  21.052  0.00  0.00    +0.000 A 
ATOM      8  F   UNL     1       1.617   3.387  22.006  0.00  0.00    +0.000 F 
ATOM      9  C   UNL     1       3.469   2.308  21.048  0.00  0.00    +0.000 A 
ATOM     10  C   UNL     1       4.508   2.286  20.089  0.00  0.00    +0.000 A 
ATOM     11  C   UNL     1       4.596   3.320  19.176  0.00  0.00    +0.000 A 
ATOM     12  C   UNL     1       3.694   4.395  19.172  0.00  0.00    +0.000 A 
ENDROOT
BRANCH   4  13
ATOM     13  C   UNL     1       1.748   8.433  19.110  0.00  0.00    +0.000 A 
ATOM     14  C   UNL     1       1.728   9.051  17.864  0.00  0.00    +0.000 A 
ATOM     15  N   UNL     1       1.796  10.376  18.137  0.00  0.00    +0.000 N 
ATOM     16  C   UNL     1       1.043  10.596  19.275  0.00  0.00    +0.000 A 
ATOM     17  C   UNL     1       0.410  11.761  19.700  0.00  0.00    +0.000 A 
ATOM     18  C   UNL     1      -0.261  11.694  20.917  0.00  0.00    +0.000 A 
ATOM     19  C   UNL     1      -0.184  10.529  21.695  0.00  0.00    +0.000 A 
ATOM     20 CL   UNL     1      -1.033  10.507  23.200  0.00  0.00    +0.000 Cl
ATOM     21  C   UNL     1       0.515   9.390  21.270  0.00  0.00    +0.000 A 
ATOM     22  C   UNL     1       1.092   9.383  19.982  0.00  0.00    +0.000 A 
ATOM     23  H   UNL     1       2.214  11.101  17.553  0.00  0.00    +0.000 HD
ENDBRANCH   4  13
TORSDOF 1
ENDMDL
MODEL 6
REMARK VINA RESULT:      -7.8      5.418      8.127
REMARK  Name = 
REMARK  1 active torsions:
REMARK  status: ('A' for Active; 'I' for Inactive)
REMARK    1  A    between atoms: C_4  and  C_5
REMARK                            x       y       z     vdW  Elec       q    Type
REMARK                         _______ _______ _______ _____ _____    ______ ____
ROOT
ATOM      1  O   UNL     1       1.292   4.748  20.703  0.00  0.00    +0.000 OA
ATOM      2  C   UNL     1       2.039   5.404  19.978  0.00  0.00    +0.000 C 
ATOM      3  C   UNL     1       2.217   6.884  20.145  0.00  0.00    +0.000 C 
ATOM      4  C   UNL     1       2.061   7.564  18.794  0.00  0.00    +0.000 C 
ATOM      5  S   UNL     1       3.519   7.199  17.790  0.00  0.00    +0.000 S 
ATOM      6  C   UNL     1       3.540   5.408  17.925  0.00  0.00    +0.000 A 
ATOM      7  C   UNL     1       4.325   4.639  17.042  0.00  0.00    +0.000 A 
ATOM      8  F   UNL     1       5.037   5.256  16.072  0.00  0.00    +0.000 F 
ATOM      9  C   UNL     1       4.377   3.241  17.080  0.00  0.00    +0.000 A 
ATOM     10  C   UNL     1       3.618   2.555  18.056  0.00  0.00    +0.000 A 
ATOM     11  C   UNL     1       2.865   3.289  18.953  0.00  0.00    +0.000 A 
ATOM     12  C   UNL     1       2.821   4.691  18.924  0.00  0.00    +0.000 A 
ENDROOT
BRANCH   4  13
ATOM     13  C   UNL     1       1.579   8.998  18.885  0.00  0.00    +0.000 A 
ATOM     14  C   UNL     1       1.636   9.803  17.752  0.00  0.00    +0.000 A 
ATOM     15  N   UNL     1       1.802  11.059  18.231  0.00  0.00    +0.000 N 
ATOM     16  C   UNL     1       1.044  11.159  19.382  0.00  0.00    +0.000 A 
ATOM     17  C   UNL     1       0.495  12.291  19.980  0.00  0.00    +0.000 A 
ATOM     18  C   UNL     1      -0.207  12.089  21.164  0.00  0.00    +0.000 A 
ATOM     19  C   UNL     1      -0.239  10.815  21.749  0.00  0.00    +0.000 A 
ATOM     20 CL   UNL     1      -1.120  10.626  23.224  0.00  0.00    +0.000 Cl
ATOM     21  C   UNL     1       0.378   9.703  21.157  0.00  0.00    +0.000 A 
ATOM     22  C   UNL     1       0.981   9.850  19.889  0.00  0.00    +0.000 A 
ATOM     23  H   UNL     1       2.289  11.830  17.773  0.00  0.00    +0.000 HD
ENDBRANCH   4  13
TORSDOF 1
ENDMDL
MODEL 7
REMARK VINA RESULT:      -7.6      5.561      7.620
REMARK  Name = 
REMARK  1 active torsions:
REMARK  status: ('A' for Active; 'I' for Inactive)
REMARK    1  A    between atoms: C_4  and  C_5
REMARK                            x       y       z     vdW  Elec       q    Type
REMARK                         _______ _______ _______ _____ _____    ______ ____
ROOT
ATOM      1  O   UNL     1      -0.235  11.126  18.154  0.00  0.00    +0.000 OA
ATOM      2  C   UNL     1       0.276  10.593  19.138  0.00  0.00    +0.000 C 
ATOM      3  C   UNL     1       1.535   9.782  19.042  0.00  0.00    +0.000 C 
ATOM      4  C   UNL     1       1.332   8.456  19.758  0.00  0.00    +0.000 C 
ATOM      5  S   UNL     1       1.306   8.759  21.540  0.00  0.00    +0.000 S 
ATOM      6  C   UNL     1       0.055  10.046  21.612  0.00  0.00    +0.000 A 
ATOM      7  C   UNL     1      -0.541  10.389  22.842  0.00  0.00    +0.000 A 
ATOM      8  F   UNL     1      -0.190   9.720  23.963  0.00  0.00    +0.000 F 
ATOM      9  C   UNL     1      -1.532  11.370  22.968  0.00  0.00    +0.000 A 
ATOM     10  C   UNL     1      -1.954  12.067  21.812  0.00  0.00    +0.000 A 
ATOM     11  C   UNL     1      -1.361  11.770  20.600  0.00  0.00    +0.000 A 
ATOM     12  C   UNL     1      -0.360  10.795  20.473  0.00  0.00    +0.000 A 
ENDROOT
BRANCH   4  13
ATOM     13  C   UNL     1       2.200   7.335  19.223  0.00  0.00    +0.000 A 
ATOM     14  C   UNL     1       3.130   7.616  18.228  0.00  0.00    +0.000 A 
ATOM     15  N   UNL     1       3.241   6.462  17.526  0.00  0.00    +0.000 N 
ATOM     16  C   UNL     1       3.165   5.424  18.435  0.00  0.00    +0.000 A 
ATOM     17  C   UNL     1       3.670   4.129  18.337  0.00  0.00    +0.000 A 
ATOM     18  C   UNL     1       3.415   3.282  19.410  0.00  0.00    +0.000 A 
ATOM     19  C   UNL     1       2.592   3.712  20.462  0.00  0.00    +0.000 A 
ATOM     20 CL   UNL     1       2.305   2.612  21.763  0.00  0.00    +0.000 Cl
ATOM     21  C   UNL     1       2.044   5.002  20.503  0.00  0.00    +0.000 A 
ATOM     22  C   UNL     1       2.396   5.927  19.497  0.00  0.00    +0.000 A 
ATOM     23  H   UNL     1       3.463   6.367  16.535  0.00  0.00    +0.000 HD
ENDBRANCH   4  13
TORSDOF 1
ENDMDL
MODEL 8
REMARK VINA RESULT:      -7.5      6.135      8.267
REMARK  Name = 
REMARK  1 active torsions:
REMARK  status: ('A' for Active; 'I' for Inactive)
REMARK    1  A    between atoms: C_4  and  C_5
REMARK                            x       y       z     vdW  Elec       q    Type
REMARK                         _______ _______ _______ _____ _____    ______ ____
ROOT
ATOM      1  O   UNL     1       0.362   9.743  23.658  0.00  0.00    +0.000 OA
ATOM      2  C   UNL     1       0.009   9.796  22.480  0.00  0.00    +0.000 C 
ATOM      3  C   UNL     1       0.216   8.651  21.532  0.00  0.00    +0.000 C 
ATOM      4  C   UNL     1       0.855   9.169  20.253  0.00  0.00    +0.000 C 
ATOM      5  S   UNL     1      -0.382  10.105  19.326  0.00  0.00    +0.000 S 
ATOM      6  C   UNL     1      -0.930  11.238  20.608  0.00  0.00    +0.000 A 
ATOM      7  C   UNL     1      -1.678  12.384  20.270  0.00  0.00    +0.000 A 
ATOM      8  F   UNL     1      -1.952  12.643  18.972  0.00  0.00    +0.000 F 
ATOM      9  C   UNL     1      -2.123  13.316  21.214  0.00  0.00    +0.000 A 
ATOM     10  C   UNL     1      -1.824  13.102  22.580  0.00  0.00    +0.000 A 
ATOM     11  C   UNL     1      -1.119  11.968  22.939  0.00  0.00    +0.000 A 
ATOM     12  C   UNL     1      -0.681  11.027  21.994  0.00  0.00    +0.000 A 
ENDROOT
BRANCH   4  13
ATOM     13  C   UNL     1       1.683   8.131  19.521  0.00  0.00    +0.000 A 
ATOM     14  C   UNL     1       2.437   8.522  18.420  0.00  0.00    +0.000 A 
ATOM     15  N   UNL     1       2.493   7.420  17.634  0.00  0.00    +0.000 N 
ATOM     16  C   UNL     1       2.604   6.328  18.473  0.00  0.00    +0.000 A 
ATOM     17  C   UNL     1       3.148   5.071  18.215  0.00  0.00    +0.000 A 
ATOM     18  C   UNL     1       3.097   4.148  19.254  0.00  0.00    +0.000 A 
ATOM     19  C   UNL     1       2.425   4.469  20.442  0.00  0.00    +0.000 A 
ATOM     20 CL   UNL     1       2.389   3.279  21.695  0.00  0.00    +0.000 Cl
ATOM     21  C   UNL     1       1.831   5.722  20.651  0.00  0.00    +0.000 A 
ATOM     22  C   UNL     1       1.983   6.723  19.669  0.00  0.00    +0.000 A 
ATOM     23  H   UNL     1       2.567   7.397  16.617  0.00  0.00    +0.000 HD
ENDBRANCH   4  13
TORSDOF 1
ENDMDL
MODEL 9
REMARK VINA RESULT:      -7.5      5.486      7.446
REMARK  Name = 
REMARK  1 active torsions:
REMARK  status: ('A' for Active; 'I' for Inactive)
REMARK    1  A    between atoms: C_4  and  C_5
REMARK                            x       y       z     vdW  Elec       q    Type
REMARK                         _______ _______ _______ _____ _____    ______ ____
ROOT
ATOM      1  O   UNL     1       0.175   9.666  23.460  0.00  0.00    +0.000 OA
ATOM      2  C   UNL     1       0.216   9.649  22.230  0.00  0.00    +0.000 C 
ATOM      3  C   UNL     1       0.310   8.370  21.452  0.00  0.00    +0.000 C 
ATOM      4  C   UNL     1       1.424   8.490  20.423  0.00  0.00    +0.000 C 
ATOM      5  S   UNL     1       0.879   9.602  19.107  0.00  0.00    +0.000 S 
ATOM      6  C   UNL     1       0.377  11.017  20.092  0.00  0.00    +0.000 A 
ATOM      7  C   UNL     1       0.169  12.270  19.481  0.00  0.00    +0.000 A 
ATOM      8  F   UNL     1       0.382  12.408  18.153  0.00  0.00    +0.000 F 
ATOM      9  C   UNL     1      -0.206  13.418  20.189  0.00  0.00    +0.000 A 
ATOM     10  C   UNL     1      -0.403  13.324  21.587  0.00  0.00    +0.000 A 
ATOM     11  C   UNL     1      -0.235  12.098  22.204  0.00  0.00    +0.000 A 
ATOM     12  C   UNL     1       0.131  10.945  21.493  0.00  0.00    +0.000 A 
ENDROOT
BRANCH   4  13
ATOM     13  C   UNL     1       2.049   7.162  20.043  0.00  0.00    +0.000 A 
ATOM     14  C   UNL     1       1.666   6.014  20.728  0.00  0.00    +0.000 A 
ATOM     15  N   UNL     1       2.755   5.209  20.684  0.00  0.00    +0.000 N 
ATOM     16  C   UNL     1       3.335   5.378  19.442  0.00  0.00    +0.000 A 
ATOM     17  C   UNL     1       4.145   4.502  18.722  0.00  0.00    +0.000 A 
ATOM     18  C   UNL     1       4.613   4.957  17.494  0.00  0.00    +0.000 A 
ATOM     19  C   UNL     1       4.354   6.276  17.092  0.00  0.00    +0.000 A 
ATOM     20 CL   UNL     1       4.968   6.787  15.559  0.00  0.00    +0.000 Cl
ATOM     21  C   UNL     1       3.588   7.158  17.867  0.00  0.00    +0.000 A 
ATOM     22  C   UNL     1       2.988   6.682  19.052  0.00  0.00    +0.000 A 
ATOM     23  H   UNL     1       3.032   4.515  21.379  0.00  0.00    +0.000 HD
ENDBRANCH   4  13
TORSDOF 1
ENDMDL
