MODEL 1
REMARK VINA RESULT:      -7.3      0.000      0.000
REMARK  Name = 
REMARK  7 active torsions:
REMARK  status: ('A' for Active; 'I' for Inactive)
REMARK    1  A    between atoms: C_2  and  C_3
REMARK    2  A    between atoms: C_2  and  C_15
REMARK    3  A    between atoms: C_3  and  C_4
REMARK    4  A    between atoms: C_4  and  C_5
REMARK    5  A    between atoms: C_5  and  C_6
REMARK    6  A    between atoms: C_6  and  C_7
REMARK    7  A    between atoms: C_7  and  C_9
REMARK                            x       y       z     vdW  Elec       q    Type
REMARK                         _______ _______ _______ _____ _____    ______ ____
ROOT
ATOM      1  C   UNL     1       5.190   5.777  18.404  0.00  0.00    +0.000 C 
ENDROOT
BRANCH   1   2
ATOM      2  C   UNL     1       4.112   6.499  17.595  0.00  0.00    +0.000 C 
BRANCH   2   4
ATOM      3  O   UNL     1       2.247   7.691  18.553  0.00  0.00    +0.000 OA
ATOM      4  C   UNL     1       2.790   6.613  18.325  0.00  0.00    +0.000 C 
BRANCH   4   5
ATOM      5  C   UNL     1       2.152   5.352  18.802  0.00  0.00    +0.000 A 
ATOM      6  C   UNL     1       1.811   4.308  17.932  0.00  0.00    +0.000 A 
ATOM      7  C   UNL     1       1.200   3.153  18.426  0.00  0.00    +0.000 A 
ATOM      8  C   UNL     1       0.937   3.033  19.789  0.00  0.00    +0.000 A 
ATOM      9  C   UNL     1       1.279   4.065  20.659  0.00  0.00    +0.000 A 
ATOM     10  C   UNL     1       1.879   5.225  20.169  0.00  0.00    +0.000 A 
ENDBRANCH   4   5
ENDBRANCH   2   4
ENDBRANCH   1   2
BRANCH   1  11
ATOM     11  C   UNL     1       5.579   4.429  17.785  0.00  0.00    +0.000 C 
BRANCH  11  12
ATOM     12  C   UNL     1       7.005   4.422  17.232  0.00  0.00    +0.000 C 
BRANCH  12  13
ATOM     13  C   UNL     1       7.188   5.370  16.064  0.00  0.00    +0.000 C 
ATOM     14  O   UNL     1       7.504   6.549  16.206  0.00  0.00    +0.000 OA
BRANCH  13  15
ATOM     15  C   UNL     1       6.937   4.839  14.694  0.00  0.00    +0.000 A 
ATOM     16  C   UNL     1       7.774   5.269  13.658  0.00  0.00    +0.000 A 
ATOM     17  C   UNL     1       7.570   4.815  12.356  0.00  0.00    +0.000 A 
ATOM     18  C   UNL     1       6.537   3.919  12.085  0.00  0.00    +0.000 A 
ATOM     19  C   UNL     1       5.709   3.473  13.114  0.00  0.00    +0.000 A 
ATOM     20  C   UNL     1       5.904   3.935  14.418  0.00  0.00    +0.000 A 
ENDBRANCH  13  15
ENDBRANCH  12  13
ENDBRANCH  11  12
ENDBRANCH   1  11
TORSDOF 7
ENDMDL
MODEL 2
REMARK VINA RESULT:      -7.2      2.545      6.454
REMARK  Name = 
REMARK  7 active torsions:
REMARK  status: ('A' for Active; 'I' for Inactive)
REMARK    1  A    between atoms: C_2  and  C_3
REMARK    2  A    between atoms: C_2  and  C_15
REMARK    3  A    between atoms: C_3  and  C_4
REMARK    4  A    between atoms: C_4  and  C_5
REMARK    5  A    between atoms: C_5  and  C_6
REMARK    6  A    between atoms: C_6  and  C_7
REMARK    7  A    between atoms: C_7  and  C_9
REMARK                            x       y       z     vdW  Elec       q    Type
REMARK                         _______ _______ _______ _____ _____    ______ ____
ROOT
ATOM      1  C   UNL     1       2.168   2.325  17.939  0.00  0.00    +0.000 C 
ENDROOT
BRANCH   1   2
ATOM      2  C   UNL     1       3.606   1.812  18.017  0.00  0.00    +0.000 C 
BRANCH   2   4
ATOM      3  O   UNL     1       4.948   2.717  19.806  0.00  0.00    +0.000 OA
ATOM      4  C   UNL     1       4.563   2.805  18.642  0.00  0.00    +0.000 C 
BRANCH   4   5
ATOM      5  C   UNL     1       5.023   3.947  17.799  0.00  0.00    +0.000 A 
ATOM      6  C   UNL     1       4.918   3.939  16.402  0.00  0.00    +0.000 A 
ATOM      7  C   UNL     1       5.379   5.026  15.656  0.00  0.00    +0.000 A 
ATOM      8  C   UNL     1       5.937   6.127  16.302  0.00  0.00    +0.000 A 
ATOM      9  C   UNL     1       6.039   6.143  17.691  0.00  0.00    +0.000 A 
ATOM     10  C   UNL     1       5.591   5.055  18.440  0.00  0.00    +0.000 A 
ENDBRANCH   4   5
ENDBRANCH   2   4
ENDBRANCH   1   2
BRANCH   1  11
ATOM     11  C   UNL     1       1.358   1.985  19.196  0.00  0.00    +0.000 C 
BRANCH  11  12
ATOM     12  C   UNL     1       0.688   3.211  19.818  0.00  0.00    +0.000 C 
BRANCH  12  13
ATOM     13  C   UNL     1       1.679   4.153  20.473  0.00  0.00    +0.000 C 
ATOM     14  O   UNL     1       2.283   3.871  21.505  0.00  0.00    +0.000 OA
BRANCH  13  15
ATOM     15  C   UNL     1       1.889   5.487  19.842  0.00  0.00    +0.000 A 
ATOM     16  C   UNL     1       1.803   6.621  20.656  0.00  0.00    +0.000 A 
ATOM     17  C   UNL     1       1.975   7.893  20.111  0.00  0.00    +0.000 A 
ATOM     18  C   UNL     1       2.248   8.036  18.750  0.00  0.00    +0.000 A 
ATOM     19  C   UNL     1       2.351   6.909  17.936  0.00  0.00    +0.000 A 
ATOM     20  C   UNL     1       2.168   5.634  18.477  0.00  0.00    +0.000 A 
ENDBRANCH  13  15
ENDBRANCH  12  13
ENDBRANCH  11  12
ENDBRANCH   1  11
TORSDOF 7
ENDMDL
MODEL 3
REMARK VINA RESULT:      -7.1      0.995      7.336
REMARK  Name = 
REMARK  7 active torsions:
REMARK  status: ('A' for Active; 'I' for Inactive)
REMARK    1  A    between atoms: C_2  and  C_3
REMARK    2  A    between atoms: C_2  and  C_15
REMARK    3  A    between atoms: C_3  and  C_4
REMARK    4  A    between atoms: C_4  and  C_5
REMARK    5  A    between atoms: C_5  and  C_6
REMARK    6  A    between atoms: C_6  and  C_7
REMARK    7  A    between atoms: C_7  and  C_9
REMARK                            x       y       z     vdW  Elec       q    Type
REMARK                         _______ _______ _______ _____ _____    ______ ____
ROOT
ATOM      1  C   UNL     1       4.910   4.117  17.859  0.00  0.00    +0.000 C 
ENDROOT
BRANCH   1   2
ATOM      2  C   UNL     1       5.085   4.152  16.341  0.00  0.00    +0.000 C 
BRANCH   2   4
ATOM      3  O   UNL     1       7.435   4.552  16.708  0.00  0.00    +0.000 OA
ATOM      4  C   UNL     1       6.517   4.386  15.908  0.00  0.00    +0.000 C 
BRANCH   4   5
ATOM      5  C   UNL     1       6.798   4.442  14.444  0.00  0.00    +0.000 A 
ATOM      6  C   UNL     1       7.723   5.337  13.891  0.00  0.00    +0.000 A 
ATOM      7  C   UNL     1       7.939   5.362  12.511  0.00  0.00    +0.000 A 
ATOM      8  C   UNL     1       7.240   4.488  11.681  0.00  0.00    +0.000 A 
ATOM      9  C   UNL     1       6.323   3.591  12.226  0.00  0.00    +0.000 A 
ATOM     10  C   UNL     1       6.096   3.571  13.602  0.00  0.00    +0.000 A 
ENDBRANCH   4   5
ENDBRANCH   2   4
ENDBRANCH   1   2
BRANCH   1  11
ATOM     11  C   UNL     1       4.871   5.521  18.474  0.00  0.00    +0.000 C 
BRANCH  11  12
ATOM     12  C   UNL     1       3.612   6.301  18.091  0.00  0.00    +0.000 C 
BRANCH  12  13
ATOM     13  C   UNL     1       2.578   6.328  19.198  0.00  0.00    +0.000 C 
ATOM     14  O   UNL     1       2.147   7.372  19.681  0.00  0.00    +0.000 OA
BRANCH  13  15
ATOM     15  C   UNL     1       2.100   5.022  19.734  0.00  0.00    +0.000 A 
ATOM     16  C   UNL     1       2.436   4.688  21.050  0.00  0.00    +0.000 A 
ATOM     17  C   UNL     1       2.027   3.470  21.593  0.00  0.00    +0.000 A 
ATOM     18  C   UNL     1       1.270   2.585  20.825  0.00  0.00    +0.000 A 
ATOM     19  C   UNL     1       0.919   2.918  19.518  0.00  0.00    +0.000 A 
ATOM     20  C   UNL     1       1.335   4.133  18.968  0.00  0.00    +0.000 A 
ENDBRANCH  13  15
ENDBRANCH  12  13
ENDBRANCH  11  12
ENDBRANCH   1  11
TORSDOF 7
ENDMDL
MODEL 4
REMARK VINA RESULT:      -7.0      1.704      6.842
REMARK  Name = 
REMARK  7 active torsions:
REMARK  status: ('A' for Active; 'I' for Inactive)
REMARK    1  A    between atoms: C_2  and  C_3
REMARK    2  A    between atoms: C_2  and  C_15
REMARK    3  A    between atoms: C_3  and  C_4
REMARK    4  A    between atoms: C_4  and  C_5
REMARK    5  A    between atoms: C_5  and  C_6
REMARK    6  A    between atoms: C_6  and  C_7
REMARK    7  A    between atoms: C_7  and  C_9
REMARK                            x       y       z     vdW  Elec       q    Type
REMARK                         _______ _______ _______ _____ _____    ______ ____
ROOT
ATOM      1  C   UNL     1       4.347   4.229  16.400  0.00  0.00    +0.000 C 
ENDROOT
BRANCH   1   2
ATOM      2  C   UNL     1       5.710   3.768  15.885  0.00  0.00    +0.000 C 
BRANCH   2   4
ATOM      3  O   UNL     1       7.006   5.228  14.468  0.00  0.00    +0.000 OA
ATOM      4  C   UNL     1       6.663   4.911  15.604  0.00  0.00    +0.000 C 
BRANCH   4   5
ATOM      5  C   UNL     1       7.217   5.653  16.774  0.00  0.00    +0.000 A 
ATOM      6  C   UNL     1       7.634   5.005  17.944  0.00  0.00    +0.000 A 
ATOM      7  C   UNL     1       8.131   5.747  19.019  0.00  0.00    +0.000 A 
ATOM      8  C   UNL     1       8.221   7.134  18.925  0.00  0.00    +0.000 A 
ATOM      9  C   UNL     1       7.813   7.783  17.762  0.00  0.00    +0.000 A 
ATOM     10  C   UNL     1       7.306   7.048  16.691  0.00  0.00    +0.000 A 
ENDBRANCH   4   5
ENDBRANCH   2   4
ENDBRANCH   1   2
BRANCH   1  11
ATOM     11  C   UNL     1       4.365   4.539  17.902  0.00  0.00    +0.000 C 
BRANCH  11  12
ATOM     12  C   UNL     1       4.015   5.996  18.209  0.00  0.00    +0.000 C 
BRANCH  12  13
ATOM     13  C   UNL     1       2.712   6.140  18.968  0.00  0.00    +0.000 C 
ATOM     14  O   UNL     1       2.116   7.210  19.073  0.00  0.00    +0.000 OA
BRANCH  13  15
ATOM     15  C   UNL     1       2.161   4.928  19.639  0.00  0.00    +0.000 A 
ATOM     16  C   UNL     1       2.509   4.699  20.974  0.00  0.00    +0.000 A 
ATOM     17  C   UNL     1       2.033   3.570  21.641  0.00  0.00    +0.000 A 
ATOM     18  C   UNL     1       1.198   2.671  20.979  0.00  0.00    +0.000 A 
ATOM     19  C   UNL     1       0.834   2.901  19.652  0.00  0.00    +0.000 A 
ATOM     20  C   UNL     1       1.317   4.025  18.979  0.00  0.00    +0.000 A 
ENDBRANCH  13  15
ENDBRANCH  12  13
ENDBRANCH  11  12
ENDBRANCH   1  11
TORSDOF 7
ENDMDL
MODEL 5
REMARK VINA RESULT:      -7.0      3.263      5.820
REMARK  Name = 
REMARK  7 active torsions:
REMARK  status: ('A' for Active; 'I' for Inactive)
REMARK    1  A    between atoms: C_2  and  C_3
REMARK    2  A    between atoms: C_2  and  C_15
REMARK    3  A    between atoms: C_3  and  C_4
REMARK    4  A    between atoms: C_4  and  C_5
REMARK    5  A    between atoms: C_5  and  C_6
REMARK    6  A    between atoms: C_6  and  C_7
REMARK    7  A    between atoms: C_7  and  C_9
REMARK                            x       y       z     vdW  Elec       q    Type
REMARK                         _______ _______ _______ _____ _____    ______ ____
ROOT
ATOM      1  C   UNL     1       3.854   7.275  17.365  0.00  0.00    +0.000 C 
ENDROOT
BRANCH   1   2
ATOM      2  C   UNL     1       2.570   7.306  18.194  0.00  0.00    +0.000 C 
BRANCH   2   4
ATOM      3  O   UNL     1       2.061   9.529  17.408  0.00  0.00    +0.000 OA
ATOM      4  C   UNL     1       1.957   8.687  18.297  0.00  0.00    +0.000 C 
BRANCH   4   5
ATOM      5  C   UNL     1       1.224   9.027  19.551  0.00  0.00    +0.000 A 
ATOM      6  C   UNL     1       1.396   8.305  20.740  0.00  0.00    +0.000 A 
ATOM      7  C   UNL     1       0.673   8.654  21.884  0.00  0.00    +0.000 A 
ATOM      8  C   UNL     1      -0.214   9.727  21.847  0.00  0.00    +0.000 A 
ATOM      9  C   UNL     1      -0.385  10.452  20.670  0.00  0.00    +0.000 A 
ATOM     10  C   UNL     1       0.326  10.101  19.522  0.00  0.00    +0.000 A 
ENDBRANCH   4   5
ENDBRANCH   2   4
ENDBRANCH   1   2
BRANCH   1  11
ATOM     11  C   UNL     1       4.572   5.924  17.454  0.00  0.00    +0.000 C 
BRANCH  11  12
ATOM     12  C   UNL     1       5.030   5.588  18.874  0.00  0.00    +0.000 C 
BRANCH  12  13
ATOM     13  C   UNL     1       4.669   4.177  19.291  0.00  0.00    +0.000 C 
ATOM     14  O   UNL     1       5.507   3.292  19.443  0.00  0.00    +0.000 OA
BRANCH  13  15
ATOM     15  C   UNL     1       3.225   3.859  19.486  0.00  0.00    +0.000 A 
ATOM     16  C   UNL     1       2.645   2.896  18.655  0.00  0.00    +0.000 A 
ATOM     17  C   UNL     1       1.294   2.575  18.787  0.00  0.00    +0.000 A 
ATOM     18  C   UNL     1       0.520   3.208  19.760  0.00  0.00    +0.000 A 
ATOM     19  C   UNL     1       1.096   4.157  20.603  0.00  0.00    +0.000 A 
ATOM     20  C   UNL     1       2.446   4.488  20.466  0.00  0.00    +0.000 A 
ENDBRANCH  13  15
ENDBRANCH  12  13
ENDBRANCH  11  12
ENDBRANCH   1  11
TORSDOF 7
ENDMDL
MODEL 6
REMARK VINA RESULT:      -7.0      1.483      6.980
REMARK  Name = 
REMARK  7 active torsions:
REMARK  status: ('A' for Active; 'I' for Inactive)
REMARK    1  A    between atoms: C_2  and  C_3
REMARK    2  A    between atoms: C_2  and  C_15
REMARK    3  A    between atoms: C_3  and  C_4
REMARK    4  A    between atoms: C_4  and  C_5
REMARK    5  A    between atoms: C_5  and  C_6
REMARK    6  A    between atoms: C_6  and  C_7
REMARK    7  A    between atoms: C_7  and  C_9
REMARK                            x       y       z     vdW  Elec       q    Type
REMARK                         _______ _______ _______ _____ _____    ______ ____
ROOT
ATOM      1  C   UNL     1       5.579   5.109  18.258  0.00  0.00    +0.000 C 
ENDROOT
BRANCH   1   2
ATOM      2  C   UNL     1       5.956   5.640  16.874  0.00  0.00    +0.000 C 
BRANCH   2   4
ATOM      3  O   UNL     1       8.023   4.397  16.811  0.00  0.00    +0.000 OA
ATOM      4  C   UNL     1       7.050   4.836  16.203  0.00  0.00    +0.000 C 
BRANCH   4   5
ATOM      5  C   UNL     1       6.934   4.602  14.734  0.00  0.00    +0.000 A 
ATOM      6  C   UNL     1       6.016   3.695  14.189  0.00  0.00    +0.000 A 
ATOM      7  C   UNL     1       5.958   3.499  12.806  0.00  0.00    +0.000 A 
ATOM      8  C   UNL     1       6.808   4.214  11.966  0.00  0.00    +0.000 A 
ATOM      9  C   UNL     1       7.719   5.122  12.502  0.00  0.00    +0.000 A 
ATOM     10  C   UNL     1       7.788   5.312  13.882  0.00  0.00    +0.000 A 
ENDBRANCH   4   5
ENDBRANCH   2   4
ENDBRANCH   1   2
BRANCH   1  11
ATOM     11  C   UNL     1       4.773   3.807  18.183  0.00  0.00    +0.000 C 
BRANCH  11  12
ATOM     12  C   UNL     1       3.654   3.862  17.142  0.00  0.00    +0.000 C 
BRANCH  12  13
ATOM     13  C   UNL     1       2.296   4.147  17.752  0.00  0.00    +0.000 C 
ATOM     14  O   UNL     1       1.312   3.440  17.549  0.00  0.00    +0.000 OA
BRANCH  13  15
ATOM     15  C   UNL     1       2.161   5.362  18.606  0.00  0.00    +0.000 A 
ATOM     16  C   UNL     1       2.365   6.611  18.011  0.00  0.00    +0.000 A 
ATOM     17  C   UNL     1       2.266   7.776  18.771  0.00  0.00    +0.000 A 
ATOM     18  C   UNL     1       1.950   7.698  20.127  0.00  0.00    +0.000 A 
ATOM     19  C   UNL     1       1.729   6.457  20.723  0.00  0.00    +0.000 A 
ATOM     20  C   UNL     1       1.838   5.288  19.967  0.00  0.00    +0.000 A 
ENDBRANCH  13  15
ENDBRANCH  12  13
ENDBRANCH  11  12
ENDBRANCH   1  11
TORSDOF 7
ENDMDL
MODEL 7
REMARK VINA RESULT:      -7.0      0.295      1.120
REMARK  Name = 
REMARK  7 active torsions:
REMARK  status: ('A' for Active; 'I' for Inactive)
REMARK    1  A    between atoms: C_2  and  C_3
REMARK    2  A    between atoms: C_2  and  C_15
REMARK    3  A    between atoms: C_3  and  C_4
REMARK    4  A    between atoms: C_4  and  C_5
REMARK    5  A    between atoms: C_5  and  C_6
REMARK    6  A    between atoms: C_6  and  C_7
REMARK    7  A    between atoms: C_7  and  C_9
REMARK                            x       y       z     vdW  Elec       q    Type
REMARK                         _______ _______ _______ _____ _____    ______ ____
ROOT
ATOM      1  C   UNL     1       5.276   6.350  17.771  0.00  0.00    +0.000 C 
ENDROOT
BRANCH   1   2
ATOM      2  C   UNL     1       3.836   6.359  17.259  0.00  0.00    +0.000 C 
BRANCH   2   4
ATOM      3  O   UNL     1       2.514   7.626  18.829  0.00  0.00    +0.000 OA
ATOM      4  C   UNL     1       2.810   6.529  18.360  0.00  0.00    +0.000 C 
BRANCH   4   5
ATOM      5  C   UNL     1       2.164   5.298  18.902  0.00  0.00    +0.000 A 
ATOM      6  C   UNL     1       1.867   5.144  20.262  0.00  0.00    +0.000 A 
ATOM      7  C   UNL     1       1.277   3.965  20.723  0.00  0.00    +0.000 A 
ATOM      8  C   UNL     1       0.974   2.942  19.827  0.00  0.00    +0.000 A 
ATOM      9  C   UNL     1       1.262   3.092  18.473  0.00  0.00    +0.000 A 
ATOM     10  C   UNL     1       1.862   4.263  18.010  0.00  0.00    +0.000 A 
ENDBRANCH   4   5
ENDBRANCH   2   4
ENDBRANCH   1   2
BRANCH   1  11
ATOM     11  C   UNL     1       5.759   4.940  18.130  0.00  0.00    +0.000 C 
BRANCH  11  12
ATOM     12  C   UNL     1       6.979   4.506  17.314  0.00  0.00    +0.000 C 
BRANCH  12  13
ATOM     13  C   UNL     1       7.231   5.396  16.115  0.00  0.00    +0.000 C 
ATOM     14  O   UNL     1       7.648   6.547  16.215  0.00  0.00    +0.000 OA
BRANCH  13  15
ATOM     15  C   UNL     1       6.920   4.846  14.764  0.00  0.00    +0.000 A 
ATOM     16  C   UNL     1       7.735   5.229  13.694  0.00  0.00    +0.000 A 
ATOM     17  C   UNL     1       7.477   4.755  12.408  0.00  0.00    +0.000 A 
ATOM     18  C   UNL     1       6.408   3.886  12.189  0.00  0.00    +0.000 A 
ATOM     19  C   UNL     1       5.601   3.487  13.254  0.00  0.00    +0.000 A 
ATOM     20  C   UNL     1       5.852   3.968  14.541  0.00  0.00    +0.000 A 
ENDBRANCH  13  15
ENDBRANCH  12  13
ENDBRANCH  11  12
ENDBRANCH   1  11
TORSDOF 7
ENDMDL
MODEL 8
REMARK VINA RESULT:      -7.0      1.389      2.115
REMARK  Name = 
REMARK  7 active torsions:
REMARK  status: ('A' for Active; 'I' for Inactive)
REMARK    1  A    between atoms: C_2  and  C_3
REMARK    2  A    between atoms: C_2  and  C_15
REMARK    3  A    between atoms: C_3  and  C_4
REMARK    4  A    between atoms: C_4  and  C_5
REMARK    5  A    between atoms: C_5  and  C_6
REMARK    6  A    between atoms: C_6  and  C_7
REMARK    7  A    between atoms: C_7  and  C_9
REMARK                            x       y       z     vdW  Elec       q    Type
REMARK                         _______ _______ _______ _____ _____    ______ ____
ROOT
ATOM      1  C   UNL     1       4.478   4.170  17.330  0.00  0.00    +0.000 C 
ENDROOT
BRANCH   1   2
ATOM      2  C   UNL     1       3.207   3.478  16.838  0.00  0.00    +0.000 C 
BRANCH   2   4
ATOM      3  O   UNL     1       0.970   4.350  17.064  0.00  0.00    +0.000 OA
ATOM      4  C   UNL     1       1.968   3.882  17.608  0.00  0.00    +0.000 C 
BRANCH   4   5
ATOM      5  C   UNL     1       1.991   3.721  19.091  0.00  0.00    +0.000 A 
ATOM      6  C   UNL     1       2.129   4.811  19.961  0.00  0.00    +0.000 A 
ATOM      7  C   UNL     1       2.162   4.606  21.343  0.00  0.00    +0.000 A 
ATOM      8  C   UNL     1       2.048   3.317  21.859  0.00  0.00    +0.000 A 
ATOM      9  C   UNL     1       1.904   2.231  20.998  0.00  0.00    +0.000 A 
ATOM     10  C   UNL     1       1.882   2.429  19.618  0.00  0.00    +0.000 A 
ENDBRANCH   4   5
ENDBRANCH   2   4
ENDBRANCH   1   2
BRANCH   1  11
ATOM     11  C   UNL     1       4.383   5.698  17.238  0.00  0.00    +0.000 C 
BRANCH  11  12
ATOM     12  C   UNL     1       5.228   6.276  16.101  0.00  0.00    +0.000 C 
BRANCH  12  13
ATOM     13  C   UNL     1       6.450   5.436  15.791  0.00  0.00    +0.000 C 
ATOM     14  O   UNL     1       7.350   5.244  16.605  0.00  0.00    +0.000 OA
BRANCH  13  15
ATOM     15  C   UNL     1       6.563   4.854  14.423  0.00  0.00    +0.000 A 
ATOM     16  C   UNL     1       7.603   5.301  13.601  0.00  0.00    +0.000 A 
ATOM     17  C   UNL     1       7.742   4.800  12.308  0.00  0.00    +0.000 A 
ATOM     18  C   UNL     1       6.849   3.839  11.834  0.00  0.00    +0.000 A 
ATOM     19  C   UNL     1       5.820   3.376  12.653  0.00  0.00    +0.000 A 
ATOM     20  C   UNL     1       5.672   3.884  13.946  0.00  0.00    +0.000 A 
ENDBRANCH  13  15
ENDBRANCH  12  13
ENDBRANCH  11  12
ENDBRANCH   1  11
TORSDOF 7
ENDMDL
MODEL 9
REMARK VINA RESULT:      -6.9      2.424      6.572
REMARK  Name = 
REMARK  7 active torsions:
REMARK  status: ('A' for Active; 'I' for Inactive)
REMARK    1  A    between atoms: C_2  and  C_3
REMARK    2  A    between atoms: C_2  and  C_15
REMARK    3  A    between atoms: C_3  and  C_4
REMARK    4  A    between atoms: C_4  and  C_5
REMARK    5  A    between atoms: C_5  and  C_6
REMARK    6  A    between atoms: C_6  and  C_7
REMARK    7  A    between atoms: C_7  and  C_9
REMARK                            x       y       z     vdW  Elec       q    Type
REMARK                         _______ _______ _______ _____ _____    ______ ____
ROOT
ATOM      1  C   UNL     1       3.373   3.347  17.385  0.00  0.00    +0.000 C 
ENDROOT
BRANCH   1   2
ATOM      2  C   UNL     1       3.990   4.333  16.393  0.00  0.00    +0.000 C 
BRANCH   2   4
ATOM      3  O   UNL     1       6.043   3.328  15.624  0.00  0.00    +0.000 OA
ATOM      4  C   UNL     1       5.495   4.209  16.283  0.00  0.00    +0.000 C 
BRANCH   4   5
ATOM      5  C   UNL     1       6.328   5.191  17.036  0.00  0.00    +0.000 A 
ATOM      6  C   UNL     1       6.318   6.561  16.746  0.00  0.00    +0.000 A 
ATOM      7  C   UNL     1       7.129   7.439  17.470  0.00  0.00    +0.000 A 
ATOM      8  C   UNL     1       7.945   6.953  18.489  0.00  0.00    +0.000 A 
ATOM      9  C   UNL     1       7.955   5.592  18.785  0.00  0.00    +0.000 A 
ATOM     10  C   UNL     1       7.155   4.710  18.058  0.00  0.00    +0.000 A 
ENDBRANCH   4   5
ENDBRANCH   2   4
ENDBRANCH   1   2
BRANCH   1  11
ATOM     11  C   UNL     1       2.056   3.862  17.977  0.00  0.00    +0.000 C 
BRANCH  11  12
ATOM     12  C   UNL     1       2.214   4.384  19.407  0.00  0.00    +0.000 C 
BRANCH  12  13
ATOM     13  C   UNL     1       3.130   5.588  19.495  0.00  0.00    +0.000 C 
ATOM     14  O   UNL     1       4.315   5.501  19.810  0.00  0.00    +0.000 OA
BRANCH  13  15
ATOM     15  C   UNL     1       2.543   6.929  19.218  0.00  0.00    +0.000 A 
ATOM     16  C   UNL     1       1.833   7.562  20.243  0.00  0.00    +0.000 A 
ATOM     17  C   UNL     1       1.250   8.811  20.028  0.00  0.00    +0.000 A 
ATOM     18  C   UNL     1       1.385   9.438  18.790  0.00  0.00    +0.000 A 
ATOM     19  C   UNL     1       2.105   8.821  17.768  0.00  0.00    +0.000 A 
ATOM     20  C   UNL     1       2.681   7.565  17.977  0.00  0.00    +0.000 A 
ENDBRANCH  13  15
ENDBRANCH  12  13
ENDBRANCH  11  12
ENDBRANCH   1  11
TORSDOF 7
ENDMDL
