MODEL 1
REMARK VINA RESULT:      -9.8      0.000      0.000
REMARK  Name = 
REMARK  4 active torsions:
REMARK  status: ('A' for Active; 'I' for Inactive)
REMARK    1  A    between atoms: C_9  and  C_10
REMARK    2  A    between atoms: C_13  and  O_14
REMARK    3  A    between atoms: N_18  and  C_19
REMARK    4  A    between atoms: C_23  and  C_24
REMARK                            x       y       z     vdW  Elec       q    Type
REMARK                         _______ _______ _______ _____ _____    ______ ____
ROOT
ATOM      1  O   UNL     1       4.359   2.267  17.529  0.00  0.00    +0.000 OA
ATOM      2  C   UNL     1       3.972   3.402  17.809  0.00  0.00    +0.000 A 
ATOM      3  C   UNL     1       3.001   3.503  18.905  0.00  0.00    +0.000 A 
ATOM      4  C   UNL     1       2.689   2.347  19.651  0.00  0.00    +0.000 A 
ATOM      5  C   UNL     1       1.726   2.393  20.650  0.00  0.00    +0.000 A 
ATOM      6  C   UNL     1       1.021   3.570  20.862  0.00  0.00    +0.000 A 
ATOM      7  C   UNL     1       1.310   4.708  20.098  0.00  0.00    +0.000 A 
ATOM      8  C   UNL     1       2.360   4.706  19.167  0.00  0.00    +0.000 A 
ATOM      9  C   UNL     1       2.849   5.903  18.422  0.00  0.00    +0.000 A 
ATOM     10  N   UNL     1       3.754   5.813  17.487  0.00  0.00    +0.000 NA
ATOM     11  N   UNL     1       4.328   4.597  17.169  0.00  0.00    +0.000 N 
ENDROOT
BRANCH   9  12
ATOM     12  C   UNL     1       2.332   7.285  18.730  0.00  0.00    +0.000 A 
ATOM     13  C   UNL     1       1.911   7.667  20.013  0.00  0.00    +0.000 A 
ATOM     14  C   UNL     1       1.314   8.912  20.234  0.00  0.00    +0.000 A 
ATOM     15  C   UNL     1       1.221   9.817  19.186  0.00  0.00    +0.000 A 
ATOM     16  C   UNL     1       1.732   9.504  17.934  0.00  0.00    +0.000 A 
ATOM     17  C   UNL     1       2.280   8.238  17.699  0.00  0.00    +0.000 A 
BRANCH  15  18
ATOM     18  O   UNL     1       0.632  11.036  19.351  0.00  0.00    +0.000 OA
ATOM     19  H   UNL     1       0.965  11.643  18.669  0.00  0.00    +0.000 HD
ENDBRANCH  15  18
ENDBRANCH   9  12
BRANCH  11  20
ATOM     20  C   UNL     1       5.335   4.659  16.133  0.00  0.00    +0.000 A 
ATOM     21  C   UNL     1       6.583   5.268  16.337  0.00  0.00    +0.000 A 
ATOM     22  C   UNL     1       7.562   5.307  15.341  0.00  0.00    +0.000 A 
ATOM     23  C   UNL     1       7.309   4.746  14.096  0.00  0.00    +0.000 A 
ATOM     24  C   UNL     1       6.068   4.153  13.837  0.00  0.00    +0.000 A 
ATOM     25  C   UNL     1       5.094   4.114  14.858  0.00  0.00    +0.000 A 
BRANCH  24  26
ATOM     26  C   UNL     1       5.771   3.557  12.484  0.00  0.00    +0.000 C 
ATOM     27  F   UNL     1       5.967   2.209  12.428  0.00  0.00    +0.000 F 
ATOM     28  F   UNL     1       4.482   3.759  12.094  0.00  0.00    +0.000 F 
ATOM     29  F   UNL     1       6.549   4.083  11.497  0.00  0.00    +0.000 F 
ENDBRANCH  24  26
ENDBRANCH  11  20
TORSDOF 4
ENDMDL
MODEL 2
REMARK VINA RESULT:      -8.9      4.851      7.611
REMARK  Name = 
REMARK  4 active torsions:
REMARK  status: ('A' for Active; 'I' for Inactive)
REMARK    1  A    between atoms: C_9  and  C_10
REMARK    2  A    between atoms: C_13  and  O_14
REMARK    3  A    between atoms: N_18  and  C_19
REMARK    4  A    between atoms: C_23  and  C_24
REMARK                            x       y       z     vdW  Elec       q    Type
REMARK                         _______ _______ _______ _____ _____    ______ ____
ROOT
ATOM      1  O   UNL     1       0.854   5.171  20.622  0.00  0.00    +0.000 OA
ATOM      2  C   UNL     1       1.746   5.211  19.774  0.00  0.00    +0.000 A 
ATOM      3  C   UNL     1       2.278   3.915  19.334  0.00  0.00    +0.000 A 
ATOM      4  C   UNL     1       1.654   2.732  19.781  0.00  0.00    +0.000 A 
ATOM      5  C   UNL     1       2.172   1.490  19.438  0.00  0.00    +0.000 A 
ATOM      6  C   UNL     1       3.351   1.423  18.708  0.00  0.00    +0.000 A 
ATOM      7  C   UNL     1       3.987   2.600  18.292  0.00  0.00    +0.000 A 
ATOM      8  C   UNL     1       3.410   3.857  18.534  0.00  0.00    +0.000 A 
ATOM      9  C   UNL     1       3.921   5.153  17.999  0.00  0.00    +0.000 A 
ATOM     10  N   UNL     1       3.406   6.298  18.352  0.00  0.00    +0.000 NA
ATOM     11  N   UNL     1       2.331   6.356  19.219  0.00  0.00    +0.000 N 
ENDROOT
BRANCH   9  12
ATOM     12  C   UNL     1       5.052   5.200  17.002  0.00  0.00    +0.000 A 
ATOM     13  C   UNL     1       6.300   5.767  17.300  0.00  0.00    +0.000 A 
ATOM     14  C   UNL     1       7.279   5.914  16.313  0.00  0.00    +0.000 A 
ATOM     15  C   UNL     1       7.044   5.406  15.042  0.00  0.00    +0.000 A 
ATOM     16  C   UNL     1       5.860   4.741  14.754  0.00  0.00    +0.000 A 
ATOM     17  C   UNL     1       4.859   4.644  15.727  0.00  0.00    +0.000 A 
BRANCH  15  18
ATOM     18  O   UNL     1       7.963   5.539  14.044  0.00  0.00    +0.000 OA
ATOM     19  H   UNL     1       7.987   4.718  13.524  0.00  0.00    +0.000 HD
ENDBRANCH  15  18
ENDBRANCH   9  12
BRANCH  11  20
ATOM     20  C   UNL     1       1.852   7.691  19.494  0.00  0.00    +0.000 A 
ATOM     21  C   UNL     1       1.902   8.718  18.538  0.00  0.00    +0.000 A 
ATOM     22  C   UNL     1       1.417  10.002  18.801  0.00  0.00    +0.000 A 
ATOM     23  C   UNL     1       0.879  10.300  20.046  0.00  0.00    +0.000 A 
ATOM     24  C   UNL     1       0.834   9.317  21.040  0.00  0.00    +0.000 A 
ATOM     25  C   UNL     1       1.320   8.022  20.755  0.00  0.00    +0.000 A 
BRANCH  24  26
ATOM     26  C   UNL     1       0.272   9.631  22.404  0.00  0.00    +0.000 C 
ATOM     27  F   UNL     1      -0.109  10.932  22.549  0.00  0.00    +0.000 F 
ATOM     28  F   UNL     1      -0.832   8.889  22.699  0.00  0.00    +0.000 F 
ATOM     29  F   UNL     1       1.162   9.394  23.406  0.00  0.00    +0.000 F 
ENDBRANCH  24  26
ENDBRANCH  11  20
TORSDOF 4
ENDMDL
MODEL 3
REMARK VINA RESULT:      -8.9      4.841      7.645
REMARK  Name = 
REMARK  4 active torsions:
REMARK  status: ('A' for Active; 'I' for Inactive)
REMARK    1  A    between atoms: C_9  and  C_10
REMARK    2  A    between atoms: C_13  and  O_14
REMARK    3  A    between atoms: N_18  and  C_19
REMARK    4  A    between atoms: C_23  and  C_24
REMARK                            x       y       z     vdW  Elec       q    Type
REMARK                         _______ _______ _______ _____ _____    ______ ____
ROOT
ATOM      1  O   UNL     1       0.991   5.142  20.651  0.00  0.00    +0.000 OA
ATOM      2  C   UNL     1       1.827   5.212  19.750  0.00  0.00    +0.000 A 
ATOM      3  C   UNL     1       2.374   3.935  19.274  0.00  0.00    +0.000 A 
ATOM      4  C   UNL     1       1.817   2.732  19.754  0.00  0.00    +0.000 A 
ATOM      5  C   UNL     1       2.353   1.508  19.375  0.00  0.00    +0.000 A 
ATOM      6  C   UNL     1       3.487   1.481  18.575  0.00  0.00    +0.000 A 
ATOM      7  C   UNL     1       4.057   2.678  18.125  0.00  0.00    +0.000 A 
ATOM      8  C   UNL     1       3.456   3.915  18.406  0.00  0.00    +0.000 A 
ATOM      9  C   UNL     1       3.891   5.228  17.845  0.00  0.00    +0.000 A 
ATOM     10  N   UNL     1       3.361   6.355  18.234  0.00  0.00    +0.000 NA
ATOM     11  N   UNL     1       2.340   6.377  19.165  0.00  0.00    +0.000 N 
ENDROOT
BRANCH   9  12
ATOM     12  C   UNL     1       4.957   5.314  16.782  0.00  0.00    +0.000 A 
ATOM     13  C   UNL     1       4.833   4.684  15.534  0.00  0.00    +0.000 A 
ATOM     14  C   UNL     1       5.894   4.673  14.624  0.00  0.00    +0.000 A 
ATOM     15  C   UNL     1       7.054   5.374  14.925  0.00  0.00    +0.000 A 
ATOM     16  C   UNL     1       7.157   6.099  16.104  0.00  0.00    +0.000 A 
ATOM     17  C   UNL     1       6.116   6.063  17.039  0.00  0.00    +0.000 A 
BRANCH  15  18
ATOM     18  O   UNL     1       8.120   5.379  14.075  0.00  0.00    +0.000 OA
ATOM     19  H   UNL     1       8.298   6.293  13.795  0.00  0.00    +0.000 HD
ENDBRANCH  15  18
ENDBRANCH   9  12
BRANCH  11  20
ATOM     20  C   UNL     1       1.836   7.695  19.474  0.00  0.00    +0.000 A 
ATOM     21  C   UNL     1       1.833   8.737  18.533  0.00  0.00    +0.000 A 
ATOM     22  C   UNL     1       1.325  10.004  18.829  0.00  0.00    +0.000 A 
ATOM     23  C   UNL     1       0.814  10.270  20.092  0.00  0.00    +0.000 A 
ATOM     24  C   UNL     1       0.822   9.271  21.073  0.00  0.00    +0.000 A 
ATOM     25  C   UNL     1       1.331   7.994  20.754  0.00  0.00    +0.000 A 
BRANCH  24  26
ATOM     26  C   UNL     1       0.290   9.551  22.456  0.00  0.00    +0.000 C 
ATOM     27  F   UNL     1       1.177   9.256  23.449  0.00  0.00    +0.000 F 
ATOM     28  F   UNL     1      -0.041  10.860  22.635  0.00  0.00    +0.000 F 
ATOM     29  F   UNL     1      -0.832   8.836  22.741  0.00  0.00    +0.000 F 
ENDBRANCH  24  26
ENDBRANCH  11  20
TORSDOF 4
ENDMDL
MODEL 4
REMARK VINA RESULT:      -8.9      4.961      7.729
REMARK  Name = 
REMARK  4 active torsions:
REMARK  status: ('A' for Active; 'I' for Inactive)
REMARK    1  A    between atoms: C_9  and  C_10
REMARK    2  A    between atoms: C_13  and  O_14
REMARK    3  A    between atoms: N_18  and  C_19
REMARK    4  A    between atoms: C_23  and  C_24
REMARK                            x       y       z     vdW  Elec       q    Type
REMARK                         _______ _______ _______ _____ _____    ______ ____
ROOT
ATOM      1  O   UNL     1       0.991   6.429  21.264  0.00  0.00    +0.000 OA
ATOM      2  C   UNL     1       1.832   6.250  20.382  0.00  0.00    +0.000 A 
ATOM      3  C   UNL     1       2.455   4.921  20.343  0.00  0.00    +0.000 A 
ATOM      4  C   UNL     1       1.962   3.909  21.193  0.00  0.00    +0.000 A 
ATOM      5  C   UNL     1       2.570   2.662  21.228  0.00  0.00    +0.000 A 
ATOM      6  C   UNL     1       3.713   2.440  20.471  0.00  0.00    +0.000 A 
ATOM      7  C   UNL     1       4.219   3.457  19.652  0.00  0.00    +0.000 A 
ATOM      8  C   UNL     1       3.546   4.682  19.520  0.00  0.00    +0.000 A 
ATOM      9  C   UNL     1       3.913   5.763  18.559  0.00  0.00    +0.000 A 
ATOM     10  N   UNL     1       3.316   6.923  18.564  0.00  0.00    +0.000 NA
ATOM     11  N   UNL     1       2.285   7.188  19.446  0.00  0.00    +0.000 N 
ENDROOT
BRANCH   9  12
ATOM     12  C   UNL     1       4.983   5.559  17.517  0.00  0.00    +0.000 A 
ATOM     13  C   UNL     1       6.298   6.020  17.682  0.00  0.00    +0.000 A 
ATOM     14  C   UNL     1       7.228   5.932  16.643  0.00  0.00    +0.000 A 
ATOM     15  C   UNL     1       6.870   5.294  15.463  0.00  0.00    +0.000 A 
ATOM     16  C   UNL     1       5.610   4.729  15.318  0.00  0.00    +0.000 A 
ATOM     17  C   UNL     1       4.662   4.868  16.338  0.00  0.00    +0.000 A 
BRANCH  15  18
ATOM     18  O   UNL     1       7.740   5.198  14.417  0.00  0.00    +0.000 OA
ATOM     19  H   UNL     1       8.633   5.421  14.726  0.00  0.00    +0.000 HD
ENDBRANCH  15  18
ENDBRANCH   9  12
BRANCH  11  20
ATOM     20  C   UNL     1       1.703   8.504  19.313  0.00  0.00    +0.000 A 
ATOM     21  C   UNL     1       1.710   9.209  18.099  0.00  0.00    +0.000 A 
ATOM     22  C   UNL     1       1.128  10.472  17.969  0.00  0.00    +0.000 A 
ATOM     23  C   UNL     1       0.530  11.077  19.067  0.00  0.00    +0.000 A 
ATOM     24  C   UNL     1       0.523  10.426  20.305  0.00  0.00    +0.000 A 
ATOM     25  C   UNL     1       1.108   9.146  20.416  0.00  0.00    +0.000 A 
BRANCH  24  26
ATOM     26  C   UNL     1      -0.104  11.079  21.511  0.00  0.00    +0.000 C 
ATOM     27  F   UNL     1      -1.455  11.232  21.406  0.00  0.00    +0.000 F 
ATOM     28  F   UNL     1       0.098  10.369  22.656  0.00  0.00    +0.000 F 
ATOM     29  F   UNL     1       0.391  12.325  21.749  0.00  0.00    +0.000 F 
ENDBRANCH  24  26
ENDBRANCH  11  20
TORSDOF 4
ENDMDL
MODEL 5
REMARK VINA RESULT:      -8.7      4.971      7.789
REMARK  Name = 
REMARK  4 active torsions:
REMARK  status: ('A' for Active; 'I' for Inactive)
REMARK    1  A    between atoms: C_9  and  C_10
REMARK    2  A    between atoms: C_13  and  O_14
REMARK    3  A    between atoms: N_18  and  C_19
REMARK    4  A    between atoms: C_23  and  C_24
REMARK                            x       y       z     vdW  Elec       q    Type
REMARK                         _______ _______ _______ _____ _____    ______ ____
ROOT
ATOM      1  O   UNL     1       1.005   6.495  21.293  0.00  0.00    +0.000 OA
ATOM      2  C   UNL     1       1.813   6.312  20.382  0.00  0.00    +0.000 A 
ATOM      3  C   UNL     1       2.424   4.979  20.316  0.00  0.00    +0.000 A 
ATOM      4  C   UNL     1       1.955   3.969  21.181  0.00  0.00    +0.000 A 
ATOM      5  C   UNL     1       2.556   2.717  21.192  0.00  0.00    +0.000 A 
ATOM      6  C   UNL     1       3.668   2.489  20.393  0.00  0.00    +0.000 A 
ATOM      7  C   UNL     1       4.151   3.505  19.558  0.00  0.00    +0.000 A 
ATOM      8  C   UNL     1       3.483   4.734  19.453  0.00  0.00    +0.000 A 
ATOM      9  C   UNL     1       3.821   5.816  18.482  0.00  0.00    +0.000 A 
ATOM     10  N   UNL     1       3.233   6.980  18.512  0.00  0.00    +0.000 NA
ATOM     11  N   UNL     1       2.237   7.250  19.431  0.00  0.00    +0.000 N 
ENDROOT
BRANCH   9  12
ATOM     12  C   UNL     1       4.851   5.606  17.401  0.00  0.00    +0.000 A 
ATOM     13  C   UNL     1       4.620   4.790  16.283  0.00  0.00    +0.000 A 
ATOM     14  C   UNL     1       5.642   4.512  15.371  0.00  0.00    +0.000 A 
ATOM     15  C   UNL     1       6.876   5.129  15.524  0.00  0.00    +0.000 A 
ATOM     16  C   UNL     1       7.094   6.029  16.559  0.00  0.00    +0.000 A 
ATOM     17  C   UNL     1       6.089   6.263  17.504  0.00  0.00    +0.000 A 
BRANCH  15  18
ATOM     18  O   UNL     1       7.906   4.877  14.667  0.00  0.00    +0.000 OA
ATOM     19  H   UNL     1       7.837   5.474  13.904  0.00  0.00    +0.000 HD
ENDBRANCH  15  18
ENDBRANCH   9  12
BRANCH  11  20
ATOM     20  C   UNL     1       1.660   8.570  19.323  0.00  0.00    +0.000 A 
ATOM     21  C   UNL     1       1.674   9.298  18.122  0.00  0.00    +0.000 A 
ATOM     22  C   UNL     1       1.096  10.566  18.016  0.00  0.00    +0.000 A 
ATOM     23  C   UNL     1       0.497  11.151  19.124  0.00  0.00    +0.000 A 
ATOM     24  C   UNL     1       0.485  10.476  20.349  0.00  0.00    +0.000 A 
ATOM     25  C   UNL     1       1.065   9.192  20.437  0.00  0.00    +0.000 A 
BRANCH  24  26
ATOM     26  C   UNL     1      -0.143  11.108  21.566  0.00  0.00    +0.000 C 
ATOM     27  F   UNL     1       0.071  10.405  22.715  0.00  0.00    +0.000 F 
ATOM     28  F   UNL     1       0.329  12.362  21.808  0.00  0.00    +0.000 F 
ATOM     29  F   UNL     1      -1.494  11.229  21.456  0.00  0.00    +0.000 F 
ENDBRANCH  24  26
ENDBRANCH  11  20
TORSDOF 4
ENDMDL
MODEL 6
REMARK VINA RESULT:      -8.5      3.316      5.049
REMARK  Name = 
REMARK  4 active torsions:
REMARK  status: ('A' for Active; 'I' for Inactive)
REMARK    1  A    between atoms: C_9  and  C_10
REMARK    2  A    between atoms: C_13  and  O_14
REMARK    3  A    between atoms: N_18  and  C_19
REMARK    4  A    between atoms: C_23  and  C_24
REMARK                            x       y       z     vdW  Elec       q    Type
REMARK                         _______ _______ _______ _____ _____    ______ ____
ROOT
ATOM      1  O   UNL     1       7.929   5.309  14.584  0.00  0.00    +0.000 OA
ATOM      2  C   UNL     1       6.922   4.948  15.194  0.00  0.00    +0.000 A 
ATOM      3  C   UNL     1       6.804   5.414  16.581  0.00  0.00    +0.000 A 
ATOM      4  C   UNL     1       7.746   6.341  17.073  0.00  0.00    +0.000 A 
ATOM      5  C   UNL     1       7.704   6.751  18.399  0.00  0.00    +0.000 A 
ATOM      6  C   UNL     1       6.769   6.187  19.256  0.00  0.00    +0.000 A 
ATOM      7  C   UNL     1       5.855   5.242  18.772  0.00  0.00    +0.000 A 
ATOM      8  C   UNL     1       5.813   4.907  17.410  0.00  0.00    +0.000 A 
ATOM      9  C   UNL     1       4.783   4.038  16.770  0.00  0.00    +0.000 A 
ATOM     10  N   UNL     1       4.865   3.674  15.520  0.00  0.00    +0.000 NA
ATOM     11  N   UNL     1       5.903   4.112  14.720  0.00  0.00    +0.000 N 
ENDROOT
BRANCH   9  12
ATOM     12  C   UNL     1       3.579   3.553  17.537  0.00  0.00    +0.000 A 
ATOM     13  C   UNL     1       3.517   2.279  18.121  0.00  0.00    +0.000 A 
ATOM     14  C   UNL     1       2.337   1.812  18.709  0.00  0.00    +0.000 A 
ATOM     15  C   UNL     1       1.241   2.660  18.797  0.00  0.00    +0.000 A 
ATOM     16  C   UNL     1       1.315   3.964  18.327  0.00  0.00    +0.000 A 
ATOM     17  C   UNL     1       2.477   4.411  17.689  0.00  0.00    +0.000 A 
BRANCH  15  18
ATOM     18  O   UNL     1       0.065   2.243  19.349  0.00  0.00    +0.000 OA
ATOM     19  H   UNL     1      -0.408   1.690  18.704  0.00  0.00    +0.000 HD
ENDBRANCH  15  18
ENDBRANCH   9  12
BRANCH  11  20
ATOM     20  C   UNL     1       5.844   3.649  13.352  0.00  0.00    +0.000 A 
ATOM     21  C   UNL     1       6.954   3.088  12.701  0.00  0.00    +0.000 A 
ATOM     22  C   UNL     1       6.888   2.623  11.386  0.00  0.00    +0.000 A 
ATOM     23  C   UNL     1       5.700   2.721  10.674  0.00  0.00    +0.000 A 
ATOM     24  C   UNL     1       4.574   3.300  11.270  0.00  0.00    +0.000 A 
ATOM     25  C   UNL     1       4.656   3.757  12.603  0.00  0.00    +0.000 A 
BRANCH  24  26
ATOM     26  C   UNL     1       3.283   3.433  10.502  0.00  0.00    +0.000 C 
ATOM     27  F   UNL     1       2.927   4.726  10.256  0.00  0.00    +0.000 F 
ATOM     28  F   UNL     1       3.333   2.827   9.283  0.00  0.00    +0.000 F 
ATOM     29  F   UNL     1       2.225   2.878  11.155  0.00  0.00    +0.000 F 
ENDBRANCH  24  26
ENDBRANCH  11  20
TORSDOF 4
ENDMDL
MODEL 7
REMARK VINA RESULT:      -8.3      3.304      4.970
REMARK  Name = 
REMARK  4 active torsions:
REMARK  status: ('A' for Active; 'I' for Inactive)
REMARK    1  A    between atoms: C_9  and  C_10
REMARK    2  A    between atoms: C_13  and  O_14
REMARK    3  A    between atoms: N_18  and  C_19
REMARK    4  A    between atoms: C_23  and  C_24
REMARK                            x       y       z     vdW  Elec       q    Type
REMARK                         _______ _______ _______ _____ _____    ______ ____
ROOT
ATOM      1  O   UNL     1       7.935   5.187  14.691  0.00  0.00    +0.000 OA
ATOM      2  C   UNL     1       6.894   4.861  15.261  0.00  0.00    +0.000 A 
ATOM      3  C   UNL     1       6.752   5.304  16.654  0.00  0.00    +0.000 A 
ATOM      4  C   UNL     1       7.719   6.177  17.194  0.00  0.00    +0.000 A 
ATOM      5  C   UNL     1       7.652   6.563  18.527  0.00  0.00    +0.000 A 
ATOM      6  C   UNL     1       6.666   6.025  19.342  0.00  0.00    +0.000 A 
ATOM      7  C   UNL     1       5.726   5.133  18.810  0.00  0.00    +0.000 A 
ATOM      8  C   UNL     1       5.713   4.827  17.440  0.00  0.00    +0.000 A 
ATOM      9  C   UNL     1       4.666   4.019  16.750  0.00  0.00    +0.000 A 
ATOM     10  N   UNL     1       4.772   3.677  15.496  0.00  0.00    +0.000 NA
ATOM     11  N   UNL     1       5.854   4.082  14.737  0.00  0.00    +0.000 N 
ENDROOT
BRANCH   9  12
ATOM     12  C   UNL     1       3.417   3.574  17.468  0.00  0.00    +0.000 A 
ATOM     13  C   UNL     1       2.301   4.408  17.632  0.00  0.00    +0.000 A 
ATOM     14  C   UNL     1       1.214   4.011  18.417  0.00  0.00    +0.000 A 
ATOM     15  C   UNL     1       1.202   2.736  18.965  0.00  0.00    +0.000 A 
ATOM     16  C   UNL     1       2.244   1.852  18.723  0.00  0.00    +0.000 A 
ATOM     17  C   UNL     1       3.357   2.269  17.984  0.00  0.00    +0.000 A 
BRANCH  15  18
ATOM     18  O   UNL     1       0.171   2.311  19.750  0.00  0.00    +0.000 OA
ATOM     19  H   UNL     1      -0.184   3.069  20.244  0.00  0.00    +0.000 HD
ENDBRANCH  15  18
ENDBRANCH   9  12
BRANCH  11  20
ATOM     20  C   UNL     1       5.818   3.650  13.359  0.00  0.00    +0.000 A 
ATOM     21  C   UNL     1       6.947   3.128  12.707  0.00  0.00    +0.000 A 
ATOM     22  C   UNL     1       6.903   2.691  11.381  0.00  0.00    +0.000 A 
ATOM     23  C   UNL     1       5.721   2.780  10.659  0.00  0.00    +0.000 A 
ATOM     24  C   UNL     1       4.577   3.320  11.257  0.00  0.00    +0.000 A 
ATOM     25  C   UNL     1       4.636   3.748  12.601  0.00  0.00    +0.000 A 
BRANCH  24  26
ATOM     26  C   UNL     1       3.290   3.443  10.479  0.00  0.00    +0.000 C 
ATOM     27  F   UNL     1       2.222   2.864  11.100  0.00  0.00    +0.000 F 
ATOM     28  F   UNL     1       2.932   4.738  10.261  0.00  0.00    +0.000 F 
ATOM     29  F   UNL     1       3.362   2.860   9.251  0.00  0.00    +0.000 F 
ENDBRANCH  24  26
ENDBRANCH  11  20
TORSDOF 4
ENDMDL
MODEL 8
REMARK VINA RESULT:      -8.0      3.942      7.084
REMARK  Name = 
REMARK  4 active torsions:
REMARK  status: ('A' for Active; 'I' for Inactive)
REMARK    1  A    between atoms: C_9  and  C_10
REMARK    2  A    between atoms: C_13  and  O_14
REMARK    3  A    between atoms: N_18  and  C_19
REMARK    4  A    between atoms: C_23  and  C_24
REMARK                            x       y       z     vdW  Elec       q    Type
REMARK                         _______ _______ _______ _____ _____    ______ ____
ROOT
ATOM      1  O   UNL     1       0.847   4.954  20.900  0.00  0.00    +0.000 OA
ATOM      2  C   UNL     1       1.696   5.095  20.019  0.00  0.00    +0.000 A 
ATOM      3  C   UNL     1       2.177   3.864  19.380  0.00  0.00    +0.000 A 
ATOM      4  C   UNL     1       1.552   2.641  19.697  0.00  0.00    +0.000 A 
ATOM      5  C   UNL     1       2.025   1.450  19.162  0.00  0.00    +0.000 A 
ATOM      6  C   UNL     1       3.164   1.465  18.369  0.00  0.00    +0.000 A 
ATOM      7  C   UNL     1       3.803   2.679  18.082  0.00  0.00    +0.000 A 
ATOM      8  C   UNL     1       3.266   3.899  18.521  0.00  0.00    +0.000 A 
ATOM      9  C   UNL     1       3.777   5.248  18.139  0.00  0.00    +0.000 A 
ATOM     10  N   UNL     1       3.304   6.342  18.670  0.00  0.00    +0.000 NA
ATOM     11  N   UNL     1       2.276   6.297  19.592  0.00  0.00    +0.000 N 
ENDROOT
BRANCH   9  12
ATOM     12  C   UNL     1       4.856   5.414  17.099  0.00  0.00    +0.000 A 
ATOM     13  C   UNL     1       4.698   4.993  15.770  0.00  0.00    +0.000 A 
ATOM     14  C   UNL     1       5.764   5.040  14.867  0.00  0.00    +0.000 A 
ATOM     15  C   UNL     1       6.970   5.598  15.269  0.00  0.00    +0.000 A 
ATOM     16  C   UNL     1       7.116   6.124  16.546  0.00  0.00    +0.000 A 
ATOM     17  C   UNL     1       6.066   6.026  17.466  0.00  0.00    +0.000 A 
BRANCH  15  18
ATOM     18  O   UNL     1       8.042   5.651  14.428  0.00  0.00    +0.000 OA
ATOM     19  H   UNL     1       8.024   6.494  13.945  0.00  0.00    +0.000 HD
ENDBRANCH  15  18
ENDBRANCH   9  12
BRANCH  11  20
ATOM     20  C   UNL     1       1.840   7.589  20.070  0.00  0.00    +0.000 A 
ATOM     21  C   UNL     1       1.550   7.830  21.423  0.00  0.00    +0.000 A 
ATOM     22  C   UNL     1       1.149   9.086  21.885  0.00  0.00    +0.000 A 
ATOM     23  C   UNL     1       1.012  10.142  20.993  0.00  0.00    +0.000 A 
ATOM     24  C   UNL     1       1.262   9.943  19.631  0.00  0.00    +0.000 A 
ATOM     25  C   UNL     1       1.675   8.670  19.183  0.00  0.00    +0.000 A 
BRANCH  24  26
ATOM     26  C   UNL     1       1.096  11.075  18.648  0.00  0.00    +0.000 C 
ATOM     27  F   UNL     1       1.114  12.308  19.231  0.00  0.00    +0.000 F 
ATOM     28  F   UNL     1       2.079  11.098  17.706  0.00  0.00    +0.000 F 
ATOM     29  F   UNL     1      -0.079  11.008  17.965  0.00  0.00    +0.000 F 
ENDBRANCH  24  26
ENDBRANCH  11  20
TORSDOF 4
ENDMDL
MODEL 9
REMARK VINA RESULT:      -7.8      4.030      7.201
REMARK  Name = 
REMARK  4 active torsions:
REMARK  status: ('A' for Active; 'I' for Inactive)
REMARK    1  A    between atoms: C_9  and  C_10
REMARK    2  A    between atoms: C_13  and  O_14
REMARK    3  A    between atoms: N_18  and  C_19
REMARK    4  A    between atoms: C_23  and  C_24
REMARK                            x       y       z     vdW  Elec       q    Type
REMARK                         _______ _______ _______ _____ _____    ______ ____
ROOT
ATOM      1  O   UNL     1       0.807   6.828  21.162  0.00  0.00    +0.000 OA
ATOM      2  C   UNL     1       1.632   6.649  20.266  0.00  0.00    +0.000 A 
ATOM      3  C   UNL     1       2.305   5.344  20.256  0.00  0.00    +0.000 A 
ATOM      4  C   UNL     1       1.873   4.346  21.154  0.00  0.00    +0.000 A 
ATOM      5  C   UNL     1       2.531   3.125  21.217  0.00  0.00    +0.000 A 
ATOM      6  C   UNL     1       3.661   2.920  20.438  0.00  0.00    +0.000 A 
ATOM      7  C   UNL     1       4.107   3.925  19.571  0.00  0.00    +0.000 A 
ATOM      8  C   UNL     1       3.384   5.118  19.414  0.00  0.00    +0.000 A 
ATOM      9  C   UNL     1       3.684   6.177  18.407  0.00  0.00    +0.000 A 
ATOM     10  N   UNL     1       3.042   7.313  18.387  0.00  0.00    +0.000 NA
ATOM     11  N   UNL     1       2.024   7.570  19.285  0.00  0.00    +0.000 N 
ENDROOT
BRANCH   9  12
ATOM     12  C   UNL     1       4.735   5.976  17.345  0.00  0.00    +0.000 A 
ATOM     13  C   UNL     1       4.533   5.156  16.225  0.00  0.00    +0.000 A 
ATOM     14  C   UNL     1       5.574   4.887  15.331  0.00  0.00    +0.000 A 
ATOM     15  C   UNL     1       6.798   5.517  15.505  0.00  0.00    +0.000 A 
ATOM     16  C   UNL     1       6.988   6.421  16.542  0.00  0.00    +0.000 A 
ATOM     17  C   UNL     1       5.964   6.646  17.468  0.00  0.00    +0.000 A 
BRANCH  15  18
ATOM     18  O   UNL     1       7.847   5.273  14.668  0.00  0.00    +0.000 OA
ATOM     19  H   UNL     1       8.343   6.098  14.534  0.00  0.00    +0.000 HD
ENDBRANCH  15  18
ENDBRANCH   9  12
BRANCH  11  20
ATOM     20  C   UNL     1       1.388   8.857  19.122  0.00  0.00    +0.000 A 
ATOM     21  C   UNL     1       1.906  10.028  19.700  0.00  0.00    +0.000 A 
ATOM     22  C   UNL     1       1.300  11.274  19.522  0.00  0.00    +0.000 A 
ATOM     23  C   UNL     1       0.140  11.381  18.767  0.00  0.00    +0.000 A 
ATOM     24  C   UNL     1      -0.429  10.237  18.196  0.00  0.00    +0.000 A 
ATOM     25  C   UNL     1       0.201   8.987  18.378  0.00  0.00    +0.000 A 
BRANCH  24  26
ATOM     26  C   UNL     1      -1.701  10.335  17.391  0.00  0.00    +0.000 C 
ATOM     27  F   UNL     1      -2.816   9.976  18.090  0.00  0.00    +0.000 F 
ATOM     28  F   UNL     1      -1.940  11.597  16.939  0.00  0.00    +0.000 F 
ATOM     29  F   UNL     1      -1.686   9.537  16.288  0.00  0.00    +0.000 F 
ENDBRANCH  24  26
ENDBRANCH  11  20
TORSDOF 4
ENDMDL
