MODEL 1
REMARK VINA RESULT:      -7.5      0.000      0.000
REMARK  Name = 
REMARK  4 active torsions:
REMARK  status: ('A' for Active; 'I' for Inactive)
REMARK    1  A    between atoms: C_1  and  C_2
REMARK    2  A    between atoms: N_8  and  C_9
REMARK    3  A    between atoms: N_12  and  C_13
REMARK    4  A    between atoms: C_13  and  C_14
REMARK                            x       y       z     vdW  Elec       q    Type
REMARK                         _______ _______ _______ _____ _____    ______ ____
ROOT
ATOM      1  C   UNL     1       7.759   5.763  19.239  0.00  0.00    +0.000 C 
ATOM      2  C   UNL     1       6.494   5.323  18.564  0.00  0.00    +0.000 A 
ATOM      3  C   UNL     1       5.958   5.883  17.413  0.00  0.00    +0.000 A 
ATOM      4  C   UNL     1       4.740   5.437  16.940  0.00  0.00    +0.000 A 
ATOM      5  C   UNL     1       4.018   4.540  17.719  0.00  0.00    +0.000 A 
ATOM      6  C   UNL     1       4.673   3.879  18.749  0.00  0.00    +0.000 A 
ATOM      7  N   UNL     1       5.895   4.277  19.158  0.00  0.00    +0.000 NA
ATOM      8  N   UNL     1       4.106   2.943  19.578  0.00  0.00    +0.000 N 
ATOM      9  C   UNL     1       3.940   1.619  19.002  0.00  0.00    +0.000 C 
ATOM     10  C   UNL     1       3.108   3.417  20.539  0.00  0.00    +0.000 C 
ATOM     11  C   UNL     1       1.825   3.988  19.904  0.00  0.00    +0.000 C 
ATOM     12  N   UNL     1       1.948   5.123  18.965  0.00  0.00    +0.000 NA
ATOM     13  C   UNL     1       2.519   4.641  17.683  0.00  0.00    +0.000 C 
ENDROOT
BRANCH  12  14
ATOM     14  C   UNL     1       2.711   6.271  19.524  0.00  0.00    +0.000 C 
BRANCH  14  15
ATOM     15  C   UNL     1       2.309   7.602  18.978  0.00  0.00    +0.000 A 
ATOM     16  C   UNL     1       2.561   8.258  17.816  0.00  0.00    +0.000 A 
ATOM     17  C   UNL     1       1.915   9.520  17.921  0.00  0.00    +0.000 A 
ATOM     18  C   UNL     1       1.307   9.534  19.152  0.00  0.00    +0.000 A 
ATOM     19  O   UNL     1       1.542   8.362  19.801  0.00  0.00    +0.000 OA
ENDBRANCH  14  15
ENDBRANCH  12  14
TORSDOF 2
ENDMDL
MODEL 2
REMARK VINA RESULT:      -7.1      0.749      1.106
REMARK  Name = 
REMARK  4 active torsions:
REMARK  status: ('A' for Active; 'I' for Inactive)
REMARK    1  A    between atoms: C_1  and  C_2
REMARK    2  A    between atoms: N_8  and  C_9
REMARK    3  A    between atoms: N_12  and  C_13
REMARK    4  A    between atoms: C_13  and  C_14
REMARK                            x       y       z     vdW  Elec       q    Type
REMARK                         _______ _______ _______ _____ _____    ______ ____
ROOT
ATOM      1  C   UNL     1       7.699   5.686  19.137  0.00  0.00    +0.000 C 
ATOM      2  C   UNL     1       6.387   5.338  18.499  0.00  0.00    +0.000 A 
ATOM      3  C   UNL     1       5.792   6.026  17.451  0.00  0.00    +0.000 A 
ATOM      4  C   UNL     1       4.539   5.651  17.010  0.00  0.00    +0.000 A 
ATOM      5  C   UNL     1       3.849   4.684  17.733  0.00  0.00    +0.000 A 
ATOM      6  C   UNL     1       4.553   3.907  18.642  0.00  0.00    +0.000 A 
ATOM      7  N   UNL     1       5.805   4.242  19.015  0.00  0.00    +0.000 NA
ATOM      8  N   UNL     1       4.019   2.893  19.401  0.00  0.00    +0.000 N 
ATOM      9  C   UNL     1       3.792   1.642  18.697  0.00  0.00    +0.000 C 
ATOM     10  C   UNL     1       3.091   3.274  20.468  0.00  0.00    +0.000 C 
ATOM     11  C   UNL     1       1.783   3.927  19.979  0.00  0.00    +0.000 C 
ATOM     12  N   UNL     1       1.871   5.155  19.162  0.00  0.00    +0.000 NA
ATOM     13  C   UNL     1       2.352   4.808  17.803  0.00  0.00    +0.000 C 
ENDROOT
BRANCH  12  14
ATOM     14  C   UNL     1       2.689   6.226  19.791  0.00  0.00    +0.000 C 
BRANCH  14  15
ATOM     15  C   UNL     1       1.964   7.516  19.994  0.00  0.00    +0.000 A 
ATOM     16  C   UNL     1       1.282   8.059  21.036  0.00  0.00    +0.000 A 
ATOM     17  C   UNL     1       0.788   9.311  20.581  0.00  0.00    +0.000 A 
ATOM     18  C   UNL     1       1.215   9.440  19.282  0.00  0.00    +0.000 A 
ATOM     19  O   UNL     1       1.938   8.346  18.919  0.00  0.00    +0.000 OA
ENDBRANCH  14  15
ENDBRANCH  12  14
TORSDOF 2
ENDMDL
MODEL 3
REMARK VINA RESULT:      -6.8      3.298      5.789
REMARK  Name = 
REMARK  4 active torsions:
REMARK  status: ('A' for Active; 'I' for Inactive)
REMARK    1  A    between atoms: C_1  and  C_2
REMARK    2  A    between atoms: N_8  and  C_9
REMARK    3  A    between atoms: N_12  and  C_13
REMARK    4  A    between atoms: C_13  and  C_14
REMARK                            x       y       z     vdW  Elec       q    Type
REMARK                         _______ _______ _______ _____ _____    ______ ____
ROOT
ATOM      1  C   UNL     1       2.865   2.039  18.788  0.00  0.00    +0.000 C 
ATOM      2  C   UNL     1       3.341   3.431  18.496  0.00  0.00    +0.000 A 
ATOM      3  C   UNL     1       2.550   4.474  18.037  0.00  0.00    +0.000 A 
ATOM      4  C   UNL     1       3.130   5.688  17.727  0.00  0.00    +0.000 A 
ATOM      5  C   UNL     1       4.517   5.778  17.746  0.00  0.00    +0.000 A 
ATOM      6  C   UNL     1       5.239   4.779  18.384  0.00  0.00    +0.000 A 
ATOM      7  N   UNL     1       4.647   3.623  18.748  0.00  0.00    +0.000 NA
ATOM      8  N   UNL     1       6.606   4.748  18.516  0.00  0.00    +0.000 N 
ATOM      9  C   UNL     1       7.153   5.625  19.538  0.00  0.00    +0.000 C 
ATOM     10  C   UNL     1       7.390   4.516  17.301  0.00  0.00    +0.000 C 
ATOM     11  C   UNL     1       7.273   5.627  16.238  0.00  0.00    +0.000 C 
ATOM     12  N   UNL     1       5.933   5.959  15.711  0.00  0.00    +0.000 NA
ATOM     13  C   UNL     1       5.166   6.694  16.745  0.00  0.00    +0.000 C 
ENDROOT
BRANCH  12  14
ATOM     14  C   UNL     1       5.192   4.777  15.196  0.00  0.00    +0.000 C 
BRANCH  14  15
ATOM     15  C   UNL     1       5.713   4.238  13.903  0.00  0.00    +0.000 A 
ATOM     16  C   UNL     1       6.934   4.236  13.308  0.00  0.00    +0.000 A 
ATOM     17  C   UNL     1       6.766   3.591  12.053  0.00  0.00    +0.000 A 
ATOM     18  C   UNL     1       5.440   3.241  11.980  0.00  0.00    +0.000 A 
ATOM     19  O   UNL     1       4.792   3.632  13.110  0.00  0.00    +0.000 OA
ENDBRANCH  14  15
ENDBRANCH  12  14
TORSDOF 2
ENDMDL
MODEL 4
REMARK VINA RESULT:      -6.8      3.311      5.809
REMARK  Name = 
REMARK  4 active torsions:
REMARK  status: ('A' for Active; 'I' for Inactive)
REMARK    1  A    between atoms: C_1  and  C_2
REMARK    2  A    between atoms: N_8  and  C_9
REMARK    3  A    between atoms: N_12  and  C_13
REMARK    4  A    between atoms: C_13  and  C_14
REMARK                            x       y       z     vdW  Elec       q    Type
REMARK                         _______ _______ _______ _____ _____    ______ ____
ROOT
ATOM      1  C   UNL     1       3.345   1.533  18.502  0.00  0.00    +0.000 C 
ATOM      2  C   UNL     1       3.632   2.995  18.324  0.00  0.00    +0.000 A 
ATOM      3  C   UNL     1       2.722   3.948  17.890  0.00  0.00    +0.000 A 
ATOM      4  C   UNL     1       3.138   5.249  17.688  0.00  0.00    +0.000 A 
ATOM      5  C   UNL     1       4.496   5.528  17.786  0.00  0.00    +0.000 A 
ATOM      6  C   UNL     1       5.323   4.597  18.398  0.00  0.00    +0.000 A 
ATOM      7  N   UNL     1       4.885   3.347  18.656  0.00  0.00    +0.000 NA
ATOM      8  N   UNL     1       6.674   4.746  18.599  0.00  0.00    +0.000 N 
ATOM      9  C   UNL     1       7.047   5.616  19.702  0.00  0.00    +0.000 C 
ATOM     10  C   UNL     1       7.535   4.710  17.415  0.00  0.00    +0.000 C 
ATOM     11  C   UNL     1       7.309   5.865  16.420  0.00  0.00    +0.000 C 
ATOM     12  N   UNL     1       5.960   6.045  15.845  0.00  0.00    +0.000 NA
ATOM     13  C   UNL     1       5.051   6.593  16.882  0.00  0.00    +0.000 C 
ENDROOT
BRANCH  12  14
ATOM     14  C   UNL     1       5.416   4.811  15.218  0.00  0.00    +0.000 C 
BRANCH  14  15
ATOM     15  C   UNL     1       6.048   4.453  13.912  0.00  0.00    +0.000 A 
ATOM     16  C   UNL     1       5.789   3.513  12.967  0.00  0.00    +0.000 A 
ATOM     17  C   UNL     1       6.788   3.665  11.967  0.00  0.00    +0.000 A 
ATOM     18  C   UNL     1       7.587   4.701  12.382  0.00  0.00    +0.000 A 
ATOM     19  O   UNL     1       7.137   5.190  13.570  0.00  0.00    +0.000 OA
ENDBRANCH  14  15
ENDBRANCH  12  14
TORSDOF 2
ENDMDL
MODEL 5
REMARK VINA RESULT:      -6.6      1.069      1.212
REMARK  Name = 
REMARK  4 active torsions:
REMARK  status: ('A' for Active; 'I' for Inactive)
REMARK    1  A    between atoms: C_1  and  C_2
REMARK    2  A    between atoms: N_8  and  C_9
REMARK    3  A    between atoms: N_12  and  C_13
REMARK    4  A    between atoms: C_13  and  C_14
REMARK                            x       y       z     vdW  Elec       q    Type
REMARK                         _______ _______ _______ _____ _____    ______ ____
ROOT
ATOM      1  C   UNL     1       7.905   5.228  18.311  0.00  0.00    +0.000 C 
ATOM      2  C   UNL     1       6.579   4.667  17.891  0.00  0.00    +0.000 A 
ATOM      3  C   UNL     1       6.091   4.634  16.593  0.00  0.00    +0.000 A 
ATOM      4  C   UNL     1       4.815   4.163  16.353  0.00  0.00    +0.000 A 
ATOM      5  C   UNL     1       4.004   3.874  17.445  0.00  0.00    +0.000 A 
ATOM      6  C   UNL     1       4.594   3.745  18.695  0.00  0.00    +0.000 A 
ATOM      7  N   UNL     1       5.866   4.142  18.903  0.00  0.00    +0.000 NA
ATOM      8  N   UNL     1       3.931   3.429  19.856  0.00  0.00    +0.000 N 
ATOM      9  C   UNL     1       3.585   2.026  20.012  0.00  0.00    +0.000 C 
ATOM     10  C   UNL     1       3.024   4.439  20.406  0.00  0.00    +0.000 C 
ATOM     11  C   UNL     1       1.810   4.765  19.514  0.00  0.00    +0.000 C 
ATOM     12  N   UNL     1       2.055   5.250  18.140  0.00  0.00    +0.000 NA
ATOM     13  C   UNL     1       2.529   4.125  17.298  0.00  0.00    +0.000 C 
ENDROOT
BRANCH  12  14
ATOM     14  C   UNL     1       2.971   6.421  18.082  0.00  0.00    +0.000 C 
BRANCH  14  15
ATOM     15  C   UNL     1       2.320   7.729  18.395  0.00  0.00    +0.000 A 
ATOM     16  C   UNL     1       1.705   8.235  19.495  0.00  0.00    +0.000 A 
ATOM     17  C   UNL     1       1.259   9.537  19.141  0.00  0.00    +0.000 A 
ATOM     18  C   UNL     1       1.643   9.728  17.837  0.00  0.00    +0.000 A 
ATOM     19  O   UNL     1       2.296   8.627  17.377  0.00  0.00    +0.000 OA
ENDBRANCH  14  15
ENDBRANCH  12  14
TORSDOF 2
ENDMDL
MODEL 6
REMARK VINA RESULT:      -6.0      2.404      4.527
REMARK  Name = 
REMARK  4 active torsions:
REMARK  status: ('A' for Active; 'I' for Inactive)
REMARK    1  A    between atoms: C_1  and  C_2
REMARK    2  A    between atoms: N_8  and  C_9
REMARK    3  A    between atoms: N_12  and  C_13
REMARK    4  A    between atoms: C_13  and  C_14
REMARK                            x       y       z     vdW  Elec       q    Type
REMARK                         _______ _______ _______ _____ _____    ______ ____
ROOT
ATOM      1  C   UNL     1       1.846   7.996  19.007  0.00  0.00    +0.000 C 
ATOM      2  C   UNL     1       2.637   6.758  19.308  0.00  0.00    +0.000 A 
ATOM      3  C   UNL     1       4.021   6.663  19.294  0.00  0.00    +0.000 A 
ATOM      4  C   UNL     1       4.624   5.439  19.508  0.00  0.00    +0.000 A 
ATOM      5  C   UNL     1       3.816   4.311  19.585  0.00  0.00    +0.000 A 
ATOM      6  C   UNL     1       2.453   4.483  19.779  0.00  0.00    +0.000 A 
ATOM      7  N   UNL     1       1.882   5.697  19.637  0.00  0.00    +0.000 NA
ATOM      8  N   UNL     1       1.535   3.468  19.909  0.00  0.00    +0.000 N 
ATOM      9  C   UNL     1       1.511   2.814  21.207  0.00  0.00    +0.000 C 
ATOM     10  C   UNL     1       1.248   2.669  18.717  0.00  0.00    +0.000 C 
ATOM     11  C   UNL     1       2.443   1.850  18.189  0.00  0.00    +0.000 C 
ATOM     12  N   UNL     1       3.680   2.568  17.818  0.00  0.00    +0.000 NA
ATOM     13  C   UNL     1       4.373   3.022  19.048  0.00  0.00    +0.000 C 
ENDROOT
BRANCH  12  14
ATOM     14  C   UNL     1       3.452   3.681  16.859  0.00  0.00    +0.000 C 
BRANCH  14  15
ATOM     15  C   UNL     1       4.695   4.206  16.217  0.00  0.00    +0.000 A 
ATOM     16  C   UNL     1       5.146   5.452  15.919  0.00  0.00    +0.000 A 
ATOM     17  C   UNL     1       6.399   5.280  15.272  0.00  0.00    +0.000 A 
ATOM     18  C   UNL     1       6.621   3.925  15.227  0.00  0.00    +0.000 A 
ATOM     19  O   UNL     1       5.583   3.264  15.808  0.00  0.00    +0.000 OA
ENDBRANCH  14  15
ENDBRANCH  12  14
TORSDOF 2
ENDMDL
MODEL 7
REMARK VINA RESULT:      -5.9      2.444      4.649
REMARK  Name = 
REMARK  4 active torsions:
REMARK  status: ('A' for Active; 'I' for Inactive)
REMARK    1  A    between atoms: C_1  and  C_2
REMARK    2  A    between atoms: N_8  and  C_9
REMARK    3  A    between atoms: N_12  and  C_13
REMARK    4  A    between atoms: C_13  and  C_14
REMARK                            x       y       z     vdW  Elec       q    Type
REMARK                         _______ _______ _______ _____ _____    ______ ____
ROOT
ATOM      1  C   UNL     1       5.778   3.933  13.855  0.00  0.00    +0.000 C 
ATOM      2  C   UNL     1       6.088   4.520  15.200  0.00  0.00    +0.000 A 
ATOM      3  C   UNL     1       7.177   4.188  15.993  0.00  0.00    +0.000 A 
ATOM      4  C   UNL     1       7.301   4.744  17.251  0.00  0.00    +0.000 A 
ATOM      5  C   UNL     1       6.248   5.508  17.740  0.00  0.00    +0.000 A 
ATOM      6  C   UNL     1       5.284   5.958  16.849  0.00  0.00    +0.000 A 
ATOM      7  N   UNL     1       5.214   5.460  15.597  0.00  0.00    +0.000 NA
ATOM      8  N   UNL     1       4.208   6.748  17.176  0.00  0.00    +0.000 N 
ATOM      9  C   UNL     1       4.507   8.157  17.370  0.00  0.00    +0.000 C 
ATOM     10  C   UNL     1       3.152   6.138  17.986  0.00  0.00    +0.000 C 
ATOM     11  C   UNL     1       3.589   5.724  19.405  0.00  0.00    +0.000 C 
ATOM     12  N   UNL     1       4.709   4.771  19.547  0.00  0.00    +0.000 NA
ATOM     13  C   UNL     1       5.983   5.456  19.219  0.00  0.00    +0.000 C 
ENDROOT
BRANCH  12  14
ATOM     14  C   UNL     1       4.524   3.522  18.762  0.00  0.00    +0.000 C 
BRANCH  14  15
ATOM     15  C   UNL     1       3.156   2.929  18.859  0.00  0.00    +0.000 A 
ATOM     16  C   UNL     1       2.221   2.565  17.944  0.00  0.00    +0.000 A 
ATOM     17  C   UNL     1       1.101   2.096  18.681  0.00  0.00    +0.000 A 
ATOM     18  C   UNL     1       1.444   2.207  20.006  0.00  0.00    +0.000 A 
ATOM     19  O   UNL     1       2.702   2.713  20.120  0.00  0.00    +0.000 OA
ENDBRANCH  14  15
ENDBRANCH  12  14
TORSDOF 2
ENDMDL
MODEL 8
REMARK VINA RESULT:      -5.9      3.322      5.806
REMARK  Name = 
REMARK  4 active torsions:
REMARK  status: ('A' for Active; 'I' for Inactive)
REMARK    1  A    between atoms: C_1  and  C_2
REMARK    2  A    between atoms: N_8  and  C_9
REMARK    3  A    between atoms: N_12  and  C_13
REMARK    4  A    between atoms: C_13  and  C_14
REMARK                            x       y       z     vdW  Elec       q    Type
REMARK                         _______ _______ _______ _____ _____    ______ ____
ROOT
ATOM      1  C   UNL     1       1.984   3.842  18.800  0.00  0.00    +0.000 C 
ATOM      2  C   UNL     1       2.970   4.921  18.466  0.00  0.00    +0.000 A 
ATOM      3  C   UNL     1       2.664   6.138  17.874  0.00  0.00    +0.000 A 
ATOM      4  C   UNL     1       3.680   7.012  17.542  0.00  0.00    +0.000 A 
ATOM      5  C   UNL     1       4.994   6.577  17.678  0.00  0.00    +0.000 A 
ATOM      6  C   UNL     1       5.242   5.444  18.439  0.00  0.00    +0.000 A 
ATOM      7  N   UNL     1       4.234   4.632  18.820  0.00  0.00    +0.000 NA
ATOM      8  N   UNL     1       6.484   4.914  18.692  0.00  0.00    +0.000 N 
ATOM      9  C   UNL     1       7.263   5.611  19.703  0.00  0.00    +0.000 C 
ATOM     10  C   UNL     1       7.190   4.295  17.568  0.00  0.00    +0.000 C 
ATOM     11  C   UNL     1       7.567   5.267  16.433  0.00  0.00    +0.000 C 
ATOM     12  N   UNL     1       6.488   6.028  15.769  0.00  0.00    +0.000 NA
ATOM     13  C   UNL     1       5.999   7.089  16.684  0.00  0.00    +0.000 C 
ENDROOT
BRANCH  12  14
ATOM     14  C   UNL     1       5.384   5.169  15.265  0.00  0.00    +0.000 C 
BRANCH  14  15
ATOM     15  C   UNL     1       5.691   4.458  13.987  0.00  0.00    +0.000 A 
ATOM     16  C   UNL     1       5.018   3.556  13.226  0.00  0.00    +0.000 A 
ATOM     17  C   UNL     1       5.874   3.232  12.140  0.00  0.00    +0.000 A 
ATOM     18  C   UNL     1       7.015   3.973  12.320  0.00  0.00    +0.000 A 
ATOM     19  O   UNL     1       6.907   4.728  13.447  0.00  0.00    +0.000 OA
ENDBRANCH  14  15
ENDBRANCH  12  14
TORSDOF 2
ENDMDL
MODEL 9
REMARK VINA RESULT:      -5.8      2.430      4.622
REMARK  Name = 
REMARK  4 active torsions:
REMARK  status: ('A' for Active; 'I' for Inactive)
REMARK    1  A    between atoms: C_1  and  C_2
REMARK    2  A    between atoms: N_8  and  C_9
REMARK    3  A    between atoms: N_12  and  C_13
REMARK    4  A    between atoms: C_13  and  C_14
REMARK                            x       y       z     vdW  Elec       q    Type
REMARK                         _______ _______ _______ _____ _____    ______ ____
ROOT
ATOM      1  C   UNL     1       5.201   1.089  20.807  0.00  0.00    +0.000 C 
ATOM      2  C   UNL     1       4.222   1.746  19.881  0.00  0.00    +0.000 A 
ATOM      3  C   UNL     1       3.931   1.333  18.589  0.00  0.00    +0.000 A 
ATOM      4  C   UNL     1       3.068   2.077  17.810  0.00  0.00    +0.000 A 
ATOM      5  C   UNL     1       2.631   3.303  18.299  0.00  0.00    +0.000 A 
ATOM      6  C   UNL     1       2.796   3.576  19.649  0.00  0.00    +0.000 A 
ATOM      7  N   UNL     1       3.586   2.800  20.420  0.00  0.00    +0.000 NA
ATOM      8  N   UNL     1       2.385   4.724  20.283  0.00  0.00    +0.000 N 
ATOM      9  C   UNL     1       0.962   4.802  20.569  0.00  0.00    +0.000 C 
ATOM     10  C   UNL     1       3.103   5.959  19.962  0.00  0.00    +0.000 C 
ATOM     11  C   UNL     1       2.960   6.424  18.499  0.00  0.00    +0.000 C 
ATOM     12  N   UNL     1       3.383   5.504  17.423  0.00  0.00    +0.000 NA
ATOM     13  C   UNL     1       2.397   4.403  17.301  0.00  0.00    +0.000 C 
ENDROOT
BRANCH  12  14
ATOM     14  C   UNL     1       4.771   4.999  17.590  0.00  0.00    +0.000 C 
BRANCH  14  15
ATOM     15  C   UNL     1       5.476   4.697  16.307  0.00  0.00    +0.000 A 
ATOM     16  C   UNL     1       5.608   3.581  15.546  0.00  0.00    +0.000 A 
ATOM     17  C   UNL     1       6.443   3.938  14.453  0.00  0.00    +0.000 A 
ATOM     18  C   UNL     1       6.757   5.263  14.632  0.00  0.00    +0.000 A 
ATOM     19  O   UNL     1       6.165   5.733  15.763  0.00  0.00    +0.000 OA
ENDBRANCH  14  15
ENDBRANCH  12  14
TORSDOF 2
ENDMDL
