MODEL 1
REMARK VINA RESULT:      -8.5      0.000      0.000
REMARK  Name = 
REMARK  5 active torsions:
REMARK  status: ('A' for Active; 'I' for Inactive)
REMARK    1  A    between atoms: C_1  and  C_2
REMARK    2  A    between atoms: C_4  and  C_5
REMARK    3  A    between atoms: C_7  and  C_8
REMARK    4  A    between atoms: C_8  and  N_9
REMARK    5  A    between atoms: C_16  and  C_17
REMARK                            x       y       z     vdW  Elec       q    Type
REMARK                         _______ _______ _______ _____ _____    ______ ____
ROOT
ATOM      1  N   UNL     1       5.678   3.973  16.479  0.00  0.00    +0.000 N 
ATOM      2  C   UNL     1       6.798   4.575  17.086  0.00  0.00    +0.000 A 
ATOM      3  O   UNL     1       7.035   4.696  18.278  0.00  0.00    +0.000 OA
ATOM      4  N   UNL     1       7.632   5.009  16.044  0.00  0.00    +0.000 N 
ATOM      5  C   UNL     1       7.049   4.668  14.831  0.00  0.00    +0.000 A 
ATOM      6  C   UNL     1       7.525   4.874  13.556  0.00  0.00    +0.000 A 
ATOM      7  C   UNL     1       6.731   4.406  12.505  0.00  0.00    +0.000 A 
ATOM      8  C   UNL     1       5.490   3.757  12.744  0.00  0.00    +0.000 A 
ATOM      9  C   UNL     1       5.033   3.572  14.066  0.00  0.00    +0.000 A 
ATOM     10  C   UNL     1       5.836   4.030  15.088  0.00  0.00    +0.000 A 
ATOM     11  H   UNL     1       8.518   5.460  16.193  0.00  0.00    +0.000 HD
ENDROOT
BRANCH   8  12
ATOM     12  C   UNL     1       4.652   3.247  11.594  0.00  0.00    +0.000 C 
ATOM     13  F   UNL     1       4.586   4.112  10.543  0.00  0.00    +0.000 F 
ATOM     14  F   UNL     1       5.126   2.077  11.085  0.00  0.00    +0.000 F 
ATOM     15  F   UNL     1       3.364   3.003  11.959  0.00  0.00    +0.000 F 
ENDBRANCH   8  12
BRANCH   1  16
ATOM     16  C   UNL     1       4.619   3.308  17.191  0.00  0.00    +0.000 C 
BRANCH  16  23
ATOM     17  C   UNL     1       2.051   4.069  21.464  0.00  0.00    +0.000 C 
ATOM     18  C   UNL     1       2.580   4.597  20.163  0.00  0.00    +0.000 A 
ATOM     19  C   UNL     1       2.265   5.892  19.734  0.00  0.00    +0.000 A 
ATOM     20  C   UNL     1       2.726   6.368  18.503  0.00  0.00    +0.000 A 
ATOM     21  C   UNL     1       2.397   7.756  18.034  0.00  0.00    +0.000 C 
ATOM     22  C   UNL     1       3.500   5.529  17.692  0.00  0.00    +0.000 A 
ATOM     23  C   UNL     1       3.836   4.228  18.103  0.00  0.00    +0.000 A 
ATOM     24  C   UNL     1       3.373   3.777  19.348  0.00  0.00    +0.000 A 
ENDBRANCH  16  23
ENDBRANCH   1  16
TORSDOF 3
ENDMDL
MODEL 2
REMARK VINA RESULT:      -8.5      0.179      1.970
REMARK  Name = 
REMARK  5 active torsions:
REMARK  status: ('A' for Active; 'I' for Inactive)
REMARK    1  A    between atoms: C_1  and  C_2
REMARK    2  A    between atoms: C_4  and  C_5
REMARK    3  A    between atoms: C_7  and  C_8
REMARK    4  A    between atoms: C_8  and  N_9
REMARK    5  A    between atoms: C_16  and  C_17
REMARK                            x       y       z     vdW  Elec       q    Type
REMARK                         _______ _______ _______ _____ _____    ______ ____
ROOT
ATOM      1  N   UNL     1       5.686   4.007  16.462  0.00  0.00    +0.000 N 
ATOM      2  C   UNL     1       6.821   4.590  17.058  0.00  0.00    +0.000 A 
ATOM      3  O   UNL     1       7.066   4.719  18.248  0.00  0.00    +0.000 OA
ATOM      4  N   UNL     1       7.661   4.992  16.007  0.00  0.00    +0.000 N 
ATOM      5  C   UNL     1       7.066   4.651  14.801  0.00  0.00    +0.000 A 
ATOM      6  C   UNL     1       7.542   4.831  13.522  0.00  0.00    +0.000 A 
ATOM      7  C   UNL     1       6.733   4.369  12.479  0.00  0.00    +0.000 A 
ATOM      8  C   UNL     1       5.478   3.751  12.731  0.00  0.00    +0.000 A 
ATOM      9  C   UNL     1       5.023   3.593  14.056  0.00  0.00    +0.000 A 
ATOM     10  C   UNL     1       5.840   4.044  15.070  0.00  0.00    +0.000 A 
ATOM     11  H   UNL     1       8.557   5.424  16.148  0.00  0.00    +0.000 HD
ENDROOT
BRANCH   8  12
ATOM     12  C   UNL     1       4.625   3.248  11.589  0.00  0.00    +0.000 C 
ATOM     13  F   UNL     1       3.337   2.981  11.948  0.00  0.00    +0.000 F 
ATOM     14  F   UNL     1       4.550   4.139  10.564  0.00  0.00    +0.000 F 
ATOM     15  F   UNL     1       5.109   2.096  11.049  0.00  0.00    +0.000 F 
ENDBRANCH   8  12
BRANCH   1  16
ATOM     16  C   UNL     1       4.614   3.375  17.186  0.00  0.00    +0.000 C 
BRANCH  16  23
ATOM     17  C   UNL     1       2.743   8.001  17.913  0.00  0.00    +0.000 C 
ATOM     18  C   UNL     1       2.898   6.582  18.375  0.00  0.00    +0.000 A 
ATOM     19  C   UNL     1       2.387   6.173  19.614  0.00  0.00    +0.000 A 
ATOM     20  C   UNL     1       2.567   4.861  20.061  0.00  0.00    +0.000 A 
ATOM     21  C   UNL     1       2.022   4.409  21.385  0.00  0.00    +0.000 C 
ATOM     22  C   UNL     1       3.277   3.957  19.261  0.00  0.00    +0.000 A 
ATOM     23  C   UNL     1       3.793   4.341  18.012  0.00  0.00    +0.000 A 
ATOM     24  C   UNL     1       3.589   5.660  17.578  0.00  0.00    +0.000 A 
ENDBRANCH  16  23
ENDBRANCH   1  16
TORSDOF 3
ENDMDL
MODEL 3
REMARK VINA RESULT:      -8.3      2.895      6.402
REMARK  Name = 
REMARK  5 active torsions:
REMARK  status: ('A' for Active; 'I' for Inactive)
REMARK    1  A    between atoms: C_1  and  C_2
REMARK    2  A    between atoms: C_4  and  C_5
REMARK    3  A    between atoms: C_7  and  C_8
REMARK    4  A    between atoms: C_8  and  N_9
REMARK    5  A    between atoms: C_16  and  C_17
REMARK                            x       y       z     vdW  Elec       q    Type
REMARK                         _______ _______ _______ _____ _____    ______ ____
ROOT
ATOM      1  N   UNL     1       5.745   5.315  16.954  0.00  0.00    +0.000 N 
ATOM      2  C   UNL     1       5.878   6.718  16.982  0.00  0.00    +0.000 A 
ATOM      3  O   UNL     1       6.823   7.393  16.605  0.00  0.00    +0.000 OA
ATOM      4  N   UNL     1       4.684   7.221  17.522  0.00  0.00    +0.000 N 
ATOM      5  C   UNL     1       3.834   6.159  17.801  0.00  0.00    +0.000 A 
ATOM      6  C   UNL     1       2.557   6.186  18.311  0.00  0.00    +0.000 A 
ATOM      7  C   UNL     1       1.918   4.953  18.475  0.00  0.00    +0.000 A 
ATOM      8  C   UNL     1       2.562   3.733  18.136  0.00  0.00    +0.000 A 
ATOM      9  C   UNL     1       3.875   3.747  17.622  0.00  0.00    +0.000 A 
ATOM     10  C   UNL     1       4.483   4.973  17.458  0.00  0.00    +0.000 A 
ATOM     11  H   UNL     1       4.498   8.201  17.639  0.00  0.00    +0.000 HD
ENDROOT
BRANCH   8  12
ATOM     12  C   UNL     1       1.849   2.411  18.308  0.00  0.00    +0.000 C 
ATOM     13  F   UNL     1       2.154   1.498  17.344  0.00  0.00    +0.000 F 
ATOM     14  F   UNL     1       2.143   1.814  19.495  0.00  0.00    +0.000 F 
ATOM     15  F   UNL     1       0.495   2.546  18.282  0.00  0.00    +0.000 F 
ENDBRANCH   8  12
BRANCH   1  16
ATOM     16  C   UNL     1       6.711   4.412  16.386  0.00  0.00    +0.000 C 
BRANCH  16  23
ATOM     17  C   UNL     1       5.212   2.603  11.924  0.00  0.00    +0.000 C 
ATOM     18  C   UNL     1       6.044   3.570  12.712  0.00  0.00    +0.000 A 
ATOM     19  C   UNL     1       6.943   4.431  12.070  0.00  0.00    +0.000 A 
ATOM     20  C   UNL     1       7.748   5.303  12.809  0.00  0.00    +0.000 A 
ATOM     21  C   UNL     1       8.713   6.232  12.131  0.00  0.00    +0.000 C 
ATOM     22  C   UNL     1       7.655   5.300  14.206  0.00  0.00    +0.000 A 
ATOM     23  C   UNL     1       6.756   4.452  14.874  0.00  0.00    +0.000 A 
ATOM     24  C   UNL     1       5.950   3.595  14.111  0.00  0.00    +0.000 A 
ENDBRANCH  16  23
ENDBRANCH   1  16
TORSDOF 3
ENDMDL
MODEL 4
REMARK VINA RESULT:      -8.2      2.906      6.541
REMARK  Name = 
REMARK  5 active torsions:
REMARK  status: ('A' for Active; 'I' for Inactive)
REMARK    1  A    between atoms: C_1  and  C_2
REMARK    2  A    between atoms: C_4  and  C_5
REMARK    3  A    between atoms: C_7  and  C_8
REMARK    4  A    between atoms: C_8  and  N_9
REMARK    5  A    between atoms: C_16  and  C_17
REMARK                            x       y       z     vdW  Elec       q    Type
REMARK                         _______ _______ _______ _____ _____    ______ ____
ROOT
ATOM      1  N   UNL     1       5.694   5.306  16.983  0.00  0.00    +0.000 N 
ATOM      2  C   UNL     1       5.802   6.711  16.961  0.00  0.00    +0.000 A 
ATOM      3  O   UNL     1       6.745   7.388  16.583  0.00  0.00    +0.000 OA
ATOM      4  N   UNL     1       4.585   7.211  17.450  0.00  0.00    +0.000 N 
ATOM      5  C   UNL     1       3.747   6.145  17.747  0.00  0.00    +0.000 A 
ATOM      6  C   UNL     1       2.457   6.169  18.224  0.00  0.00    +0.000 A 
ATOM      7  C   UNL     1       1.835   4.931  18.417  0.00  0.00    +0.000 A 
ATOM      8  C   UNL     1       2.509   3.711  18.141  0.00  0.00    +0.000 A 
ATOM      9  C   UNL     1       3.835   3.730  17.661  0.00  0.00    +0.000 A 
ATOM     10  C   UNL     1       4.425   4.960  17.466  0.00  0.00    +0.000 A 
ATOM     11  H   UNL     1       4.380   8.192  17.525  0.00  0.00    +0.000 HD
ENDROOT
BRANCH   8  12
ATOM     12  C   UNL     1       1.814   2.384  18.345  0.00  0.00    +0.000 C 
ATOM     13  F   UNL     1       2.163   1.759  19.505  0.00  0.00    +0.000 F 
ATOM     14  F   UNL     1       0.460   2.507  18.378  0.00  0.00    +0.000 F 
ATOM     15  F   UNL     1       2.086   1.499  17.348  0.00  0.00    +0.000 F 
ENDBRANCH   8  12
BRANCH   1  16
ATOM     16  C   UNL     1       6.690   4.400  16.474  0.00  0.00    +0.000 C 
BRANCH  16  23
ATOM     17  C   UNL     1       8.768   6.178  12.238  0.00  0.00    +0.000 C 
ATOM     18  C   UNL     1       7.783   5.269  12.910  0.00  0.00    +0.000 A 
ATOM     19  C   UNL     1       6.881   4.507  12.157  0.00  0.00    +0.000 A 
ATOM     20  C   UNL     1       5.936   3.692  12.787  0.00  0.00    +0.000 A 
ATOM     21  C   UNL     1       4.966   2.868  11.990  0.00  0.00    +0.000 C 
ATOM     22  C   UNL     1       5.891   3.652  14.186  0.00  0.00    +0.000 A 
ATOM     23  C   UNL     1       6.790   4.401  14.964  0.00  0.00    +0.000 A 
ATOM     24  C   UNL     1       7.737   5.203  14.310  0.00  0.00    +0.000 A 
ENDBRANCH  16  23
ENDBRANCH   1  16
TORSDOF 3
ENDMDL
MODEL 5
REMARK VINA RESULT:      -8.2      0.997      2.246
REMARK  Name = 
REMARK  5 active torsions:
REMARK  status: ('A' for Active; 'I' for Inactive)
REMARK    1  A    between atoms: C_1  and  C_2
REMARK    2  A    between atoms: C_4  and  C_5
REMARK    3  A    between atoms: C_7  and  C_8
REMARK    4  A    between atoms: C_8  and  N_9
REMARK    5  A    between atoms: C_16  and  C_17
REMARK                            x       y       z     vdW  Elec       q    Type
REMARK                         _______ _______ _______ _____ _____    ______ ____
ROOT
ATOM      1  N   UNL     1       5.477   3.908  17.233  0.00  0.00    +0.000 N 
ATOM      2  C   UNL     1       6.371   4.584  18.086  0.00  0.00    +0.000 A 
ATOM      3  O   UNL     1       6.352   4.642  19.305  0.00  0.00    +0.000 OA
ATOM      4  N   UNL     1       7.333   5.185  17.258  0.00  0.00    +0.000 N 
ATOM      5  C   UNL     1       7.047   4.873  15.936  0.00  0.00    +0.000 A 
ATOM      6  C   UNL     1       7.735   5.225  14.798  0.00  0.00    +0.000 A 
ATOM      7  C   UNL     1       7.228   4.750  13.584  0.00  0.00    +0.000 A 
ATOM      8  C   UNL     1       6.055   3.951  13.533  0.00  0.00    +0.000 A 
ATOM      9  C   UNL     1       5.374   3.618  14.722  0.00  0.00    +0.000 A 
ATOM     10  C   UNL     1       5.896   4.086  15.908  0.00  0.00    +0.000 A 
ATOM     11  H   UNL     1       8.109   5.720  17.608  0.00  0.00    +0.000 HD
ENDROOT
BRANCH   8  12
ATOM     12  C   UNL     1       5.530   3.437  12.211  0.00  0.00    +0.000 C 
ATOM     13  F   UNL     1       5.739   2.104  12.023  0.00  0.00    +0.000 F 
ATOM     14  F   UNL     1       4.189   3.628  12.075  0.00  0.00    +0.000 F 
ATOM     15  F   UNL     1       6.106   4.060  11.147  0.00  0.00    +0.000 F 
ENDBRANCH   8  12
BRANCH   1  16
ATOM     16  C   UNL     1       4.389   3.078  17.680  0.00  0.00    +0.000 C 
BRANCH  16  23
ATOM     17  C   UNL     1       2.218   7.319  19.332  0.00  0.00    +0.000 C 
ATOM     18  C   UNL     1       2.402   5.834  19.441  0.00  0.00    +0.000 A 
ATOM     19  C   UNL     1       1.798   5.112  20.478  0.00  0.00    +0.000 A 
ATOM     20  C   UNL     1       2.003   3.734  20.602  0.00  0.00    +0.000 A 
ATOM     21  C   UNL     1       1.359   2.949  21.707  0.00  0.00    +0.000 C 
ATOM     22  C   UNL     1       2.832   3.082  19.682  0.00  0.00    +0.000 A 
ATOM     23  C   UNL     1       3.444   3.782  18.629  0.00  0.00    +0.000 A 
ATOM     24  C   UNL     1       3.213   5.161  18.517  0.00  0.00    +0.000 A 
ENDBRANCH  16  23
ENDBRANCH   1  16
TORSDOF 3
ENDMDL
MODEL 6
REMARK VINA RESULT:      -8.2      4.194      5.456
REMARK  Name = 
REMARK  5 active torsions:
REMARK  status: ('A' for Active; 'I' for Inactive)
REMARK    1  A    between atoms: C_1  and  C_2
REMARK    2  A    between atoms: C_4  and  C_5
REMARK    3  A    between atoms: C_7  and  C_8
REMARK    4  A    between atoms: C_8  and  N_9
REMARK    5  A    between atoms: C_16  and  C_17
REMARK                            x       y       z     vdW  Elec       q    Type
REMARK                         _______ _______ _______ _____ _____    ______ ____
ROOT
ATOM      1  N   UNL     1       2.823   4.484  18.980  0.00  0.00    +0.000 N 
ATOM      2  C   UNL     1       2.013   3.905  17.983  0.00  0.00    +0.000 A 
ATOM      3  O   UNL     1       0.811   3.692  18.017  0.00  0.00    +0.000 OA
ATOM      4  N   UNL     1       2.858   3.624  16.897  0.00  0.00    +0.000 N 
ATOM      5  C   UNL     1       4.146   4.035  17.211  0.00  0.00    +0.000 A 
ATOM      6  C   UNL     1       5.283   3.978  16.438  0.00  0.00    +0.000 A 
ATOM      7  C   UNL     1       6.455   4.487  17.006  0.00  0.00    +0.000 A 
ATOM      8  C   UNL     1       6.470   5.027  18.320  0.00  0.00    +0.000 A 
ATOM      9  C   UNL     1       5.284   5.060  19.083  0.00  0.00    +0.000 A 
ATOM     10  C   UNL     1       4.137   4.565  18.501  0.00  0.00    +0.000 A 
ATOM     11  H   UNL     1       2.536   3.221  16.034  0.00  0.00    +0.000 HD
ENDROOT
BRANCH   8  12
ATOM     12  C   UNL     1       7.745   5.583  18.910  0.00  0.00    +0.000 C 
ATOM     13  F   UNL     1       8.127   6.771  18.362  0.00  0.00    +0.000 F 
ATOM     14  F   UNL     1       7.644   5.805  20.249  0.00  0.00    +0.000 F 
ATOM     15  F   UNL     1       8.802   4.740  18.749  0.00  0.00    +0.000 F 
ENDBRANCH   8  12
BRANCH   1  16
ATOM     16  C   UNL     1       2.335   5.009  20.228  0.00  0.00    +0.000 C 
BRANCH  16  23
ATOM     17  C   UNL     1      -0.022   9.001  22.211  0.00  0.00    +0.000 C 
ATOM     18  C   UNL     1       0.796   8.401  21.106  0.00  0.00    +0.000 A 
ATOM     19  C   UNL     1       1.109   9.145  19.961  0.00  0.00    +0.000 A 
ATOM     20  C   UNL     1       1.837   8.571  18.915  0.00  0.00    +0.000 A 
ATOM     21  C   UNL     1       2.182   9.360  17.684  0.00  0.00    +0.000 C 
ATOM     22  C   UNL     1       2.243   7.235  19.017  0.00  0.00    +0.000 A 
ATOM     23  C   UNL     1       1.948   6.470  20.157  0.00  0.00    +0.000 A 
ATOM     24  C   UNL     1       1.227   7.070  21.200  0.00  0.00    +0.000 A 
ENDBRANCH  16  23
ENDBRANCH   1  16
TORSDOF 3
ENDMDL
MODEL 7
REMARK VINA RESULT:      -8.1      4.178      5.649
REMARK  Name = 
REMARK  5 active torsions:
REMARK  status: ('A' for Active; 'I' for Inactive)
REMARK    1  A    between atoms: C_1  and  C_2
REMARK    2  A    between atoms: C_4  and  C_5
REMARK    3  A    between atoms: C_7  and  C_8
REMARK    4  A    between atoms: C_8  and  N_9
REMARK    5  A    between atoms: C_16  and  C_17
REMARK                            x       y       z     vdW  Elec       q    Type
REMARK                         _______ _______ _______ _____ _____    ______ ____
ROOT
ATOM      1  N   UNL     1       2.810   4.467  19.002  0.00  0.00    +0.000 N 
ATOM      2  C   UNL     1       1.990   3.873  18.022  0.00  0.00    +0.000 A 
ATOM      3  O   UNL     1       0.788   3.661  18.072  0.00  0.00    +0.000 OA
ATOM      4  N   UNL     1       2.824   3.574  16.933  0.00  0.00    +0.000 N 
ATOM      5  C   UNL     1       4.115   3.989  17.228  0.00  0.00    +0.000 A 
ATOM      6  C   UNL     1       5.245   3.919  16.445  0.00  0.00    +0.000 A 
ATOM      7  C   UNL     1       6.423   4.436  16.993  0.00  0.00    +0.000 A 
ATOM      8  C   UNL     1       6.450   4.997  18.298  0.00  0.00    +0.000 A 
ATOM      9  C   UNL     1       5.272   5.042  19.072  0.00  0.00    +0.000 A 
ATOM     10  C   UNL     1       4.119   4.539  18.509  0.00  0.00    +0.000 A 
ATOM     11  H   UNL     1       2.494   3.158  16.079  0.00  0.00    +0.000 HD
ENDROOT
BRANCH   8  12
ATOM     12  C   UNL     1       7.732   5.561  18.868  0.00  0.00    +0.000 C 
ATOM     13  F   UNL     1       7.665   5.827  20.202  0.00  0.00    +0.000 F 
ATOM     14  F   UNL     1       8.787   4.717  18.707  0.00  0.00    +0.000 F 
ATOM     15  F   UNL     1       8.093   6.730  18.271  0.00  0.00    +0.000 F 
ENDBRANCH   8  12
BRANCH   1  16
ATOM     16  C   UNL     1       2.334   5.012  20.246  0.00  0.00    +0.000 C 
BRANCH  16  23
ATOM     17  C   UNL     1       2.177   9.364  17.705  0.00  0.00    +0.000 C 
ATOM     18  C   UNL     1       1.811   8.563  18.919  0.00  0.00    +0.000 A 
ATOM     19  C   UNL     1       1.150   9.161  19.999  0.00  0.00    +0.000 A 
ATOM     20  C   UNL     1       0.846   8.423  21.147  0.00  0.00    +0.000 A 
ATOM     21  C   UNL     1       0.135   9.052  22.310  0.00  0.00    +0.000 C 
ATOM     22  C   UNL     1       1.220   7.075  21.212  0.00  0.00    +0.000 A 
ATOM     23  C   UNL     1       1.877   6.450  20.139  0.00  0.00    +0.000 A 
ATOM     24  C   UNL     1       2.161   7.207  18.993  0.00  0.00    +0.000 A 
ENDBRANCH  16  23
ENDBRANCH   1  16
TORSDOF 3
ENDMDL
MODEL 8
REMARK VINA RESULT:      -8.1      1.044      1.359
REMARK  Name = 
REMARK  5 active torsions:
REMARK  status: ('A' for Active; 'I' for Inactive)
REMARK    1  A    between atoms: C_1  and  C_2
REMARK    2  A    between atoms: C_4  and  C_5
REMARK    3  A    between atoms: C_7  and  C_8
REMARK    4  A    between atoms: C_8  and  N_9
REMARK    5  A    between atoms: C_16  and  C_17
REMARK                            x       y       z     vdW  Elec       q    Type
REMARK                         _______ _______ _______ _____ _____    ______ ____
ROOT
ATOM      1  N   UNL     1       5.330   3.934  17.246  0.00  0.00    +0.000 N 
ATOM      2  C   UNL     1       6.229   4.560  18.131  0.00  0.00    +0.000 A 
ATOM      3  O   UNL     1       6.172   4.617  19.349  0.00  0.00    +0.000 OA
ATOM      4  N   UNL     1       7.249   5.111  17.338  0.00  0.00    +0.000 N 
ATOM      5  C   UNL     1       6.992   4.816  16.006  0.00  0.00    +0.000 A 
ATOM      6  C   UNL     1       7.736   5.133  14.893  0.00  0.00    +0.000 A 
ATOM      7  C   UNL     1       7.246   4.688  13.661  0.00  0.00    +0.000 A 
ATOM      8  C   UNL     1       6.034   3.952  13.567  0.00  0.00    +0.000 A 
ATOM      9  C   UNL     1       5.297   3.654  14.732  0.00  0.00    +0.000 A 
ATOM     10  C   UNL     1       5.803   4.091  15.937  0.00  0.00    +0.000 A 
ATOM     11  H   UNL     1       8.040   5.603  17.716  0.00  0.00    +0.000 HD
ENDROOT
BRANCH   8  12
ATOM     12  C   UNL     1       5.528   3.469  12.227  0.00  0.00    +0.000 C 
ATOM     13  F   UNL     1       4.193   3.671  12.044  0.00  0.00    +0.000 F 
ATOM     14  F   UNL     1       6.146   4.089  11.185  0.00  0.00    +0.000 F 
ATOM     15  F   UNL     1       5.733   2.136  12.045  0.00  0.00    +0.000 F 
ENDBRANCH   8  12
BRANCH   1  16
ATOM     16  C   UNL     1       4.185   3.162  17.653  0.00  0.00    +0.000 C 
BRANCH  16  23
ATOM     17  C   UNL     1       1.330   2.794  21.793  0.00  0.00    +0.000 C 
ATOM     18  C   UNL     1       1.977   3.646  20.741  0.00  0.00    +0.000 A 
ATOM     19  C   UNL     1       1.746   5.027  20.695  0.00  0.00    +0.000 A 
ATOM     20  C   UNL     1       2.318   5.813  19.690  0.00  0.00    +0.000 A 
ATOM     21  C   UNL     1       2.080   7.294  19.633  0.00  0.00    +0.000 C 
ATOM     22  C   UNL     1       3.119   5.202  18.717  0.00  0.00    +0.000 A 
ATOM     23  C   UNL     1       3.372   3.820  18.746  0.00  0.00    +0.000 A 
ATOM     24  C   UNL     1       2.798   3.054  19.771  0.00  0.00    +0.000 A 
ENDBRANCH  16  23
ENDBRANCH   1  16
TORSDOF 3
ENDMDL
MODEL 9
REMARK VINA RESULT:      -8.0      3.790      6.668
REMARK  Name = 
REMARK  5 active torsions:
REMARK  status: ('A' for Active; 'I' for Inactive)
REMARK    1  A    between atoms: C_1  and  C_2
REMARK    2  A    between atoms: C_4  and  C_5
REMARK    3  A    between atoms: C_7  and  C_8
REMARK    4  A    between atoms: C_8  and  N_9
REMARK    5  A    between atoms: C_16  and  C_17
REMARK                            x       y       z     vdW  Elec       q    Type
REMARK                         _______ _______ _______ _____ _____    ______ ____
ROOT
ATOM      1  N   UNL     1       2.838   4.084  19.055  0.00  0.00    +0.000 N 
ATOM      2  C   UNL     1       2.713   3.419  20.291  0.00  0.00    +0.000 A 
ATOM      3  O   UNL     1       2.978   2.256  20.551  0.00  0.00    +0.000 OA
ATOM      4  N   UNL     1       2.230   4.367  21.206  0.00  0.00    +0.000 N 
ATOM      5  C   UNL     1       2.079   5.584  20.556  0.00  0.00    +0.000 A 
ATOM      6  C   UNL     1       1.660   6.791  21.068  0.00  0.00    +0.000 A 
ATOM      7  C   UNL     1       1.621   7.871  20.182  0.00  0.00    +0.000 A 
ATOM      8  C   UNL     1       1.988   7.724  18.817  0.00  0.00    +0.000 A 
ATOM      9  C   UNL     1       2.405   6.469  18.329  0.00  0.00    +0.000 A 
ATOM     10  C   UNL     1       2.448   5.419  19.222  0.00  0.00    +0.000 A 
ATOM     11  H   UNL     1       2.065   4.166  22.177  0.00  0.00    +0.000 HD
ENDROOT
BRANCH   8  12
ATOM     12  C   UNL     1       1.950   8.908  17.877  0.00  0.00    +0.000 C 
ATOM     13  F   UNL     1       2.329  10.079  18.461  0.00  0.00    +0.000 F 
ATOM     14  F   UNL     1       2.769   8.744  16.803  0.00  0.00    +0.000 F 
ATOM     15  F   UNL     1       0.706   9.128  17.370  0.00  0.00    +0.000 F 
ENDBRANCH   8  12
BRANCH   1  16
ATOM     16  C   UNL     1       3.391   3.499  17.862  0.00  0.00    +0.000 C 
BRANCH  16  23
ATOM     17  C   UNL     1       7.733   5.650  19.257  0.00  0.00    +0.000 C 
ATOM     18  C   UNL     1       6.858   5.090  18.175  0.00  0.00    +0.000 A 
ATOM     19  C   UNL     1       7.246   5.160  16.831  0.00  0.00    +0.000 A 
ATOM     20  C   UNL     1       6.410   4.674  15.821  0.00  0.00    +0.000 A 
ATOM     21  C   UNL     1       6.817   4.741  14.378  0.00  0.00    +0.000 C 
ATOM     22  C   UNL     1       5.170   4.124  16.166  0.00  0.00    +0.000 A 
ATOM     23  C   UNL     1       4.761   4.036  17.507  0.00  0.00    +0.000 A 
ATOM     24  C   UNL     1       5.621   4.518  18.505  0.00  0.00    +0.000 A 
ENDBRANCH  16  23
ENDBRANCH   1  16
TORSDOF 3
ENDMDL
