MODEL 1
REMARK VINA RESULT:      -7.0      0.000      0.000
REMARK  Name = 
REMARK  7 active torsions:
REMARK  status: ('A' for Active; 'I' for Inactive)
REMARK    1  A    between atoms: C_1  and  C_2
REMARK    2  A    between atoms: C_2  and  C_3
REMARK    3  A    between atoms: C_3  and  C_4
REMARK    4  A    between atoms: C_9  and  C_10
REMARK    5  A    between atoms: C_10  and  C_11
REMARK    6  A    between atoms: C_11  and  C_12
REMARK    7  A    between atoms: C_11  and  N_13
REMARK                            x       y       z     vdW  Elec       q    Type
REMARK                         _______ _______ _______ _____ _____    ______ ____
ROOT
ATOM      1  C   UNL     1       5.282   4.683  16.415  0.00  0.00    +0.000 A 
ATOM      2  C   UNL     1       5.174   6.086  16.361  0.00  0.00    +0.000 A 
ATOM      3  C   UNL     1       4.210   6.779  17.086  0.00  0.00    +0.000 A 
ATOM      4  C   UNL     1       3.282   6.091  17.872  0.00  0.00    +0.000 A 
ATOM      5  C   UNL     1       3.323   4.683  17.926  0.00  0.00    +0.000 A 
ATOM      6  C   UNL     1       2.505   3.688  18.558  0.00  0.00    +0.000 A 
ATOM      7  C   UNL     1       3.082   2.465  18.277  0.00  0.00    +0.000 A 
ATOM      8  N   UNL     1       4.177   2.679  17.489  0.00  0.00    +0.000 N 
ATOM      9  C   UNL     1       4.332   4.020  17.219  0.00  0.00    +0.000 A 
ATOM     10  H   UNL     1       4.787   1.952  17.139  0.00  0.00    +0.000 HD
ENDROOT
BRANCH   1  11
ATOM     11  C   UNL     1       6.359   3.976  15.628  0.00  0.00    +0.000 C 
BRANCH  11  13
ATOM     12  C   UNL     1       6.039   3.677  13.116  0.00  0.00    +0.000 C 
ATOM     13  C   UNL     1       6.600   4.552  14.229  0.00  0.00    +0.000 C 
ENDBRANCH  11  13
ENDBRANCH   1  11
BRANCH   6  14
ATOM     14  C   UNL     1       1.254   3.892  19.366  0.00  0.00    +0.000 C 
BRANCH  14  15
ATOM     15  C   UNL     1       1.492   4.014  20.888  0.00  0.00    +0.000 C 
ATOM     16  C   UNL     1       2.071   2.742  21.513  0.00  0.00    +0.000 C 
BRANCH  15  17
ATOM     17  N   UNL     1       2.406   5.136  21.165  0.00  0.00    +0.000 NA
ATOM     18  H   UNL     1       3.265   4.779  21.584  0.00  0.00    +0.000 HD
ATOM     19  H   UNL     1       1.986   5.743  21.869  0.00  0.00    +0.000 HD
ENDBRANCH  15  17
ENDBRANCH  14  15
ENDBRANCH   6  14
TORSDOF 5
ENDMDL
MODEL 2
REMARK VINA RESULT:      -6.8      1.765      5.604
REMARK  Name = 
REMARK  7 active torsions:
REMARK  status: ('A' for Active; 'I' for Inactive)
REMARK    1  A    between atoms: C_1  and  C_2
REMARK    2  A    between atoms: C_2  and  C_3
REMARK    3  A    between atoms: C_3  and  C_4
REMARK    4  A    between atoms: C_9  and  C_10
REMARK    5  A    between atoms: C_10  and  C_11
REMARK    6  A    between atoms: C_11  and  C_12
REMARK    7  A    between atoms: C_11  and  N_13
REMARK                            x       y       z     vdW  Elec       q    Type
REMARK                         _______ _______ _______ _____ _____    ______ ____
ROOT
ATOM      1  C   UNL     1       2.924   4.729  19.602  0.00  0.00    +0.000 A 
ATOM      2  C   UNL     1       2.440   6.046  19.737  0.00  0.00    +0.000 A 
ATOM      3  C   UNL     1       2.695   7.025  18.783  0.00  0.00    +0.000 A 
ATOM      4  C   UNL     1       3.481   6.738  17.664  0.00  0.00    +0.000 A 
ATOM      5  C   UNL     1       4.022   5.447  17.505  0.00  0.00    +0.000 A 
ATOM      6  C   UNL     1       4.901   4.848  16.542  0.00  0.00    +0.000 A 
ATOM      7  C   UNL     1       5.036   3.521  16.899  0.00  0.00    +0.000 A 
ATOM      8  N   UNL     1       4.310   3.309  18.038  0.00  0.00    +0.000 N 
ATOM      9  C   UNL     1       3.711   4.474  18.460  0.00  0.00    +0.000 A 
ATOM     10  H   UNL     1       4.233   2.421  18.515  0.00  0.00    +0.000 HD
ENDROOT
BRANCH   1  11
ATOM     11  C   UNL     1       2.602   3.694  20.653  0.00  0.00    +0.000 C 
BRANCH  11  13
ATOM     12  C   UNL     1       0.751   2.641  19.251  0.00  0.00    +0.000 C 
ATOM     13  C   UNL     1       1.159   3.183  20.614  0.00  0.00    +0.000 C 
ENDBRANCH  11  13
ENDBRANCH   1  11
BRANCH   6  14
ATOM     14  C   UNL     1       5.571   5.503  15.366  0.00  0.00    +0.000 C 
BRANCH  14  15
ATOM     15  C   UNL     1       6.668   4.643  14.699  0.00  0.00    +0.000 C 
ATOM     16  C   UNL     1       6.161   3.844  13.495  0.00  0.00    +0.000 C 
BRANCH  15  17
ATOM     17  N   UNL     1       7.782   5.503  14.261  0.00  0.00    +0.000 NA
ATOM     18  H   UNL     1       8.646   5.193  14.708  0.00  0.00    +0.000 HD
ATOM     19  H   UNL     1       7.623   6.453  14.598  0.00  0.00    +0.000 HD
ENDBRANCH  15  17
ENDBRANCH  14  15
ENDBRANCH   6  14
TORSDOF 5
ENDMDL
MODEL 3
REMARK VINA RESULT:      -6.8      1.112      1.180
REMARK  Name = 
REMARK  7 active torsions:
REMARK  status: ('A' for Active; 'I' for Inactive)
REMARK    1  A    between atoms: C_1  and  C_2
REMARK    2  A    between atoms: C_2  and  C_3
REMARK    3  A    between atoms: C_3  and  C_4
REMARK    4  A    between atoms: C_9  and  C_10
REMARK    5  A    between atoms: C_10  and  C_11
REMARK    6  A    between atoms: C_11  and  C_12
REMARK    7  A    between atoms: C_11  and  N_13
REMARK                            x       y       z     vdW  Elec       q    Type
REMARK                         _______ _______ _______ _____ _____    ______ ____
ROOT
ATOM      1  C   UNL     1       5.476   4.758  15.719  0.00  0.00    +0.000 A 
ATOM      2  C   UNL     1       5.413   6.163  15.627  0.00  0.00    +0.000 A 
ATOM      3  C   UNL     1       4.730   6.932  16.564  0.00  0.00    +0.000 A 
ATOM      4  C   UNL     1       4.045   6.324  17.619  0.00  0.00    +0.000 A 
ATOM      5  C   UNL     1       4.044   4.919  17.731  0.00  0.00    +0.000 A 
ATOM      6  C   UNL     1       3.408   3.992  18.622  0.00  0.00    +0.000 A 
ATOM      7  C   UNL     1       3.828   2.731  18.249  0.00  0.00    +0.000 A 
ATOM      8  N   UNL     1       4.654   2.857  17.168  0.00  0.00    +0.000 N 
ATOM      9  C   UNL     1       4.776   4.177  16.797  0.00  0.00    +0.000 A 
ATOM     10  H   UNL     1       5.106   2.087  16.694  0.00  0.00    +0.000 HD
ENDROOT
BRANCH   1  11
ATOM     11  C   UNL     1       6.249   3.967  14.692  0.00  0.00    +0.000 C 
BRANCH  11  13
ATOM     12  C   UNL     1       6.487   3.486  12.199  0.00  0.00    +0.000 C 
ATOM     13  C   UNL     1       5.539   3.822  13.342  0.00  0.00    +0.000 C 
ENDBRANCH  11  13
ENDBRANCH   1  11
BRANCH   6  14
ATOM     14  C   UNL     1       2.455   4.293  19.746  0.00  0.00    +0.000 C 
BRANCH  14  15
ATOM     15  C   UNL     1       1.762   3.049  20.343  0.00  0.00    +0.000 C 
ATOM     16  C   UNL     1       2.050   2.852  21.834  0.00  0.00    +0.000 C 
BRANCH  15  17
ATOM     17  N   UNL     1       0.304   3.147  20.152  0.00  0.00    +0.000 NA
ATOM     18  H   UNL     1      -0.043   2.281  19.737  0.00  0.00    +0.000 HD
ATOM     19  H   UNL     1       0.105   3.879  19.469  0.00  0.00    +0.000 HD
ENDBRANCH  15  17
ENDBRANCH  14  15
ENDBRANCH   6  14
TORSDOF 5
ENDMDL
MODEL 4
REMARK VINA RESULT:      -6.8      1.743      5.440
REMARK  Name = 
REMARK  7 active torsions:
REMARK  status: ('A' for Active; 'I' for Inactive)
REMARK    1  A    between atoms: C_1  and  C_2
REMARK    2  A    between atoms: C_2  and  C_3
REMARK    3  A    between atoms: C_3  and  C_4
REMARK    4  A    between atoms: C_9  and  C_10
REMARK    5  A    between atoms: C_10  and  C_11
REMARK    6  A    between atoms: C_11  and  C_12
REMARK    7  A    between atoms: C_11  and  N_13
REMARK                            x       y       z     vdW  Elec       q    Type
REMARK                         _______ _______ _______ _____ _____    ______ ____
ROOT
ATOM      1  C   UNL     1       2.209   5.441  19.418  0.00  0.00    +0.000 A 
ATOM      2  C   UNL     1       2.272   6.845  19.323  0.00  0.00    +0.000 A 
ATOM      3  C   UNL     1       3.016   7.484  18.336  0.00  0.00    +0.000 A 
ATOM      4  C   UNL     1       3.764   6.741  17.418  0.00  0.00    +0.000 A 
ATOM      5  C   UNL     1       3.766   5.334  17.497  0.00  0.00    +0.000 A 
ATOM      6  C   UNL     1       4.453   4.298  16.781  0.00  0.00    +0.000 A 
ATOM      7  C   UNL     1       4.004   3.097  17.294  0.00  0.00    +0.000 A 
ATOM      8  N   UNL     1       3.112   3.365  18.294  0.00  0.00    +0.000 N 
ATOM      9  C   UNL     1       2.973   4.722  18.474  0.00  0.00    +0.000 A 
ATOM     10  H   UNL     1       2.628   2.664  18.838  0.00  0.00    +0.000 HD
ENDROOT
BRANCH   1  11
ATOM     11  C   UNL     1       1.370   4.793  20.492  0.00  0.00    +0.000 C 
BRANCH  11  13
ATOM     12  C   UNL     1       1.614   2.531  21.643  0.00  0.00    +0.000 C 
ATOM     13  C   UNL     1       2.165   3.941  21.486  0.00  0.00    +0.000 C 
ENDBRANCH  11  13
ENDBRANCH   1  11
BRANCH   6  14
ATOM     14  C   UNL     1       5.476   4.448  15.689  0.00  0.00    +0.000 C 
BRANCH  14  15
ATOM     15  C   UNL     1       6.745   5.222  16.108  0.00  0.00    +0.000 C 
ATOM     16  C   UNL     1       7.483   4.583  17.288  0.00  0.00    +0.000 C 
BRANCH  15  17
ATOM     17  N   UNL     1       7.673   5.319  14.966  0.00  0.00    +0.000 NA
ATOM     18  H   UNL     1       7.664   6.273  14.602  0.00  0.00    +0.000 HD
ATOM     19  H   UNL     1       7.330   4.730  14.207  0.00  0.00    +0.000 HD
ENDBRANCH  15  17
ENDBRANCH  14  15
ENDBRANCH   6  14
TORSDOF 5
ENDMDL
MODEL 5
REMARK VINA RESULT:      -6.8      2.080      3.146
REMARK  Name = 
REMARK  7 active torsions:
REMARK  status: ('A' for Active; 'I' for Inactive)
REMARK    1  A    between atoms: C_1  and  C_2
REMARK    2  A    between atoms: C_2  and  C_3
REMARK    3  A    between atoms: C_3  and  C_4
REMARK    4  A    between atoms: C_9  and  C_10
REMARK    5  A    between atoms: C_10  and  C_11
REMARK    6  A    between atoms: C_11  and  C_12
REMARK    7  A    between atoms: C_11  and  N_13
REMARK                            x       y       z     vdW  Elec       q    Type
REMARK                         _______ _______ _______ _____ _____    ______ ____
ROOT
ATOM      1  C   UNL     1       6.667   4.916  17.783  0.00  0.00    +0.000 A 
ATOM      2  C   UNL     1       6.854   4.395  16.487  0.00  0.00    +0.000 A 
ATOM      3  C   UNL     1       5.784   3.992  15.694  0.00  0.00    +0.000 A 
ATOM      4  C   UNL     1       4.476   4.057  16.181  0.00  0.00    +0.000 A 
ATOM      5  C   UNL     1       4.241   4.532  17.486  0.00  0.00    +0.000 A 
ATOM      6  C   UNL     1       3.068   4.663  18.301  0.00  0.00    +0.000 A 
ATOM      7  C   UNL     1       3.472   5.240  19.489  0.00  0.00    +0.000 A 
ATOM      8  N   UNL     1       4.824   5.430  19.434  0.00  0.00    +0.000 N 
ATOM      9  C   UNL     1       5.335   4.970  18.241  0.00  0.00    +0.000 A 
ATOM     10  H   UNL     1       5.380   5.840  20.173  0.00  0.00    +0.000 HD
ENDROOT
BRANCH   1  11
ATOM     11  C   UNL     1       7.858   5.362  18.597  0.00  0.00    +0.000 C 
BRANCH  11  13
ATOM     12  C   UNL     1       7.632   7.624  17.442  0.00  0.00    +0.000 C 
ATOM     13  C   UNL     1       8.005   6.882  18.718  0.00  0.00    +0.000 C 
ENDBRANCH  11  13
ENDBRANCH   1  11
BRANCH   6  14
ATOM     14  C   UNL     1       1.659   4.256  17.970  0.00  0.00    +0.000 C 
BRANCH  14  15
ATOM     15  C   UNL     1       1.192   2.957  18.662  0.00  0.00    +0.000 C 
ATOM     16  C   UNL     1       2.307   1.919  18.818  0.00  0.00    +0.000 C 
BRANCH  15  17
ATOM     17  N   UNL     1       0.645   3.267  19.995  0.00  0.00    +0.000 NA
ATOM     18  H   UNL     1       1.179   2.767  20.707  0.00  0.00    +0.000 HD
ATOM     19  H   UNL     1      -0.307   2.906  20.058  0.00  0.00    +0.000 HD
ENDBRANCH  15  17
ENDBRANCH  14  15
ENDBRANCH   6  14
TORSDOF 5
ENDMDL
MODEL 6
REMARK VINA RESULT:      -6.7      1.821      2.391
REMARK  Name = 
REMARK  7 active torsions:
REMARK  status: ('A' for Active; 'I' for Inactive)
REMARK    1  A    between atoms: C_1  and  C_2
REMARK    2  A    between atoms: C_2  and  C_3
REMARK    3  A    between atoms: C_3  and  C_4
REMARK    4  A    between atoms: C_9  and  C_10
REMARK    5  A    between atoms: C_10  and  C_11
REMARK    6  A    between atoms: C_11  and  C_12
REMARK    7  A    between atoms: C_11  and  N_13
REMARK                            x       y       z     vdW  Elec       q    Type
REMARK                         _______ _______ _______ _____ _____    ______ ____
ROOT
ATOM      1  C   UNL     1       4.947   6.107  17.191  0.00  0.00    +0.000 A 
ATOM      2  C   UNL     1       4.138   7.235  17.434  0.00  0.00    +0.000 A 
ATOM      3  C   UNL     1       2.863   7.122  17.977  0.00  0.00    +0.000 A 
ATOM      4  C   UNL     1       2.323   5.866  18.268  0.00  0.00    +0.000 A 
ATOM      5  C   UNL     1       3.077   4.706  18.004  0.00  0.00    +0.000 A 
ATOM      6  C   UNL     1       2.812   3.300  18.113  0.00  0.00    +0.000 A 
ATOM      7  C   UNL     1       3.971   2.648  17.742  0.00  0.00    +0.000 A 
ATOM      8  N   UNL     1       4.898   3.588  17.390  0.00  0.00    +0.000 N 
ATOM      9  C   UNL     1       4.373   4.856  17.498  0.00  0.00    +0.000 A 
ATOM     10  H   UNL     1       5.838   3.383  17.080  0.00  0.00    +0.000 HD
ENDROOT
BRANCH   1  11
ATOM     11  C   UNL     1       6.335   6.281  16.621  0.00  0.00    +0.000 C 
BRANCH  11  13
ATOM     12  C   UNL     1       7.812   8.108  17.610  0.00  0.00    +0.000 C 
ATOM     13  C   UNL     1       7.402   6.643  17.659  0.00  0.00    +0.000 C 
ENDBRANCH  11  13
ENDBRANCH   1  11
BRANCH   6  14
ATOM     14  C   UNL     1       1.534   2.628  18.534  0.00  0.00    +0.000 C 
BRANCH  14  15
ATOM     15  C   UNL     1       1.272   2.657  20.056  0.00  0.00    +0.000 C 
ATOM     16  C   UNL     1       2.555   2.659  20.892  0.00  0.00    +0.000 C 
BRANCH  15  17
ATOM     17  N   UNL     1       0.477   3.848  20.406  0.00  0.00    +0.000 NA
ATOM     18  H   UNL     1       1.015   4.440  21.039  0.00  0.00    +0.000 HD
ATOM     19  H   UNL     1      -0.347   3.556  20.932  0.00  0.00    +0.000 HD
ENDBRANCH  15  17
ENDBRANCH  14  15
ENDBRANCH   6  14
TORSDOF 5
ENDMDL
MODEL 7
REMARK VINA RESULT:      -6.7      2.307      3.462
REMARK  Name = 
REMARK  7 active torsions:
REMARK  status: ('A' for Active; 'I' for Inactive)
REMARK    1  A    between atoms: C_1  and  C_2
REMARK    2  A    between atoms: C_2  and  C_3
REMARK    3  A    between atoms: C_3  and  C_4
REMARK    4  A    between atoms: C_9  and  C_10
REMARK    5  A    between atoms: C_10  and  C_11
REMARK    6  A    between atoms: C_11  and  C_12
REMARK    7  A    between atoms: C_11  and  N_13
REMARK                            x       y       z     vdW  Elec       q    Type
REMARK                         _______ _______ _______ _____ _____    ______ ____
ROOT
ATOM      1  C   UNL     1       6.665   5.772  17.382  0.00  0.00    +0.000 A 
ATOM      2  C   UNL     1       6.626   5.789  15.973  0.00  0.00    +0.000 A 
ATOM      3  C   UNL     1       5.743   4.992  15.252  0.00  0.00    +0.000 A 
ATOM      4  C   UNL     1       4.882   4.110  15.910  0.00  0.00    +0.000 A 
ATOM      5  C   UNL     1       4.911   4.027  17.316  0.00  0.00    +0.000 A 
ATOM      6  C   UNL     1       4.234   3.207  18.279  0.00  0.00    +0.000 A 
ATOM      7  C   UNL     1       4.655   3.628  19.525  0.00  0.00    +0.000 A 
ATOM      8  N   UNL     1       5.567   4.631  19.352  0.00  0.00    +0.000 N 
ATOM      9  C   UNL     1       5.780   4.873  18.014  0.00  0.00    +0.000 A 
ATOM     10  H   UNL     1       6.034   5.121  20.103  0.00  0.00    +0.000 HD
ENDROOT
BRANCH   1  11
ATOM     11  C   UNL     1       7.624   6.672  18.123  0.00  0.00    +0.000 C 
BRANCH  11  13
ATOM     12  C   UNL     1       8.522   9.039  18.422  0.00  0.00    +0.000 C 
ATOM     13  C   UNL     1       7.772   8.071  17.518  0.00  0.00    +0.000 C 
ENDBRANCH  11  13
ENDBRANCH   1  11
BRANCH   6  14
ATOM     14  C   UNL     1       3.258   2.092  18.024  0.00  0.00    +0.000 C 
BRANCH  14  15
ATOM     15  C   UNL     1       1.776   2.492  18.191  0.00  0.00    +0.000 C 
ATOM     16  C   UNL     1       1.347   2.627  19.655  0.00  0.00    +0.000 C 
BRANCH  15  17
ATOM     17  N   UNL     1       1.521   3.771  17.503  0.00  0.00    +0.000 NA
ATOM     18  H   UNL     1       0.853   4.320  18.045  0.00  0.00    +0.000 HD
ATOM     19  H   UNL     1       1.064   3.584  16.610  0.00  0.00    +0.000 HD
ENDBRANCH  15  17
ENDBRANCH  14  15
ENDBRANCH   6  14
TORSDOF 5
ENDMDL
MODEL 8
REMARK VINA RESULT:      -6.7      1.082      1.259
REMARK  Name = 
REMARK  7 active torsions:
REMARK  status: ('A' for Active; 'I' for Inactive)
REMARK    1  A    between atoms: C_1  and  C_2
REMARK    2  A    between atoms: C_2  and  C_3
REMARK    3  A    between atoms: C_3  and  C_4
REMARK    4  A    between atoms: C_9  and  C_10
REMARK    5  A    between atoms: C_10  and  C_11
REMARK    6  A    between atoms: C_11  and  C_12
REMARK    7  A    between atoms: C_11  and  N_13
REMARK                            x       y       z     vdW  Elec       q    Type
REMARK                         _______ _______ _______ _____ _____    ______ ____
ROOT
ATOM      1  C   UNL     1       5.221   4.666  16.519  0.00  0.00    +0.000 A 
ATOM      2  C   UNL     1       4.956   6.007  16.176  0.00  0.00    +0.000 A 
ATOM      3  C   UNL     1       4.223   6.848  17.008  0.00  0.00    +0.000 A 
ATOM      4  C   UNL     1       3.690   6.372  18.208  0.00  0.00    +0.000 A 
ATOM      5  C   UNL     1       3.894   5.027  18.576  0.00  0.00    +0.000 A 
ATOM      6  C   UNL     1       3.444   4.215  19.671  0.00  0.00    +0.000 A 
ATOM      7  C   UNL     1       4.018   2.971  19.503  0.00  0.00    +0.000 A 
ATOM      8  N   UNL     1       4.757   2.991  18.354  0.00  0.00    +0.000 N 
ATOM      9  C   UNL     1       4.671   4.219  17.739  0.00  0.00    +0.000 A 
ATOM     10  H   UNL     1       5.287   2.208  17.995  0.00  0.00    +0.000 HD
ENDROOT
BRANCH   1  11
ATOM     11  C   UNL     1       6.041   3.797  15.596  0.00  0.00    +0.000 C 
BRANCH  11  13
ATOM     12  C   UNL     1       6.199   3.717  13.052  0.00  0.00    +0.000 C 
ATOM     13  C   UNL     1       6.511   4.501  14.319  0.00  0.00    +0.000 C 
ENDBRANCH  11  13
ENDBRANCH   1  11
BRANCH   6  14
ATOM     14  C   UNL     1       2.522   4.602  20.793  0.00  0.00    +0.000 C 
BRANCH  14  15
ATOM     15  C   UNL     1       1.297   3.677  20.959  0.00  0.00    +0.000 C 
ATOM     16  C   UNL     1       0.813   3.071  19.638  0.00  0.00    +0.000 C 
BRANCH  15  17
ATOM     17  N   UNL     1       1.617   2.582  21.892  0.00  0.00    +0.000 NA
ATOM     18  H   UNL     1       2.510   2.774  22.347  0.00  0.00    +0.000 HD
ATOM     19  H   UNL     1       1.756   1.721  21.362  0.00  0.00    +0.000 HD
ENDBRANCH  15  17
ENDBRANCH  14  15
ENDBRANCH   6  14
TORSDOF 5
ENDMDL
MODEL 9
REMARK VINA RESULT:      -6.7      1.987      5.589
REMARK  Name = 
REMARK  7 active torsions:
REMARK  status: ('A' for Active; 'I' for Inactive)
REMARK    1  A    between atoms: C_1  and  C_2
REMARK    2  A    between atoms: C_2  and  C_3
REMARK    3  A    between atoms: C_3  and  C_4
REMARK    4  A    between atoms: C_9  and  C_10
REMARK    5  A    between atoms: C_10  and  C_11
REMARK    6  A    between atoms: C_11  and  C_12
REMARK    7  A    between atoms: C_11  and  N_13
REMARK                            x       y       z     vdW  Elec       q    Type
REMARK                         _______ _______ _______ _____ _____    ______ ____
ROOT
ATOM      1  C   UNL     1       2.926   5.568  19.653  0.00  0.00    +0.000 A 
ATOM      2  C   UNL     1       2.305   6.749  19.200  0.00  0.00    +0.000 A 
ATOM      3  C   UNL     1       2.802   7.475  18.122  0.00  0.00    +0.000 A 
ATOM      4  C   UNL     1       3.969   7.069  17.470  0.00  0.00    +0.000 A 
ATOM      5  C   UNL     1       4.649   5.917  17.912  0.00  0.00    +0.000 A 
ATOM      6  C   UNL     1       5.874   5.275  17.528  0.00  0.00    +0.000 A 
ATOM      7  C   UNL     1       5.991   4.143  18.310  0.00  0.00    +0.000 A 
ATOM      8  N   UNL     1       4.919   4.096  19.157  0.00  0.00    +0.000 N 
ATOM      9  C   UNL     1       4.100   5.186  18.971  0.00  0.00    +0.000 A 
ATOM     10  H   UNL     1       4.755   3.367  19.839  0.00  0.00    +0.000 HD
ENDROOT
BRANCH   1  11
ATOM     11  C   UNL     1       2.337   4.802  20.813  0.00  0.00    +0.000 C 
BRANCH  11  13
ATOM     12  C   UNL     1       1.061   3.194  19.300  0.00  0.00    +0.000 C 
ATOM     13  C   UNL     1       1.000   4.122  20.506  0.00  0.00    +0.000 C 
ENDBRANCH  11  13
ENDBRANCH   1  11
BRANCH   6  14
ATOM     14  C   UNL     1       6.867   5.719  16.491  0.00  0.00    +0.000 C 
BRANCH  14  15
ATOM     15  C   UNL     1       6.914   4.827  15.230  0.00  0.00    +0.000 C 
ATOM     16  C   UNL     1       5.527   4.487  14.678  0.00  0.00    +0.000 C 
BRANCH  15  17
ATOM     17  N   UNL     1       7.695   5.494  14.173  0.00  0.00    +0.000 NA
ATOM     18  H   UNL     1       8.466   6.013  14.596  0.00  0.00    +0.000 HD
ATOM     19  H   UNL     1       7.109   6.192  13.715  0.00  0.00    +0.000 HD
ENDBRANCH  15  17
ENDBRANCH  14  15
ENDBRANCH   6  14
TORSDOF 5
ENDMDL
