MODEL 1
REMARK VINA RESULT:      -6.2      0.000      0.000
REMARK  Name = 
REMARK  8 active torsions:
REMARK  status: ('A' for Active; 'I' for Inactive)
REMARK    1  A    between atoms: C_2  and  O_3
REMARK    2  A    between atoms: C_2  and  C_4
REMARK    3  A    between atoms: C_4  and  C_5
REMARK    4  A    between atoms: C_5  and  C_6
REMARK    5  A    between atoms: C_6  and  C_7
REMARK    6  A    between atoms: N_9  and  C_10
REMARK    7  A    between atoms: C_10  and  C_11
REMARK    8  A    between atoms: C_11  and  C_12
REMARK                            x       y       z     vdW  Elec       q    Type
REMARK                         _______ _______ _______ _____ _____    ______ ____
ROOT
ATOM      1  C   UNL     1       2.996   6.930  18.367  0.00  0.00    +0.000 C 
ATOM      2  O   UNL     1       1.975   7.519  18.024  0.00  0.00    +0.000 OA
ATOM      3  N   UNL     1       3.097   6.245  19.555  0.00  0.00    +0.000 N 
ATOM      4  H   UNL     1       3.963   5.779  19.802  0.00  0.00    +0.000 HD
ENDROOT
BRANCH   1   5
ATOM      5  C   UNL     1       4.251   6.912  17.517  0.00  0.00    +0.000 C 
BRANCH   5   6
ATOM      6  C   UNL     1       4.683   5.479  17.180  0.00  0.00    +0.000 C 
BRANCH   6   7
ATOM      7  C   UNL     1       5.959   5.035  17.903  0.00  0.00    +0.000 C 
BRANCH   7   9
ATOM      8  O   UNL     1       7.346   5.879  16.107  0.00  0.00    +0.000 OA
ATOM      9  C   UNL     1       7.174   5.076  17.010  0.00  0.00    +0.000 C 
BRANCH   9  10
ATOM     10  O   UNL     1       8.088   4.128  17.314  0.00  0.00    +0.000 OA
ATOM     11  H   UNL     1       7.704   3.304  17.671  0.00  0.00    +0.000 HD
ENDBRANCH   9  10
ENDBRANCH   7   9
ENDBRANCH   6   7
ENDBRANCH   5   6
ENDBRANCH   1   5
BRANCH   3  12
ATOM     12  C   UNL     1       1.980   6.251  20.481  0.00  0.00    +0.000 C 
BRANCH  12  13
ATOM     13  C   UNL     1       1.281   4.899  20.600  0.00  0.00    +0.000 C 
BRANCH  13  14
ATOM     14  C   UNL     1       2.017   3.831  19.825  0.00  0.00    +0.000 A 
ATOM     15  C   UNL     1       1.543   3.417  18.570  0.00  0.00    +0.000 A 
ATOM     16  C   UNL     1       2.207   2.416  17.860  0.00  0.00    +0.000 A 
ATOM     17  C   UNL     1       3.339   1.823  18.406  0.00  0.00    +0.000 A 
ATOM     18  F   UNL     1       3.977   0.865  17.721  0.00  0.00    +0.000 F 
ATOM     19  C   UNL     1       3.816   2.209  19.652  0.00  0.00    +0.000 A 
ATOM     20  C   UNL     1       3.154   3.211  20.365  0.00  0.00    +0.000 A 
ENDBRANCH  13  14
ENDBRANCH  12  13
ENDBRANCH   3  12
TORSDOF 8
ENDMDL
MODEL 2
REMARK VINA RESULT:      -6.2      2.263      3.048
REMARK  Name = 
REMARK  8 active torsions:
REMARK  status: ('A' for Active; 'I' for Inactive)
REMARK    1  A    between atoms: C_2  and  O_3
REMARK    2  A    between atoms: C_2  and  C_4
REMARK    3  A    between atoms: C_4  and  C_5
REMARK    4  A    between atoms: C_5  and  C_6
REMARK    5  A    between atoms: C_6  and  C_7
REMARK    6  A    between atoms: N_9  and  C_10
REMARK    7  A    between atoms: C_10  and  C_11
REMARK    8  A    between atoms: C_11  and  C_12
REMARK                            x       y       z     vdW  Elec       q    Type
REMARK                         _______ _______ _______ _____ _____    ______ ____
ROOT
ATOM      1  C   UNL     1       5.255   6.232  16.380  0.00  0.00    +0.000 C 
ATOM      2  O   UNL     1       4.898   7.094  15.582  0.00  0.00    +0.000 OA
ATOM      3  N   UNL     1       4.608   6.009  17.573  0.00  0.00    +0.000 N 
ATOM      4  H   UNL     1       4.942   5.291  18.206  0.00  0.00    +0.000 HD
ENDROOT
BRANCH   1   5
ATOM      5  C   UNL     1       6.454   5.339  16.133  0.00  0.00    +0.000 C 
BRANCH   5   6
ATOM      6  C   UNL     1       6.685   4.371  17.301  0.00  0.00    +0.000 C 
BRANCH   6   7
ATOM      7  C   UNL     1       7.997   4.617  18.054  0.00  0.00    +0.000 C 
BRANCH   7   9
ATOM      8  O   UNL     1       8.030   6.977  18.598  0.00  0.00    +0.000 OA
ATOM      9  C   UNL     1       7.925   5.817  18.965  0.00  0.00    +0.000 C 
BRANCH   9  10
ATOM     10  O   UNL     1       7.714   5.489  20.260  0.00  0.00    +0.000 OA
ATOM     11  H   UNL     1       6.785   5.579  20.547  0.00  0.00    +0.000 HD
ENDBRANCH   9  10
ENDBRANCH   7   9
ENDBRANCH   6   7
ENDBRANCH   5   6
ENDBRANCH   1   5
BRANCH   3  12
ATOM     12  C   UNL     1       3.488   6.850  17.947  0.00  0.00    +0.000 C 
BRANCH  12  13
ATOM     13  C   UNL     1       2.133   6.159  17.809  0.00  0.00    +0.000 C 
BRANCH  13  14
ATOM     14  C   UNL     1       1.933   5.123  18.891  0.00  0.00    +0.000 A 
ATOM     15  C   UNL     1       2.283   5.414  20.219  0.00  0.00    +0.000 A 
ATOM     16  C   UNL     1       2.119   4.453  21.218  0.00  0.00    +0.000 A 
ATOM     17  C   UNL     1       1.613   3.202  20.891  0.00  0.00    +0.000 A 
ATOM     18  F   UNL     1       1.454   2.282  21.852  0.00  0.00    +0.000 F 
ATOM     19  C   UNL     1       1.274   2.890  19.581  0.00  0.00    +0.000 A 
ATOM     20  C   UNL     1       1.437   3.848  18.578  0.00  0.00    +0.000 A 
ENDBRANCH  13  14
ENDBRANCH  12  13
ENDBRANCH   3  12
TORSDOF 8
ENDMDL
MODEL 3
REMARK VINA RESULT:      -6.2      3.448      5.889
REMARK  Name = 
REMARK  8 active torsions:
REMARK  status: ('A' for Active; 'I' for Inactive)
REMARK    1  A    between atoms: C_2  and  O_3
REMARK    2  A    between atoms: C_2  and  C_4
REMARK    3  A    between atoms: C_4  and  C_5
REMARK    4  A    between atoms: C_5  and  C_6
REMARK    5  A    between atoms: C_6  and  C_7
REMARK    6  A    between atoms: N_9  and  C_10
REMARK    7  A    between atoms: C_10  and  C_11
REMARK    8  A    between atoms: C_11  and  C_12
REMARK                            x       y       z     vdW  Elec       q    Type
REMARK                         _______ _______ _______ _____ _____    ______ ____
ROOT
ATOM      1  C   UNL     1       2.420   4.432  17.845  0.00  0.00    +0.000 C 
ATOM      2  O   UNL     1       1.767   3.590  17.234  0.00  0.00    +0.000 OA
ATOM      3  N   UNL     1       3.794   4.482  17.803  0.00  0.00    +0.000 N 
ATOM      4  H   UNL     1       4.294   5.191  18.328  0.00  0.00    +0.000 HD
ENDROOT
BRANCH   1   5
ATOM      5  C   UNL     1       1.774   5.492  18.715  0.00  0.00    +0.000 C 
BRANCH   5   6
ATOM      6  C   UNL     1       1.800   5.096  20.197  0.00  0.00    +0.000 C 
BRANCH   6   7
ATOM      7  C   UNL     1       1.080   3.776  20.494  0.00  0.00    +0.000 C 
BRANCH   7   9
ATOM      8  O   UNL     1       1.477   2.336  22.400  0.00  0.00    +0.000 OA
ATOM      9  C   UNL     1       1.891   2.861  21.378  0.00  0.00    +0.000 C 
BRANCH   9  10
ATOM     10  O   UNL     1       3.146   2.656  20.921  0.00  0.00    +0.000 OA
ATOM     11  H   UNL     1       3.330   3.077  20.059  0.00  0.00    +0.000 HD
ENDBRANCH   9  10
ENDBRANCH   7   9
ENDBRANCH   6   7
ENDBRANCH   5   6
ENDBRANCH   1   5
BRANCH   3  12
ATOM     12  C   UNL     1       4.524   3.476  17.056  0.00  0.00    +0.000 C 
BRANCH  12  13
ATOM     13  C   UNL     1       5.648   4.050  16.197  0.00  0.00    +0.000 C 
BRANCH  13  14
ATOM     14  C   UNL     1       6.446   5.084  16.957  0.00  0.00    +0.000 A 
ATOM     15  C   UNL     1       6.368   6.439  16.599  0.00  0.00    +0.000 A 
ATOM     16  C   UNL     1       7.119   7.394  17.285  0.00  0.00    +0.000 A 
ATOM     17  C   UNL     1       7.953   6.997  18.323  0.00  0.00    +0.000 A 
ATOM     18  F   UNL     1       8.670   7.916  18.982  0.00  0.00    +0.000 F 
ATOM     19  C   UNL     1       8.054   5.659  18.684  0.00  0.00    +0.000 A 
ATOM     20  C   UNL     1       7.303   4.700  18.000  0.00  0.00    +0.000 A 
ENDBRANCH  13  14
ENDBRANCH  12  13
ENDBRANCH   3  12
TORSDOF 8
ENDMDL
MODEL 4
REMARK VINA RESULT:      -6.2      3.714      4.813
REMARK  Name = 
REMARK  8 active torsions:
REMARK  status: ('A' for Active; 'I' for Inactive)
REMARK    1  A    between atoms: C_2  and  O_3
REMARK    2  A    between atoms: C_2  and  C_4
REMARK    3  A    between atoms: C_4  and  C_5
REMARK    4  A    between atoms: C_5  and  C_6
REMARK    5  A    between atoms: C_6  and  C_7
REMARK    6  A    between atoms: N_9  and  C_10
REMARK    7  A    between atoms: C_10  and  C_11
REMARK    8  A    between atoms: C_11  and  C_12
REMARK                            x       y       z     vdW  Elec       q    Type
REMARK                         _______ _______ _______ _____ _____    ______ ____
ROOT
ATOM      1  C   UNL     1       6.506   4.544  15.690  0.00  0.00    +0.000 C 
ATOM      2  O   UNL     1       7.334   4.585  16.597  0.00  0.00    +0.000 OA
ATOM      3  N   UNL     1       5.183   4.235  15.904  0.00  0.00    +0.000 N 
ATOM      4  H   UNL     1       4.535   4.206  15.125  0.00  0.00    +0.000 HD
ENDROOT
BRANCH   1   5
ATOM      5  C   UNL     1       6.866   4.819  14.244  0.00  0.00    +0.000 C 
BRANCH   5   6
ATOM      6  C   UNL     1       5.866   4.167  13.281  0.00  0.00    +0.000 C 
BRANCH   6   7
ATOM      7  C   UNL     1       6.524   3.277  12.221  0.00  0.00    +0.000 C 
BRANCH   7   9
ATOM      8  O   UNL     1       5.774   1.223  11.179  0.00  0.00    +0.000 OA
ATOM      9  C   UNL     1       5.536   2.366  11.535  0.00  0.00    +0.000 C 
BRANCH   9  10
ATOM     10  O   UNL     1       4.324   2.937  11.355  0.00  0.00    +0.000 OA
ATOM     11  H   UNL     1       4.276   3.870  11.642  0.00  0.00    +0.000 HD
ENDBRANCH   9  10
ENDBRANCH   7   9
ENDBRANCH   6   7
ENDBRANCH   5   6
ENDBRANCH   1   5
BRANCH   3  12
ATOM     12  C   UNL     1       4.737   3.888  17.240  0.00  0.00    +0.000 C 
BRANCH  12  13
ATOM     13  C   UNL     1       3.695   4.850  17.804  0.00  0.00    +0.000 C 
BRANCH  13  14
ATOM     14  C   UNL     1       2.950   4.233  18.965  0.00  0.00    +0.000 A 
ATOM     15  C   UNL     1       3.613   3.367  19.849  0.00  0.00    +0.000 A 
ATOM     16  C   UNL     1       2.924   2.778  20.910  0.00  0.00    +0.000 A 
ATOM     17  C   UNL     1       1.573   3.049  21.086  0.00  0.00    +0.000 A 
ATOM     18  F   UNL     1       0.914   2.485  22.107  0.00  0.00    +0.000 F 
ATOM     19  C   UNL     1       0.895   3.893  20.215  0.00  0.00    +0.000 A 
ATOM     20  C   UNL     1       1.582   4.483  19.151  0.00  0.00    +0.000 A 
ENDBRANCH  13  14
ENDBRANCH  12  13
ENDBRANCH   3  12
TORSDOF 8
ENDMDL
MODEL 5
REMARK VINA RESULT:      -6.2      3.456      4.311
REMARK  Name = 
REMARK  8 active torsions:
REMARK  status: ('A' for Active; 'I' for Inactive)
REMARK    1  A    between atoms: C_2  and  O_3
REMARK    2  A    between atoms: C_2  and  C_4
REMARK    3  A    between atoms: C_4  and  C_5
REMARK    4  A    between atoms: C_5  and  C_6
REMARK    5  A    between atoms: C_6  and  C_7
REMARK    6  A    between atoms: N_9  and  C_10
REMARK    7  A    between atoms: C_10  and  C_11
REMARK    8  A    between atoms: C_11  and  C_12
REMARK                            x       y       z     vdW  Elec       q    Type
REMARK                         _______ _______ _______ _____ _____    ______ ____
ROOT
ATOM      1  C   UNL     1       5.982   5.658  15.648  0.00  0.00    +0.000 C 
ATOM      2  O   UNL     1       5.297   6.667  15.506  0.00  0.00    +0.000 OA
ATOM      3  N   UNL     1       6.111   5.011  16.855  0.00  0.00    +0.000 N 
ATOM      4  H   UNL     1       6.694   4.184  16.930  0.00  0.00    +0.000 HD
ENDROOT
BRANCH   1   5
ATOM      5  C   UNL     1       6.763   5.034  14.509  0.00  0.00    +0.000 C 
BRANCH   5   6
ATOM      6  C   UNL     1       5.994   3.872  13.869  0.00  0.00    +0.000 C 
BRANCH   6   7
ATOM      7  C   UNL     1       6.404   3.587  12.420  0.00  0.00    +0.000 C 
BRANCH   7   9
ATOM      8  O   UNL     1       5.576   1.552  11.402  0.00  0.00    +0.000 OA
ATOM      9  C   UNL     1       5.402   2.725  11.694  0.00  0.00    +0.000 C 
BRANCH   9  10
ATOM     10  O   UNL     1       4.256   3.377  11.397  0.00  0.00    +0.000 OA
ATOM     11  H   UNL     1       4.376   4.142  10.802  0.00  0.00    +0.000 HD
ENDBRANCH   9  10
ENDBRANCH   7   9
ENDBRANCH   6   7
ENDBRANCH   5   6
ENDBRANCH   1   5
BRANCH   3  12
ATOM     12  C   UNL     1       5.463   5.557  18.032  0.00  0.00    +0.000 C 
BRANCH  12  13
ATOM     13  C   UNL     1       5.194   4.517  19.117  0.00  0.00    +0.000 C 
BRANCH  13  14
ATOM     14  C   UNL     1       3.823   3.900  18.958  0.00  0.00    +0.000 A 
ATOM     15  C   UNL     1       2.749   4.355  19.739  0.00  0.00    +0.000 A 
ATOM     16  C   UNL     1       1.487   3.774  19.610  0.00  0.00    +0.000 A 
ATOM     17  C   UNL     1       1.299   2.736  18.707  0.00  0.00    +0.000 A 
ATOM     18  F   UNL     1       0.085   2.182  18.582  0.00  0.00    +0.000 F 
ATOM     19  C   UNL     1       2.351   2.263  17.934  0.00  0.00    +0.000 A 
ATOM     20  C   UNL     1       3.616   2.841  18.061  0.00  0.00    +0.000 A 
ENDBRANCH  13  14
ENDBRANCH  12  13
ENDBRANCH   3  12
TORSDOF 8
ENDMDL
MODEL 6
REMARK VINA RESULT:      -6.1      2.545      3.573
REMARK  Name = 
REMARK  8 active torsions:
REMARK  status: ('A' for Active; 'I' for Inactive)
REMARK    1  A    between atoms: C_2  and  O_3
REMARK    2  A    between atoms: C_2  and  C_4
REMARK    3  A    between atoms: C_4  and  C_5
REMARK    4  A    between atoms: C_5  and  C_6
REMARK    5  A    between atoms: C_6  and  C_7
REMARK    6  A    between atoms: N_9  and  C_10
REMARK    7  A    between atoms: C_10  and  C_11
REMARK    8  A    between atoms: C_11  and  C_12
REMARK                            x       y       z     vdW  Elec       q    Type
REMARK                         _______ _______ _______ _____ _____    ______ ____
ROOT
ATOM      1  C   UNL     1       5.861   5.569  16.436  0.00  0.00    +0.000 C 
ATOM      2  O   UNL     1       6.508   4.949  15.597  0.00  0.00    +0.000 OA
ATOM      3  N   UNL     1       4.788   5.022  17.101  0.00  0.00    +0.000 N 
ATOM      4  H   UNL     1       4.276   5.573  17.782  0.00  0.00    +0.000 HD
ENDROOT
BRANCH   1   5
ATOM      5  C   UNL     1       6.174   7.003  16.812  0.00  0.00    +0.000 C 
BRANCH   5   6
ATOM      6  C   UNL     1       7.405   7.091  17.723  0.00  0.00    +0.000 C 
BRANCH   6   7
ATOM      7  C   UNL     1       7.855   5.736  18.280  0.00  0.00    +0.000 C 
BRANCH   7   9
ATOM      8  O   UNL     1       6.090   5.180  19.842  0.00  0.00    +0.000 OA
ATOM      9  C   UNL     1       7.265   5.442  19.637  0.00  0.00    +0.000 C 
BRANCH   9  10
ATOM     10  O   UNL     1       8.177   5.483  20.634  0.00  0.00    +0.000 OA
ATOM     11  H   UNL     1       9.075   5.731  20.341  0.00  0.00    +0.000 HD
ENDBRANCH   9  10
ENDBRANCH   7   9
ENDBRANCH   6   7
ENDBRANCH   5   6
ENDBRANCH   1   5
BRANCH   3  12
ATOM     12  C   UNL     1       4.353   3.677  16.773  0.00  0.00    +0.000 C 
BRANCH  12  13
ATOM     13  C   UNL     1       2.846   3.474  16.909  0.00  0.00    +0.000 C 
BRANCH  13  14
ATOM     14  C   UNL     1       2.448   3.271  18.353  0.00  0.00    +0.000 A 
ATOM     15  C   UNL     1       3.357   2.707  19.263  0.00  0.00    +0.000 A 
ATOM     16  C   UNL     1       2.986   2.499  20.592  0.00  0.00    +0.000 A 
ATOM     17  C   UNL     1       1.708   2.846  21.011  0.00  0.00    +0.000 A 
ATOM     18  F   UNL     1       1.355   2.649  22.288  0.00  0.00    +0.000 F 
ATOM     19  C   UNL     1       0.790   3.393  20.123  0.00  0.00    +0.000 A 
ATOM     20  C   UNL     1       1.157   3.603  18.792  0.00  0.00    +0.000 A 
ENDBRANCH  13  14
ENDBRANCH  12  13
ENDBRANCH   3  12
TORSDOF 8
ENDMDL
MODEL 7
REMARK VINA RESULT:      -6.1      3.665      4.666
REMARK  Name = 
REMARK  8 active torsions:
REMARK  status: ('A' for Active; 'I' for Inactive)
REMARK    1  A    between atoms: C_2  and  O_3
REMARK    2  A    between atoms: C_2  and  C_4
REMARK    3  A    between atoms: C_4  and  C_5
REMARK    4  A    between atoms: C_5  and  C_6
REMARK    5  A    between atoms: C_6  and  C_7
REMARK    6  A    between atoms: N_9  and  C_10
REMARK    7  A    between atoms: C_10  and  C_11
REMARK    8  A    between atoms: C_11  and  C_12
REMARK                            x       y       z     vdW  Elec       q    Type
REMARK                         _______ _______ _______ _____ _____    ______ ____
ROOT
ATOM      1  C   UNL     1       6.281   4.502  15.561  0.00  0.00    +0.000 C 
ATOM      2  O   UNL     1       7.504   4.590  15.631  0.00  0.00    +0.000 OA
ATOM      3  N   UNL     1       5.468   4.540  16.670  0.00  0.00    +0.000 N 
ATOM      4  H   UNL     1       4.463   4.457  16.567  0.00  0.00    +0.000 HD
ENDROOT
BRANCH   1   5
ATOM      5  C   UNL     1       5.549   4.329  14.245  0.00  0.00    +0.000 C 
BRANCH   5   6
ATOM      6  C   UNL     1       6.473   3.773  13.155  0.00  0.00    +0.000 C 
BRANCH   6   7
ATOM      7  C   UNL     1       5.730   3.040  12.033  0.00  0.00    +0.000 C 
BRANCH   7   9
ATOM      8  O   UNL     1       7.650   2.038  10.950  0.00  0.00    +0.000 OA
ATOM      9  C   UNL     1       6.540   1.913  11.443  0.00  0.00    +0.000 C 
BRANCH   9  10
ATOM     10  O   UNL     1       5.919   0.714  11.521  0.00  0.00    +0.000 OA
ATOM     11  H   UNL     1       5.034   0.751  11.933  0.00  0.00    +0.000 HD
ENDBRANCH   9  10
ENDBRANCH   7   9
ENDBRANCH   6   7
ENDBRANCH   5   6
ENDBRANCH   1   5
BRANCH   3  12
ATOM     12  C   UNL     1       6.063   4.634  17.990  0.00  0.00    +0.000 C 
BRANCH  12  13
ATOM     13  C   UNL     1       5.070   5.032  19.079  0.00  0.00    +0.000 C 
BRANCH  13  14
ATOM     14  C   UNL     1       3.776   4.260  18.950  0.00  0.00    +0.000 A 
ATOM     15  C   UNL     1       3.694   2.939  19.417  0.00  0.00    +0.000 A 
ATOM     16  C   UNL     1       2.508   2.216  19.281  0.00  0.00    +0.000 A 
ATOM     17  C   UNL     1       1.408   2.809  18.674  0.00  0.00    +0.000 A 
ATOM     18  F   UNL     1       0.269   2.114  18.548  0.00  0.00    +0.000 F 
ATOM     19  C   UNL     1       1.473   4.110  18.194  0.00  0.00    +0.000 A 
ATOM     20  C   UNL     1       2.659   4.837  18.328  0.00  0.00    +0.000 A 
ENDBRANCH  13  14
ENDBRANCH  12  13
ENDBRANCH   3  12
TORSDOF 8
ENDMDL
MODEL 8
REMARK VINA RESULT:      -6.1      2.533      3.742
REMARK  Name = 
REMARK  8 active torsions:
REMARK  status: ('A' for Active; 'I' for Inactive)
REMARK    1  A    between atoms: C_2  and  O_3
REMARK    2  A    between atoms: C_2  and  C_4
REMARK    3  A    between atoms: C_4  and  C_5
REMARK    4  A    between atoms: C_5  and  C_6
REMARK    5  A    between atoms: C_6  and  C_7
REMARK    6  A    between atoms: N_9  and  C_10
REMARK    7  A    between atoms: C_10  and  C_11
REMARK    8  A    between atoms: C_11  and  C_12
REMARK                            x       y       z     vdW  Elec       q    Type
REMARK                         _______ _______ _______ _____ _____    ______ ____
ROOT
ATOM      1  C   UNL     1       6.522   4.401  17.051  0.00  0.00    +0.000 C 
ATOM      2  O   UNL     1       6.590   4.580  15.838  0.00  0.00    +0.000 OA
ATOM      3  N   UNL     1       5.387   3.931  17.671  0.00  0.00    +0.000 N 
ATOM      4  H   UNL     1       5.372   3.804  18.677  0.00  0.00    +0.000 HD
ENDROOT
BRANCH   1   5
ATOM      5  C   UNL     1       7.678   4.694  17.985  0.00  0.00    +0.000 C 
BRANCH   5   6
ATOM      6  C   UNL     1       7.399   5.922  18.861  0.00  0.00    +0.000 C 
BRANCH   6   7
ATOM      7  C   UNL     1       8.326   7.108  18.571  0.00  0.00    +0.000 C 
BRANCH   7   9
ATOM      8  O   UNL     1       7.818   9.359  17.835  0.00  0.00    +0.000 OA
ATOM      9  C   UNL     1       7.674   8.153  17.701  0.00  0.00    +0.000 C 
BRANCH   9  10
ATOM     10  O   UNL     1       6.905   7.626  16.723  0.00  0.00    +0.000 OA
ATOM     11  H   UNL     1       6.265   8.256  16.336  0.00  0.00    +0.000 HD
ENDBRANCH   9  10
ENDBRANCH   7   9
ENDBRANCH   6   7
ENDBRANCH   5   6
ENDBRANCH   1   5
BRANCH   3  12
ATOM     12  C   UNL     1       4.195   3.680  16.884  0.00  0.00    +0.000 C 
BRANCH  12  13
ATOM     13  C   UNL     1       2.983   4.489  17.342  0.00  0.00    +0.000 C 
BRANCH  13  14
ATOM     14  C   UNL     1       2.439   3.970  18.653  0.00  0.00    +0.000 A 
ATOM     15  C   UNL     1       2.154   2.603  18.806  0.00  0.00    +0.000 A 
ATOM     16  C   UNL     1       1.632   2.122  20.008  0.00  0.00    +0.000 A 
ATOM     17  C   UNL     1       1.389   3.005  21.053  0.00  0.00    +0.000 A 
ATOM     18  F   UNL     1       0.892   2.540  22.207  0.00  0.00    +0.000 F 
ATOM     19  C   UNL     1       1.653   4.362  20.917  0.00  0.00    +0.000 A 
ATOM     20  C   UNL     1       2.175   4.847  19.715  0.00  0.00    +0.000 A 
ENDBRANCH  13  14
ENDBRANCH  12  13
ENDBRANCH   3  12
TORSDOF 8
ENDMDL
MODEL 9
REMARK VINA RESULT:      -6.1      3.047      4.147
REMARK  Name = 
REMARK  8 active torsions:
REMARK  status: ('A' for Active; 'I' for Inactive)
REMARK    1  A    between atoms: C_2  and  O_3
REMARK    2  A    between atoms: C_2  and  C_4
REMARK    3  A    between atoms: C_4  and  C_5
REMARK    4  A    between atoms: C_5  and  C_6
REMARK    5  A    between atoms: C_6  and  C_7
REMARK    6  A    between atoms: N_9  and  C_10
REMARK    7  A    between atoms: C_10  and  C_11
REMARK    8  A    between atoms: C_11  and  C_12
REMARK                            x       y       z     vdW  Elec       q    Type
REMARK                         _______ _______ _______ _____ _____    ______ ____
ROOT
ATOM      1  C   UNL     1       6.986   5.342  16.553  0.00  0.00    +0.000 C 
ATOM      2  O   UNL     1       7.563   6.269  17.114  0.00  0.00    +0.000 OA
ATOM      3  N   UNL     1       6.200   4.438  17.228  0.00  0.00    +0.000 N 
ATOM      4  H   UNL     1       5.746   3.682  16.726  0.00  0.00    +0.000 HD
ENDROOT
BRANCH   1   5
ATOM      5  C   UNL     1       7.095   5.096  15.061  0.00  0.00    +0.000 C 
BRANCH   5   6
ATOM      6  C   UNL     1       6.290   3.862  14.634  0.00  0.00    +0.000 C 
BRANCH   6   7
ATOM      7  C   UNL     1       5.212   4.164  13.587  0.00  0.00    +0.000 C 
BRANCH   7   9
ATOM      8  O   UNL     1       4.635   3.395  11.364  0.00  0.00    +0.000 OA
ATOM      9  C   UNL     1       5.380   3.347  12.331  0.00  0.00    +0.000 C 
BRANCH   9  10
ATOM     10  O   UNL     1       6.466   2.542  12.361  0.00  0.00    +0.000 OA
ATOM     11  H   UNL     1       6.321   1.663  11.961  0.00  0.00    +0.000 HD
ENDBRANCH   9  10
ENDBRANCH   7   9
ENDBRANCH   6   7
ENDBRANCH   5   6
ENDBRANCH   1   5
BRANCH   3  12
ATOM     12  C   UNL     1       6.077   4.534  18.670  0.00  0.00    +0.000 C 
BRANCH  12  13
ATOM     13  C   UNL     1       4.855   5.326  19.127  0.00  0.00    +0.000 C 
BRANCH  13  14
ATOM     14  C   UNL     1       3.592   4.502  19.010  0.00  0.00    +0.000 A 
ATOM     15  C   UNL     1       3.368   3.427  19.884  0.00  0.00    +0.000 A 
ATOM     16  C   UNL     1       2.214   2.651  19.766  0.00  0.00    +0.000 A 
ATOM     17  C   UNL     1       1.288   2.944  18.773  0.00  0.00    +0.000 A 
ATOM     18  F   UNL     1       0.179   2.200  18.664  0.00  0.00    +0.000 F 
ATOM     19  C   UNL     1       1.498   3.996  17.890  0.00  0.00    +0.000 A 
ATOM     20  C   UNL     1       2.652   4.774  18.005  0.00  0.00    +0.000 A 
ENDBRANCH  13  14
ENDBRANCH  12  13
ENDBRANCH   3  12
TORSDOF 8
ENDMDL
