MODEL 1
REMARK VINA RESULT:      -8.4      0.000      0.000
REMARK  Name = 
REMARK  5 active torsions:
REMARK  status: ('A' for Active; 'I' for Inactive)
REMARK    1  A    between atoms: C_2  and  C_11
REMARK    2  A    between atoms: N_3  and  C_4
REMARK    3  A    between atoms: N_13  and  C_14
REMARK    4  A    between atoms: C_14  and  C_15
REMARK    5  A    between atoms: C_18  and  N_19
REMARK                            x       y       z     vdW  Elec       q    Type
REMARK                         _______ _______ _______ _____ _____    ______ ____
ROOT
ATOM      1  C   UNL     1       5.871   4.933  19.448  0.00  0.00    +0.000 C 
ATOM      2  C   UNL     1       4.961   6.131  19.159  0.00  0.00    +0.000 C 
ATOM      3  N   UNL     1       4.393   6.019  17.814  0.00  0.00    +0.000 N 
ATOM      4  C   UNL     1       5.254   5.539  16.837  0.00  0.00    +0.000 A 
ATOM      5  C   UNL     1       4.950   5.588  15.469  0.00  0.00    +0.000 A 
ATOM      6  C   UNL     1       5.873   5.187  14.495  0.00  0.00    +0.000 A 
ATOM      7  C   UNL     1       7.126   4.715  14.869  0.00  0.00    +0.000 A 
ATOM      8  C   UNL     1       7.447   4.621  16.218  0.00  0.00    +0.000 A 
ATOM      9  C   UNL     1       6.516   5.008  17.187  0.00  0.00    +0.000 A 
ATOM     10  O   UNL     1       6.925   4.811  18.488  0.00  0.00    +0.000 OA
ENDROOT
BRANCH   1  12
ATOM     11  O   UNL     1       5.435   2.538  19.305  0.00  0.00    +0.000 OA
ATOM     12  C   UNL     1       5.040   3.649  19.651  0.00  0.00    +0.000 C 
ATOM     13  N   UNL     1       3.773   3.856  20.165  0.00  0.00    +0.000 N 
ATOM     14  H   UNL     1       3.619   4.762  20.599  0.00  0.00    +0.000 HD
BRANCH  13  15
ATOM     15  C   UNL     1       2.893   2.733  20.476  0.00  0.00    +0.000 C 
ATOM     16  C   UNL     1       1.649   3.183  21.254  0.00  0.00    +0.000 C 
ATOM     17  C   UNL     1       0.693   4.021  20.394  0.00  0.00    +0.000 C 
ATOM     18  C   UNL     1       0.303   3.307  19.095  0.00  0.00    +0.000 C 
ATOM     19  C   UNL     1       1.519   2.848  18.302  0.00  0.00    +0.000 C 
ATOM     20  C   UNL     1       2.403   2.027  19.212  0.00  0.00    +0.000 C 
ATOM     21  O   UNL     1       2.633   0.840  18.983  0.00  0.00    +0.000 OA
ENDBRANCH  13  15
ENDBRANCH   1  12
BRANCH   3  22
ATOM     22  C   UNL     1       2.964   6.275  17.628  0.00  0.00    +0.000 C 
BRANCH  22  23
ATOM     23  C   UNL     1       2.402   7.371  18.516  0.00  0.00    +0.000 A 
ATOM     24  C   UNL     1       1.995   8.613  18.011  0.00  0.00    +0.000 A 
ATOM     25  C   UNL     1       1.316   9.536  18.811  0.00  0.00    +0.000 A 
ATOM     26  C   UNL     1       1.038   9.241  20.149  0.00  0.00    +0.000 A 
ATOM     27  C   UNL     1       1.495   8.031  20.688  0.00  0.00    +0.000 A 
ATOM     28  C   UNL     1       2.162   7.105  19.875  0.00  0.00    +0.000 A 
BRANCH  26  29
ATOM     29  N   UNL     1       0.275  10.141  20.948  0.00  0.00    +0.000 N 
ATOM     30  C   UNL     1      -0.144   9.964  22.254  0.00  0.00    +0.000 A 
ATOM     31  C   UNL     1      -0.831  11.095  22.620  0.00  0.00    +0.000 A 
ATOM     32  C   UNL     1      -0.781  11.915  21.485  0.00  0.00    +0.000 A 
ATOM     33  N   UNL     1      -0.113  11.356  20.475  0.00  0.00    +0.000 NA
ENDBRANCH  26  29
ENDBRANCH  22  23
ENDBRANCH   3  22
TORSDOF 5
ENDMDL
MODEL 2
REMARK VINA RESULT:      -8.3      1.638      4.917
REMARK  Name = 
REMARK  5 active torsions:
REMARK  status: ('A' for Active; 'I' for Inactive)
REMARK    1  A    between atoms: C_2  and  C_11
REMARK    2  A    between atoms: N_3  and  C_4
REMARK    3  A    between atoms: N_13  and  C_14
REMARK    4  A    between atoms: C_14  and  C_15
REMARK    5  A    between atoms: C_18  and  N_19
REMARK                            x       y       z     vdW  Elec       q    Type
REMARK                         _______ _______ _______ _____ _____    ______ ____
ROOT
ATOM      1  C   UNL     1       2.442   3.562  17.213  0.00  0.00    +0.000 C 
ATOM      2  C   UNL     1       2.076   5.016  17.525  0.00  0.00    +0.000 C 
ATOM      3  N   UNL     1       2.449   5.346  18.902  0.00  0.00    +0.000 N 
ATOM      4  C   UNL     1       2.222   4.347  19.840  0.00  0.00    +0.000 A 
ATOM      5  C   UNL     1       2.302   4.573  21.221  0.00  0.00    +0.000 A 
ATOM      6  C   UNL     1       1.976   3.577  22.151  0.00  0.00    +0.000 A 
ATOM      7  C   UNL     1       1.568   2.321  21.717  0.00  0.00    +0.000 A 
ATOM      8  C   UNL     1       1.510   2.053  20.354  0.00  0.00    +0.000 A 
ATOM      9  C   UNL     1       1.853   3.046  19.431  0.00  0.00    +0.000 A 
ATOM     10  O   UNL     1       1.817   2.642  18.114  0.00  0.00    +0.000 OA
ENDROOT
BRANCH   1  12
ATOM     11  O   UNL     1       4.553   2.352  17.376  0.00  0.00    +0.000 OA
ATOM     12  C   UNL     1       3.970   3.395  17.088  0.00  0.00    +0.000 C 
ATOM     13  N   UNL     1       4.648   4.543  16.717  0.00  0.00    +0.000 N 
ATOM     14  H   UNL     1       4.076   5.279  16.313  0.00  0.00    +0.000 HD
BRANCH  13  15
ATOM     15  C   UNL     1       6.091   4.526  16.492  0.00  0.00    +0.000 C 
ATOM     16  C   UNL     1       6.514   5.561  15.441  0.00  0.00    +0.000 C 
ATOM     17  C   UNL     1       6.355   7.003  15.943  0.00  0.00    +0.000 C 
ATOM     18  C   UNL     1       7.079   7.239  17.272  0.00  0.00    +0.000 C 
ATOM     19  C   UNL     1       6.678   6.225  18.335  0.00  0.00    +0.000 C 
ATOM     20  C   UNL     1       6.870   4.837  17.770  0.00  0.00    +0.000 C 
ATOM     21  O   UNL     1       7.672   4.047  18.266  0.00  0.00    +0.000 OA
ENDBRANCH  13  15
ENDBRANCH   1  12
BRANCH   3  22
ATOM     22  C   UNL     1       3.144   6.606  19.163  0.00  0.00    +0.000 C 
BRANCH  22  23
ATOM     23  C   UNL     1       2.236   7.820  19.240  0.00  0.00    +0.000 A 
ATOM     24  C   UNL     1       1.920   8.595  18.117  0.00  0.00    +0.000 A 
ATOM     25  C   UNL     1       0.944   9.594  18.173  0.00  0.00    +0.000 A 
ATOM     26  C   UNL     1       0.265   9.852  19.369  0.00  0.00    +0.000 A 
ATOM     27  C   UNL     1       0.614   9.130  20.517  0.00  0.00    +0.000 A 
ATOM     28  C   UNL     1       1.583   8.120  20.448  0.00  0.00    +0.000 A 
BRANCH  26  29
ATOM     29  N   UNL     1      -0.787  10.811  19.414  0.00  0.00    +0.000 N 
ATOM     30  C   UNL     1      -0.949  11.845  20.318  0.00  0.00    +0.000 A 
ATOM     31  C   UNL     1      -2.090  12.521  19.965  0.00  0.00    +0.000 A 
ATOM     32  C   UNL     1      -2.563  11.841  18.835  0.00  0.00    +0.000 A 
ATOM     33  N   UNL     1      -1.785  10.815  18.490  0.00  0.00    +0.000 NA
ENDBRANCH  26  29
ENDBRANCH  22  23
ENDBRANCH   3  22
TORSDOF 5
ENDMDL
MODEL 3
REMARK VINA RESULT:      -8.2      4.740      9.703
REMARK  Name = 
REMARK  5 active torsions:
REMARK  status: ('A' for Active; 'I' for Inactive)
REMARK    1  A    between atoms: C_2  and  C_11
REMARK    2  A    between atoms: N_3  and  C_4
REMARK    3  A    between atoms: N_13  and  C_14
REMARK    4  A    between atoms: C_14  and  C_15
REMARK    5  A    between atoms: C_18  and  N_19
REMARK                            x       y       z     vdW  Elec       q    Type
REMARK                         _______ _______ _______ _____ _____    ______ ____
ROOT
ATOM      1  C   UNL     1      -0.469  12.796  20.239  0.00  0.00    +0.000 C 
ATOM      2  C   UNL     1       0.334  11.494  20.307  0.00  0.00    +0.000 C 
ATOM      3  N   UNL     1       0.196  10.750  19.052  0.00  0.00    +0.000 N 
ATOM      4  C   UNL     1      -1.070  10.767  18.482  0.00  0.00    +0.000 A 
ATOM      5  C   UNL     1      -1.433   9.927  17.420  0.00  0.00    +0.000 A 
ATOM      6  C   UNL     1      -2.742   9.892  16.922  0.00  0.00    +0.000 A 
ATOM      7  C   UNL     1      -3.723  10.708  17.474  0.00  0.00    +0.000 A 
ATOM      8  C   UNL     1      -3.389  11.577  18.506  0.00  0.00    +0.000 A 
ATOM      9  C   UNL     1      -2.077  11.620  18.987  0.00  0.00    +0.000 A 
ATOM     10  O   UNL     1      -1.855  12.564  19.966  0.00  0.00    +0.000 OA
ENDROOT
BRANCH   1  12
ATOM     11  O   UNL     1      -0.373  14.314  18.332  0.00  0.00    +0.000 OA
ATOM     12  C   UNL     1       0.207  13.809  19.291  0.00  0.00    +0.000 C 
ATOM     13  N   UNL     1       1.548  14.032  19.546  0.00  0.00    +0.000 N 
ATOM     14  H   UNL     1       1.876  13.734  20.459  0.00  0.00    +0.000 HD
BRANCH  13  15
ATOM     15  C   UNL     1       2.307  15.014  18.777  0.00  0.00    +0.000 C 
ATOM     16  C   UNL     1       2.055  16.444  19.273  0.00  0.00    +0.000 C 
ATOM     17  C   UNL     1       2.655  16.695  20.664  0.00  0.00    +0.000 C 
ATOM     18  C   UNL     1       4.145  16.345  20.725  0.00  0.00    +0.000 C 
ATOM     19  C   UNL     1       4.426  14.930  20.237  0.00  0.00    +0.000 C 
ATOM     20  C   UNL     1       3.813  14.765  18.866  0.00  0.00    +0.000 C 
ATOM     21  O   UNL     1       4.507  14.533  17.877  0.00  0.00    +0.000 OA
ENDBRANCH  13  15
ENDBRANCH   1  12
BRANCH   3  22
ATOM     22  C   UNL     1       1.393  10.182  18.433  0.00  0.00    +0.000 C 
BRANCH  22  23
ATOM     23  C   UNL     1       1.780   8.811  18.959  0.00  0.00    +0.000 A 
ATOM     24  C   UNL     1       1.488   8.395  20.264  0.00  0.00    +0.000 A 
ATOM     25  C   UNL     1       1.690   7.073  20.668  0.00  0.00    +0.000 A 
ATOM     26  C   UNL     1       2.207   6.131  19.773  0.00  0.00    +0.000 A 
ATOM     27  C   UNL     1       2.565   6.544  18.484  0.00  0.00    +0.000 A 
ATOM     28  C   UNL     1       2.345   7.869  18.081  0.00  0.00    +0.000 A 
BRANCH  26  29
ATOM     29  N   UNL     1       2.339   4.764  20.153  0.00  0.00    +0.000 N 
ATOM     30  C   UNL     1       1.434   3.992  20.857  0.00  0.00    +0.000 A 
ATOM     31  C   UNL     1       1.973   2.735  20.974  0.00  0.00    +0.000 A 
ATOM     32  C   UNL     1       3.205   2.821  20.312  0.00  0.00    +0.000 A 
ATOM     33  N   UNL     1       3.434   4.034  19.809  0.00  0.00    +0.000 NA
ENDBRANCH  26  29
ENDBRANCH  22  23
ENDBRANCH   3  22
TORSDOF 5
ENDMDL
MODEL 4
REMARK VINA RESULT:      -8.1      1.600      4.957
REMARK  Name = 
REMARK  5 active torsions:
REMARK  status: ('A' for Active; 'I' for Inactive)
REMARK    1  A    between atoms: C_2  and  C_11
REMARK    2  A    between atoms: N_3  and  C_4
REMARK    3  A    between atoms: N_13  and  C_14
REMARK    4  A    between atoms: C_14  and  C_15
REMARK    5  A    between atoms: C_18  and  N_19
REMARK                            x       y       z     vdW  Elec       q    Type
REMARK                         _______ _______ _______ _____ _____    ______ ____
ROOT
ATOM      1  C   UNL     1       2.549   3.475  17.151  0.00  0.00    +0.000 C 
ATOM      2  C   UNL     1       2.131   4.923  17.423  0.00  0.00    +0.000 C 
ATOM      3  N   UNL     1       2.478   5.299  18.795  0.00  0.00    +0.000 N 
ATOM      4  C   UNL     1       2.276   4.316  19.755  0.00  0.00    +0.000 A 
ATOM      5  C   UNL     1       2.333   4.579  21.131  0.00  0.00    +0.000 A 
ATOM      6  C   UNL     1       2.032   3.596  22.082  0.00  0.00    +0.000 A 
ATOM      7  C   UNL     1       1.672   2.316  21.676  0.00  0.00    +0.000 A 
ATOM      8  C   UNL     1       1.637   2.012  20.320  0.00  0.00    +0.000 A 
ATOM      9  C   UNL     1       1.956   2.993  19.375  0.00  0.00    +0.000 A 
ATOM     10  O   UNL     1       1.947   2.556  18.069  0.00  0.00    +0.000 OA
ENDROOT
BRANCH   1  12
ATOM     11  O   UNL     1       4.702   2.355  17.395  0.00  0.00    +0.000 OA
ATOM     12  C   UNL     1       4.084   3.358  17.044  0.00  0.00    +0.000 C 
ATOM     13  N   UNL     1       4.722   4.506  16.612  0.00  0.00    +0.000 N 
ATOM     14  H   UNL     1       4.127   5.196  16.163  0.00  0.00    +0.000 HD
BRANCH  13  15
ATOM     15  C   UNL     1       6.166   4.530  16.396  0.00  0.00    +0.000 C 
ATOM     16  C   UNL     1       6.580   5.658  15.442  0.00  0.00    +0.000 C 
ATOM     17  C   UNL     1       6.396   7.049  16.066  0.00  0.00    +0.000 C 
ATOM     18  C   UNL     1       7.109   7.178  17.416  0.00  0.00    +0.000 C 
ATOM     19  C   UNL     1       6.718   6.071  18.384  0.00  0.00    +0.000 C 
ATOM     20  C   UNL     1       6.933   4.740  17.702  0.00  0.00    +0.000 C 
ATOM     21  O   UNL     1       7.744   3.922  18.134  0.00  0.00    +0.000 OA
ENDBRANCH  13  15
ENDBRANCH   1  12
BRANCH   3  22
ATOM     22  C   UNL     1       3.127   6.588  19.031  0.00  0.00    +0.000 C 
BRANCH  22  23
ATOM     23  C   UNL     1       2.174   7.769  19.093  0.00  0.00    +0.000 A 
ATOM     24  C   UNL     1       1.561   8.179  20.283  0.00  0.00    +0.000 A 
ATOM     25  C   UNL     1       0.835   9.371  20.353  0.00  0.00    +0.000 A 
ATOM     26  C   UNL     1       0.692  10.180  19.221  0.00  0.00    +0.000 A 
ATOM     27  C   UNL     1       1.244   9.752  18.007  0.00  0.00    +0.000 A 
ATOM     28  C   UNL     1       1.984   8.563  17.949  0.00  0.00    +0.000 A 
BRANCH  26  29
ATOM     29  N   UNL     1       0.023  11.435  19.305  0.00  0.00    +0.000 N 
ATOM     30  C   UNL     1      -1.098  11.747  20.052  0.00  0.00    +0.000 A 
ATOM     31  C   UNL     1      -1.375  13.074  19.839  0.00  0.00    +0.000 A 
ATOM     32  C   UNL     1      -0.376  13.501  18.954  0.00  0.00    +0.000 A 
ATOM     33  N   UNL     1       0.475  12.527  18.630  0.00  0.00    +0.000 NA
ENDBRANCH  26  29
ENDBRANCH  22  23
ENDBRANCH   3  22
TORSDOF 5
ENDMDL
MODEL 5
REMARK VINA RESULT:      -8.0      1.675      5.018
REMARK  Name = 
REMARK  5 active torsions:
REMARK  status: ('A' for Active; 'I' for Inactive)
REMARK    1  A    between atoms: C_2  and  C_11
REMARK    2  A    between atoms: N_3  and  C_4
REMARK    3  A    between atoms: N_13  and  C_14
REMARK    4  A    between atoms: C_14  and  C_15
REMARK    5  A    between atoms: C_18  and  N_19
REMARK                            x       y       z     vdW  Elec       q    Type
REMARK                         _______ _______ _______ _____ _____    ______ ____
ROOT
ATOM      1  C   UNL     1       2.214   3.132  17.325  0.00  0.00    +0.000 C 
ATOM      2  C   UNL     1       2.010   4.639  17.506  0.00  0.00    +0.000 C 
ATOM      3  N   UNL     1       2.467   5.054  18.834  0.00  0.00    +0.000 N 
ATOM      4  C   UNL     1       2.176   4.176  19.870  0.00  0.00    +0.000 A 
ATOM      5  C   UNL     1       2.330   4.520  21.220  0.00  0.00    +0.000 A 
ATOM      6  C   UNL     1       1.940   3.654  22.250  0.00  0.00    +0.000 A 
ATOM      7  C   UNL     1       1.391   2.413  21.951  0.00  0.00    +0.000 A 
ATOM      8  C   UNL     1       1.255   2.026  20.622  0.00  0.00    +0.000 A 
ATOM      9  C   UNL     1       1.661   2.888  19.598  0.00  0.00    +0.000 A 
ATOM     10  O   UNL     1       1.534   2.370  18.328  0.00  0.00    +0.000 OA
ENDROOT
BRANCH   1  12
ATOM     11  O   UNL     1       4.190   1.714  17.511  0.00  0.00    +0.000 OA
ATOM     12  C   UNL     1       3.712   2.795  17.174  0.00  0.00    +0.000 C 
ATOM     13  N   UNL     1       4.496   3.839  16.717  0.00  0.00    +0.000 N 
ATOM     14  H   UNL     1       3.993   4.607  16.283  0.00  0.00    +0.000 HD
BRANCH  13  15
ATOM     15  C   UNL     1       5.921   3.655  16.458  0.00  0.00    +0.000 C 
ATOM     16  C   UNL     1       6.255   3.819  14.970  0.00  0.00    +0.000 C 
ATOM     17  C   UNL     1       6.098   5.270  14.492  0.00  0.00    +0.000 C 
ATOM     18  C   UNL     1       6.901   6.253  15.349  0.00  0.00    +0.000 C 
ATOM     19  C   UNL     1       6.591   6.113  16.833  0.00  0.00    +0.000 C 
ATOM     20  C   UNL     1       6.774   4.665  17.226  0.00  0.00    +0.000 C 
ATOM     21  O   UNL     1       7.623   4.327  18.050  0.00  0.00    +0.000 OA
ENDBRANCH  13  15
ENDBRANCH   1  12
BRANCH   3  22
ATOM     22  C   UNL     1       3.296   6.253  18.953  0.00  0.00    +0.000 C 
BRANCH  22  23
ATOM     23  C   UNL     1       2.515   7.555  18.989  0.00  0.00    +0.000 A 
ATOM     24  C   UNL     1       2.316   8.344  17.850  0.00  0.00    +0.000 A 
ATOM     25  C   UNL     1       1.446   9.438  17.867  0.00  0.00    +0.000 A 
ATOM     26  C   UNL     1       0.762   9.780  19.037  0.00  0.00    +0.000 A 
ATOM     27  C   UNL     1       0.999   9.040  20.203  0.00  0.00    +0.000 A 
ATOM     28  C   UNL     1       1.861   7.935  20.174  0.00  0.00    +0.000 A 
BRANCH  26  29
ATOM     29  N   UNL     1      -0.187  10.842  19.041  0.00  0.00    +0.000 N 
ATOM     30  C   UNL     1      -1.424  10.872  18.424  0.00  0.00    +0.000 A 
ATOM     31  C   UNL     1      -1.996  12.086  18.713  0.00  0.00    +0.000 A 
ATOM     32  C   UNL     1      -1.048  12.736  19.514  0.00  0.00    +0.000 A 
ATOM     33  N   UNL     1       0.042  11.997  19.723  0.00  0.00    +0.000 NA
ENDBRANCH  26  29
ENDBRANCH  22  23
ENDBRANCH   3  22
TORSDOF 5
ENDMDL
MODEL 6
REMARK VINA RESULT:      -8.0      4.860     10.195
REMARK  Name = 
REMARK  5 active torsions:
REMARK  status: ('A' for Active; 'I' for Inactive)
REMARK    1  A    between atoms: C_2  and  C_11
REMARK    2  A    between atoms: N_3  and  C_4
REMARK    3  A    between atoms: N_13  and  C_14
REMARK    4  A    between atoms: C_14  and  C_15
REMARK    5  A    between atoms: C_18  and  N_19
REMARK                            x       y       z     vdW  Elec       q    Type
REMARK                         _______ _______ _______ _____ _____    ______ ____
ROOT
ATOM      1  C   UNL     1      -0.488  12.641  20.247  0.00  0.00    +0.000 C 
ATOM      2  C   UNL     1       0.286  11.320  20.231  0.00  0.00    +0.000 C 
ATOM      3  N   UNL     1       0.112  10.649  18.941  0.00  0.00    +0.000 N 
ATOM      4  C   UNL     1      -1.161  10.724  18.393  0.00  0.00    +0.000 A 
ATOM      5  C   UNL     1      -1.559   9.951  17.293  0.00  0.00    +0.000 A 
ATOM      6  C   UNL     1      -2.876   9.971  16.817  0.00  0.00    +0.000 A 
ATOM      7  C   UNL     1      -3.830  10.777  17.428  0.00  0.00    +0.000 A 
ATOM      8  C   UNL     1      -3.461  11.581  18.500  0.00  0.00    +0.000 A 
ATOM      9  C   UNL     1      -2.141  11.570  18.961  0.00  0.00    +0.000 A 
ATOM     10  O   UNL     1      -1.883  12.454  19.986  0.00  0.00    +0.000 OA
ENDROOT
BRANCH   1  12
ATOM     11  O   UNL     1       1.193  13.439  18.670  0.00  0.00    +0.000 OA
ATOM     12  C   UNL     1       0.195  13.689  19.344  0.00  0.00    +0.000 C 
ATOM     13  N   UNL     1      -0.343  14.960  19.425  0.00  0.00    +0.000 N 
ATOM     14  H   UNL     1      -1.268  15.018  19.841  0.00  0.00    +0.000 HD
BRANCH  13  15
ATOM     15  C   UNL     1       0.152  16.043  18.580  0.00  0.00    +0.000 C 
ATOM     16  C   UNL     1      -0.892  17.154  18.409  0.00  0.00    +0.000 C 
ATOM     17  C   UNL     1      -1.131  17.938  19.708  0.00  0.00    +0.000 C 
ATOM     18  C   UNL     1       0.170  18.489  20.300  0.00  0.00    +0.000 C 
ATOM     19  C   UNL     1       1.226  17.407  20.481  0.00  0.00    +0.000 C 
ATOM     20  C   UNL     1       1.408  16.690  19.163  0.00  0.00    +0.000 C 
ATOM     21  O   UNL     1       2.483  16.710  18.565  0.00  0.00    +0.000 OA
ENDBRANCH  13  15
ENDBRANCH   1  12
BRANCH   3  22
ATOM     22  C   UNL     1       1.286  10.089  18.272  0.00  0.00    +0.000 C 
BRANCH  22  23
ATOM     23  C   UNL     1       1.765   8.767  18.845  0.00  0.00    +0.000 A 
ATOM     24  C   UNL     1       1.452   8.354  20.146  0.00  0.00    +0.000 A 
ATOM     25  C   UNL     1       1.746   7.062  20.590  0.00  0.00    +0.000 A 
ATOM     26  C   UNL     1       2.378   6.149  19.739  0.00  0.00    +0.000 A 
ATOM     27  C   UNL     1       2.756   6.566  18.456  0.00  0.00    +0.000 A 
ATOM     28  C   UNL     1       2.444   7.859  18.014  0.00  0.00    +0.000 A 
BRANCH  26  29
ATOM     29  N   UNL     1       2.608   4.806  20.156  0.00  0.00    +0.000 N 
ATOM     30  C   UNL     1       2.016   4.137  21.211  0.00  0.00    +0.000 A 
ATOM     31  C   UNL     1       2.526   2.862  21.223  0.00  0.00    +0.000 A 
ATOM     32  C   UNL     1       3.418   2.833  20.143  0.00  0.00    +0.000 A 
ATOM     33  N   UNL     1       3.472   3.994  19.489  0.00  0.00    +0.000 NA
ENDBRANCH  26  29
ENDBRANCH  22  23
ENDBRANCH   3  22
TORSDOF 5
ENDMDL
MODEL 7
REMARK VINA RESULT:      -7.8      4.813     10.236
REMARK  Name = 
REMARK  5 active torsions:
REMARK  status: ('A' for Active; 'I' for Inactive)
REMARK    1  A    between atoms: C_2  and  C_11
REMARK    2  A    between atoms: N_3  and  C_4
REMARK    3  A    between atoms: N_13  and  C_14
REMARK    4  A    between atoms: C_14  and  C_15
REMARK    5  A    between atoms: C_18  and  N_19
REMARK                            x       y       z     vdW  Elec       q    Type
REMARK                         _______ _______ _______ _____ _____    ______ ____
ROOT
ATOM      1  C   UNL     1       0.412  12.826  20.741  0.00  0.00    +0.000 C 
ATOM      2  C   UNL     1       1.069  11.453  20.577  0.00  0.00    +0.000 C 
ATOM      3  N   UNL     1       0.675  10.855  19.298  0.00  0.00    +0.000 N 
ATOM      4  C   UNL     1      -0.648  11.050  18.928  0.00  0.00    +0.000 A 
ATOM      5  C   UNL     1      -1.246  10.360  17.865  0.00  0.00    +0.000 A 
ATOM      6  C   UNL     1      -2.608  10.500  17.569  0.00  0.00    +0.000 A 
ATOM      7  C   UNL     1      -3.407  11.347  18.329  0.00  0.00    +0.000 A 
ATOM      8  C   UNL     1      -2.838  12.073  19.370  0.00  0.00    +0.000 A 
ATOM      9  C   UNL     1      -1.474  11.941  19.650  0.00  0.00    +0.000 A 
ATOM     10  O   UNL     1      -1.015  12.756  20.662  0.00  0.00    +0.000 OA
ENDROOT
BRANCH   1  12
ATOM     11  O   UNL     1       2.181  13.721  19.320  0.00  0.00    +0.000 OA
ATOM     12  C   UNL     1       1.055  13.859  19.792  0.00  0.00    +0.000 C 
ATOM     13  N   UNL     1       0.303  15.002  19.589  0.00  0.00    +0.000 N 
ATOM     14  H   UNL     1      -0.676  14.935  19.850  0.00  0.00    +0.000 HD
BRANCH  13  15
ATOM     15  C   UNL     1       0.747  16.041  18.663  0.00  0.00    +0.000 C 
ATOM     16  C   UNL     1      -0.437  16.796  18.045  0.00  0.00    +0.000 C 
ATOM     17  C   UNL     1      -1.173  17.670  19.070  0.00  0.00    +0.000 C 
ATOM     18  C   UNL     1      -0.227  18.629  19.800  0.00  0.00    +0.000 C 
ATOM     19  C   UNL     1       0.959  17.907  20.424  0.00  0.00    +0.000 C 
ATOM     20  C   UNL     1       1.632  17.078  19.354  0.00  0.00    +0.000 C 
ATOM     21  O   UNL     1       2.793  17.295  19.010  0.00  0.00    +0.000 OA
ENDBRANCH  13  15
ENDBRANCH   1  12
BRANCH   3  22
ATOM     22  C   UNL     1       1.704  10.240  18.460  0.00  0.00    +0.000 C 
BRANCH  22  23
ATOM     23  C   UNL     1       1.902   8.753  18.700  0.00  0.00    +0.000 A 
ATOM     24  C   UNL     1       2.429   7.898  17.724  0.00  0.00    +0.000 A 
ATOM     25  C   UNL     1       2.771   6.576  18.023  0.00  0.00    +0.000 A 
ATOM     26  C   UNL     1       2.580   6.071  19.313  0.00  0.00    +0.000 A 
ATOM     27  C   UNL     1       1.994   6.893  20.284  0.00  0.00    +0.000 A 
ATOM     28  C   UNL     1       1.668   8.222  19.980  0.00  0.00    +0.000 A 
BRANCH  26  29
ATOM     29  N   UNL     1       3.001   4.752  19.647  0.00  0.00    +0.000 N 
ATOM     30  C   UNL     1       4.139   4.095  19.217  0.00  0.00    +0.000 A 
ATOM     31  C   UNL     1       4.143   2.855  19.807  0.00  0.00    +0.000 A 
ATOM     32  C   UNL     1       2.977   2.836  20.584  0.00  0.00    +0.000 A 
ATOM     33  N   UNL     1       2.285   3.973  20.501  0.00  0.00    +0.000 NA
ENDBRANCH  26  29
ENDBRANCH  22  23
ENDBRANCH   3  22
TORSDOF 5
ENDMDL
MODEL 8
REMARK VINA RESULT:      -7.7      4.589      9.591
REMARK  Name = 
REMARK  5 active torsions:
REMARK  status: ('A' for Active; 'I' for Inactive)
REMARK    1  A    between atoms: C_2  and  C_11
REMARK    2  A    between atoms: N_3  and  C_4
REMARK    3  A    between atoms: N_13  and  C_14
REMARK    4  A    between atoms: C_14  and  C_15
REMARK    5  A    between atoms: C_18  and  N_19
REMARK                            x       y       z     vdW  Elec       q    Type
REMARK                         _______ _______ _______ _____ _____    ______ ____
ROOT
ATOM      1  C   UNL     1      -1.045  12.393  20.614  0.00  0.00    +0.000 C 
ATOM      2  C   UNL     1      -0.166  11.140  20.644  0.00  0.00    +0.000 C 
ATOM      3  N   UNL     1      -0.014  10.598  19.291  0.00  0.00    +0.000 N 
ATOM      4  C   UNL     1      -1.152  10.640  18.497  0.00  0.00    +0.000 A 
ATOM      5  C   UNL     1      -1.247   9.962  17.274  0.00  0.00    +0.000 A 
ATOM      6  C   UNL     1      -2.437   9.938  16.536  0.00  0.00    +0.000 A 
ATOM      7  C   UNL     1      -3.564  10.605  17.002  0.00  0.00    +0.000 A 
ATOM      8  C   UNL     1      -3.494  11.315  18.195  0.00  0.00    +0.000 A 
ATOM      9  C   UNL     1      -2.299  11.349  18.920  0.00  0.00    +0.000 A 
ATOM     10  O   UNL     1      -2.335  12.136  20.050  0.00  0.00    +0.000 OA
ENDROOT
BRANCH   1  12
ATOM     11  O   UNL     1      -0.789  14.289  19.102  0.00  0.00    +0.000 OA
ATOM     12  C   UNL     1      -0.292  13.577  19.972  0.00  0.00    +0.000 C 
ATOM     13  N   UNL     1       1.022  13.716  20.381  0.00  0.00    +0.000 N 
ATOM     14  H   UNL     1       1.271  13.219  21.231  0.00  0.00    +0.000 HD
BRANCH  13  15
ATOM     15  C   UNL     1       1.843  14.829  19.912  0.00  0.00    +0.000 C 
ATOM     16  C   UNL     1       1.632  16.088  20.762  0.00  0.00    +0.000 C 
ATOM     17  C   UNL     1       2.197  15.938  22.182  0.00  0.00    +0.000 C 
ATOM     18  C   UNL     1       3.670  15.516  22.178  0.00  0.00    +0.000 C 
ATOM     19  C   UNL     1       3.910  14.267  21.340  0.00  0.00    +0.000 C 
ATOM     20  C   UNL     1       3.334  14.496  19.962  0.00  0.00    +0.000 C 
ATOM     21  O   UNL     1       4.049  14.499  18.961  0.00  0.00    +0.000 OA
ENDBRANCH  13  15
ENDBRANCH   1  12
BRANCH   3  22
ATOM     22  C   UNL     1       1.318  10.198  18.837  0.00  0.00    +0.000 C 
BRANCH  22  23
ATOM     23  C   UNL     1       1.701   8.772  19.195  0.00  0.00    +0.000 A 
ATOM     24  C   UNL     1       1.454   8.222  20.459  0.00  0.00    +0.000 A 
ATOM     25  C   UNL     1       1.647   6.861  20.710  0.00  0.00    +0.000 A 
ATOM     26  C   UNL     1       2.110   6.014  19.698  0.00  0.00    +0.000 A 
ATOM     27  C   UNL     1       2.423   6.560  18.446  0.00  0.00    +0.000 A 
ATOM     28  C   UNL     1       2.211   7.923  18.198  0.00  0.00    +0.000 A 
BRANCH  26  29
ATOM     29  N   UNL     1       2.232   4.613  19.922  0.00  0.00    +0.000 N 
ATOM     30  C   UNL     1       3.320   3.805  19.648  0.00  0.00    +0.000 A 
ATOM     31  C   UNL     1       2.995   2.532  20.046  0.00  0.00    +0.000 A 
ATOM     32  C   UNL     1       1.695   2.648  20.555  0.00  0.00    +0.000 A 
ATOM     33  N   UNL     1       1.227   3.895  20.492  0.00  0.00    +0.000 NA
ENDBRANCH  26  29
ENDBRANCH  22  23
ENDBRANCH   3  22
TORSDOF 5
ENDMDL
MODEL 9
REMARK VINA RESULT:      -7.7      0.775      1.261
REMARK  Name = 
REMARK  5 active torsions:
REMARK  status: ('A' for Active; 'I' for Inactive)
REMARK    1  A    between atoms: C_2  and  C_11
REMARK    2  A    between atoms: N_3  and  C_4
REMARK    3  A    between atoms: N_13  and  C_14
REMARK    4  A    between atoms: C_14  and  C_15
REMARK    5  A    between atoms: C_18  and  N_19
REMARK                            x       y       z     vdW  Elec       q    Type
REMARK                         _______ _______ _______ _____ _____    ______ ____
ROOT
ATOM      1  C   UNL     1       5.797   4.653  19.377  0.00  0.00    +0.000 C 
ATOM      2  C   UNL     1       4.928   5.893  19.151  0.00  0.00    +0.000 C 
ATOM      3  N   UNL     1       4.370   5.878  17.797  0.00  0.00    +0.000 N 
ATOM      4  C   UNL     1       5.226   5.428  16.800  0.00  0.00    +0.000 A 
ATOM      5  C   UNL     1       4.938   5.566  15.435  0.00  0.00    +0.000 A 
ATOM      6  C   UNL     1       5.857   5.193  14.447  0.00  0.00    +0.000 A 
ATOM      7  C   UNL     1       7.091   4.661  14.803  0.00  0.00    +0.000 A 
ATOM      8  C   UNL     1       7.396   4.480  16.147  0.00  0.00    +0.000 A 
ATOM      9  C   UNL     1       6.467   4.839  17.130  0.00  0.00    +0.000 A 
ATOM     10  O   UNL     1       6.857   4.553  18.420  0.00  0.00    +0.000 OA
ENDROOT
BRANCH   1  12
ATOM     11  O   UNL     1       5.370   2.303  19.872  0.00  0.00    +0.000 OA
ATOM     12  C   UNL     1       4.925   3.386  19.498  0.00  0.00    +0.000 C 
ATOM     13  N   UNL     1       3.622   3.539  19.061  0.00  0.00    +0.000 N 
ATOM     14  H   UNL     1       3.301   4.498  18.965  0.00  0.00    +0.000 HD
BRANCH  13  15
ATOM     15  C   UNL     1       2.656   2.449  19.175  0.00  0.00    +0.000 C 
ATOM     16  C   UNL     1       2.802   1.696  20.504  0.00  0.00    +0.000 C 
ATOM     17  C   UNL     1       2.367   2.545  21.707  0.00  0.00    +0.000 C 
ATOM     18  C   UNL     1       0.950   3.103  21.541  0.00  0.00    +0.000 C 
ATOM     19  C   UNL     1       0.775   3.855  20.229  0.00  0.00    +0.000 C 
ATOM     20  C   UNL     1       1.216   2.955  19.098  0.00  0.00    +0.000 C 
ATOM     21  O   UNL     1       0.429   2.589  18.226  0.00  0.00    +0.000 OA
ENDBRANCH  13  15
ENDBRANCH   1  12
BRANCH   3  22
ATOM     22  C   UNL     1       2.952   6.189  17.614  0.00  0.00    +0.000 C 
BRANCH  22  23
ATOM     23  C   UNL     1       2.453   7.356  18.447  0.00  0.00    +0.000 A 
ATOM     24  C   UNL     1       2.121   8.595  17.884  0.00  0.00    +0.000 A 
ATOM     25  C   UNL     1       1.495   9.592  18.637  0.00  0.00    +0.000 A 
ATOM     26  C   UNL     1       1.197   9.376  19.987  0.00  0.00    +0.000 A 
ATOM     27  C   UNL     1       1.580   8.168  20.582  0.00  0.00    +0.000 A 
ATOM     28  C   UNL     1       2.194   7.167  19.816  0.00  0.00    +0.000 A 
BRANCH  26  29
ATOM     29  N   UNL     1       0.487  10.355  20.739  0.00  0.00    +0.000 N 
ATOM     30  C   UNL     1       0.630  11.729  20.685  0.00  0.00    +0.000 A 
ATOM     31  C   UNL     1      -0.272  12.269  21.568  0.00  0.00    +0.000 A 
ATOM     32  C   UNL     1      -0.928  11.160  22.118  0.00  0.00    +0.000 A 
ATOM     33  N   UNL     1      -0.486  10.003  21.623  0.00  0.00    +0.000 NA
ENDBRANCH  26  29
ENDBRANCH  22  23
ENDBRANCH   3  22
TORSDOF 5
ENDMDL
