MODEL 1
REMARK VINA RESULT:      -8.7      0.000      0.000
REMARK  Name = 
REMARK  3 active torsions:
REMARK  status: ('A' for Active; 'I' for Inactive)
REMARK    1  A    between atoms: C_4  and  C_5
REMARK    2  A    between atoms: C_7  and  C_8
REMARK    3  A    between atoms: C_14  and  C_15
REMARK                            x       y       z     vdW  Elec       q    Type
REMARK                         _______ _______ _______ _____ _____    ______ ____
ROOT
ATOM      1  C   UNL     1       3.432   6.152  17.823  0.00  0.00    +0.000 A 
ATOM      2  N   UNL     1       4.312   6.399  16.788  0.00  0.00    +0.000 NA
ATOM      3  C   UNL     1       4.762   5.222  16.408  0.00  0.00    +0.000 A 
ATOM      4  N   UNL     1       4.237   4.228  17.192  0.00  0.00    +0.000 N 
ATOM      5  C   UNL     1       3.399   4.790  18.130  0.00  0.00    +0.000 A 
ATOM      6  H   UNL     1       4.446   3.247  17.083  0.00  0.00    +0.000 HD
ENDROOT
BRANCH   1  10
ATOM      7  C   UNL     1       1.159   9.259  19.678  0.00  0.00    +0.000 A 
ATOM      8  C   UNL     1       1.516   9.372  18.339  0.00  0.00    +0.000 A 
ATOM      9  C   UNL     1       2.293   8.379  17.739  0.00  0.00    +0.000 A 
ATOM     10  C   UNL     1       2.674   7.231  18.447  0.00  0.00    +0.000 A 
ATOM     11  C   UNL     1       2.325   7.141  19.801  0.00  0.00    +0.000 A 
ATOM     12  C   UNL     1       1.578   8.152  20.415  0.00  0.00    +0.000 A 
ENDBRANCH   1  10
BRANCH   5  13
ATOM     13  C   UNL     1       2.681   3.999  19.134  0.00  0.00    +0.000 A 
ATOM     14  C   UNL     1       3.332   3.560  20.296  0.00  0.00    +0.000 A 
ATOM     15  C   UNL     1       2.613   2.971  21.339  0.00  0.00    +0.000 A 
ATOM     16  C   UNL     1       1.244   2.760  21.207  0.00  0.00    +0.000 A 
ATOM     17  C   UNL     1       0.598   3.122  20.027  0.00  0.00    +0.000 A 
ATOM     18  C   UNL     1       1.310   3.742  18.996  0.00  0.00    +0.000 A 
ENDBRANCH   5  13
BRANCH   3  19
ATOM     19  C   UNL     1       5.654   4.980  15.324  0.00  0.00    +0.000 A 
ATOM     20  C   UNL     1       5.507   4.091  14.272  0.00  0.00    +0.000 A 
ATOM     21  C   UNL     1       6.661   4.199  13.460  0.00  0.00    +0.000 A 
ATOM     22  C   UNL     1       7.454   5.147  14.059  0.00  0.00    +0.000 A 
ATOM     23  O   UNL     1       6.858   5.631  15.180  0.00  0.00    +0.000 OA
ENDBRANCH   3  19
TORSDOF 3
ENDMDL
MODEL 2
REMARK VINA RESULT:      -8.6      0.097      1.031
REMARK  Name = 
REMARK  3 active torsions:
REMARK  status: ('A' for Active; 'I' for Inactive)
REMARK    1  A    between atoms: C_4  and  C_5
REMARK    2  A    between atoms: C_7  and  C_8
REMARK    3  A    between atoms: C_14  and  C_15
REMARK                            x       y       z     vdW  Elec       q    Type
REMARK                         _______ _______ _______ _____ _____    ______ ____
ROOT
ATOM      1  C   UNL     1       3.378   6.133  17.903  0.00  0.00    +0.000 A 
ATOM      2  N   UNL     1       4.253   6.392  16.867  0.00  0.00    +0.000 NA
ATOM      3  C   UNL     1       4.718   5.222  16.488  0.00  0.00    +0.000 A 
ATOM      4  N   UNL     1       4.208   4.221  17.272  0.00  0.00    +0.000 N 
ATOM      5  C   UNL     1       3.363   4.771  18.211  0.00  0.00    +0.000 A 
ATOM      6  H   UNL     1       4.430   3.242  17.163  0.00  0.00    +0.000 HD
ENDROOT
BRANCH   1  10
ATOM      7  C   UNL     1       1.165   9.317  19.702  0.00  0.00    +0.000 A 
ATOM      8  C   UNL     1       1.528   8.212  20.465  0.00  0.00    +0.000 A 
ATOM      9  C   UNL     1       2.216   7.151  19.873  0.00  0.00    +0.000 A 
ATOM     10  C   UNL     1       2.605   7.202  18.527  0.00  0.00    +0.000 A 
ATOM     11  C   UNL     1       2.213   8.311  17.765  0.00  0.00    +0.000 A 
ATOM     12  C   UNL     1       1.492   9.359  18.347  0.00  0.00    +0.000 A 
ENDBRANCH   1  10
BRANCH   5  13
ATOM     13  C   UNL     1       2.657   3.971  19.216  0.00  0.00    +0.000 A 
ATOM     14  C   UNL     1       3.306   3.569  20.393  0.00  0.00    +0.000 A 
ATOM     15  C   UNL     1       2.592   2.972  21.434  0.00  0.00    +0.000 A 
ATOM     16  C   UNL     1       1.232   2.714  21.286  0.00  0.00    +0.000 A 
ATOM     17  C   UNL     1       0.592   3.039  20.092  0.00  0.00    +0.000 A 
ATOM     18  C   UNL     1       1.297   3.668  19.063  0.00  0.00    +0.000 A 
ENDBRANCH   5  13
BRANCH   3  19
ATOM     19  C   UNL     1       5.612   4.991  15.403  0.00  0.00    +0.000 A 
ATOM     20  C   UNL     1       5.446   4.148  14.315  0.00  0.00    +0.000 A 
ATOM     21  C   UNL     1       6.611   4.249  13.519  0.00  0.00    +0.000 A 
ATOM     22  C   UNL     1       7.430   5.146  14.161  0.00  0.00    +0.000 A 
ATOM     23  O   UNL     1       6.839   5.606  15.294  0.00  0.00    +0.000 OA
ENDBRANCH   3  19
TORSDOF 3
ENDMDL
MODEL 3
REMARK VINA RESULT:      -8.6      0.096      4.114
REMARK  Name = 
REMARK  3 active torsions:
REMARK  status: ('A' for Active; 'I' for Inactive)
REMARK    1  A    between atoms: C_4  and  C_5
REMARK    2  A    between atoms: C_7  and  C_8
REMARK    3  A    between atoms: C_14  and  C_15
REMARK                            x       y       z     vdW  Elec       q    Type
REMARK                         _______ _______ _______ _____ _____    ______ ____
ROOT
ATOM      1  C   UNL     1       3.356   4.824  18.074  0.00  0.00    +0.000 A 
ATOM      2  N   UNL     1       4.146   4.173  17.147  0.00  0.00    +0.000 NA
ATOM      3  C   UNL     1       4.675   5.116  16.398  0.00  0.00    +0.000 A 
ATOM      4  N   UNL     1       4.219   6.350  16.781  0.00  0.00    +0.000 N 
ATOM      5  C   UNL     1       3.347   6.200  17.838  0.00  0.00    +0.000 A 
ATOM      6  H   UNL     1       4.490   7.219  16.343  0.00  0.00    +0.000 HD
ENDROOT
BRANCH   1  10
ATOM      7  C   UNL     1       1.280   2.731  21.168  0.00  0.00    +0.000 A 
ATOM      8  C   UNL     1       2.634   3.013  21.315  0.00  0.00    +0.000 A 
ATOM      9  C   UNL     1       3.326   3.660  20.290  0.00  0.00    +0.000 A 
ATOM     10  C   UNL     1       2.667   4.091  19.130  0.00  0.00    +0.000 A 
ATOM     11  C   UNL     1       1.308   3.780  18.987  0.00  0.00    +0.000 A 
ATOM     12  C   UNL     1       0.620   3.099  19.997  0.00  0.00    +0.000 A 
ENDBRANCH   1  10
BRANCH   5  13
ATOM     13  C   UNL     1       2.671   7.330  18.481  0.00  0.00    +0.000 A 
ATOM     14  C   UNL     1       2.327   8.472  17.742  0.00  0.00    +0.000 A 
ATOM     15  C   UNL     1       1.522   9.467  18.299  0.00  0.00    +0.000 A 
ATOM     16  C   UNL     1       1.101   9.362  19.621  0.00  0.00    +0.000 A 
ATOM     17  C   UNL     1       1.498   8.271  20.390  0.00  0.00    +0.000 A 
ATOM     18  C   UNL     1       2.276   7.257  19.824  0.00  0.00    +0.000 A 
ENDBRANCH   5  13
BRANCH   3  19
ATOM     19  C   UNL     1       5.611   4.917  15.343  0.00  0.00    +0.000 A 
ATOM     20  C   UNL     1       5.522   4.051  14.266  0.00  0.00    +0.000 A 
ATOM     21  C   UNL     1       6.702   4.202  13.500  0.00  0.00    +0.000 A 
ATOM     22  C   UNL     1       7.453   5.152  14.150  0.00  0.00    +0.000 A 
ATOM     23  O   UNL     1       6.805   5.596  15.258  0.00  0.00    +0.000 OA
ENDBRANCH   3  19
TORSDOF 3
ENDMDL
MODEL 4
REMARK VINA RESULT:      -8.5      0.132      4.065
REMARK  Name = 
REMARK  3 active torsions:
REMARK  status: ('A' for Active; 'I' for Inactive)
REMARK    1  A    between atoms: C_4  and  C_5
REMARK    2  A    between atoms: C_7  and  C_8
REMARK    3  A    between atoms: C_14  and  C_15
REMARK                            x       y       z     vdW  Elec       q    Type
REMARK                         _______ _______ _______ _____ _____    ______ ____
ROOT
ATOM      1  C   UNL     1       3.326   4.858  18.091  0.00  0.00    +0.000 A 
ATOM      2  N   UNL     1       4.123   4.205  17.171  0.00  0.00    +0.000 NA
ATOM      3  C   UNL     1       4.663   5.147  16.430  0.00  0.00    +0.000 A 
ATOM      4  N   UNL     1       4.208   6.382  16.809  0.00  0.00    +0.000 N 
ATOM      5  C   UNL     1       3.326   6.235  17.857  0.00  0.00    +0.000 A 
ATOM      6  H   UNL     1       4.487   7.250  16.375  0.00  0.00    +0.000 HD
ENDROOT
BRANCH   1  10
ATOM      7  C   UNL     1       1.326   2.661  21.163  0.00  0.00    +0.000 A 
ATOM      8  C   UNL     1       0.621   3.066  20.034  0.00  0.00    +0.000 A 
ATOM      9  C   UNL     1       1.259   3.819  19.047  0.00  0.00    +0.000 A 
ATOM     10  C   UNL     1       2.624   4.127  19.140  0.00  0.00    +0.000 A 
ATOM     11  C   UNL     1       3.315   3.731  20.293  0.00  0.00    +0.000 A 
ATOM     12  C   UNL     1       2.669   3.008  21.302  0.00  0.00    +0.000 A 
ENDBRANCH   1  10
BRANCH   5  13
ATOM     13  C   UNL     1       2.648   7.367  18.495  0.00  0.00    +0.000 A 
ATOM     14  C   UNL     1       2.300   8.503  17.750  0.00  0.00    +0.000 A 
ATOM     15  C   UNL     1       1.494   9.500  18.303  0.00  0.00    +0.000 A 
ATOM     16  C   UNL     1       1.075   9.402  19.626  0.00  0.00    +0.000 A 
ATOM     17  C   UNL     1       1.476   8.316  20.400  0.00  0.00    +0.000 A 
ATOM     18  C   UNL     1       2.255   7.300  19.839  0.00  0.00    +0.000 A 
ENDBRANCH   5  13
BRANCH   3  19
ATOM     19  C   UNL     1       5.609   4.945  15.383  0.00  0.00    +0.000 A 
ATOM     20  C   UNL     1       5.517   4.096  14.293  0.00  0.00    +0.000 A 
ATOM     21  C   UNL     1       6.710   4.236  13.544  0.00  0.00    +0.000 A 
ATOM     22  C   UNL     1       7.470   5.162  14.217  0.00  0.00    +0.000 A 
ATOM     23  O   UNL     1       6.816   5.603  15.323  0.00  0.00    +0.000 OA
ENDBRANCH   3  19
TORSDOF 3
ENDMDL
MODEL 5
REMARK VINA RESULT:      -8.5      0.483      1.087
REMARK  Name = 
REMARK  3 active torsions:
REMARK  status: ('A' for Active; 'I' for Inactive)
REMARK    1  A    between atoms: C_4  and  C_5
REMARK    2  A    between atoms: C_7  and  C_8
REMARK    3  A    between atoms: C_14  and  C_15
REMARK                            x       y       z     vdW  Elec       q    Type
REMARK                         _______ _______ _______ _____ _____    ______ ____
ROOT
ATOM      1  C   UNL     1       3.261   6.503  17.961  0.00  0.00    +0.000 A 
ATOM      2  N   UNL     1       4.185   6.686  16.951  0.00  0.00    +0.000 NA
ATOM      3  C   UNL     1       4.640   5.488  16.658  0.00  0.00    +0.000 A 
ATOM      4  N   UNL     1       4.076   4.542  17.474  0.00  0.00    +0.000 N 
ATOM      5  C   UNL     1       3.204   5.161  18.344  0.00  0.00    +0.000 A 
ATOM      6  H   UNL     1       4.282   3.555  17.430  0.00  0.00    +0.000 HD
ENDROOT
BRANCH   1  10
ATOM      7  C   UNL     1       0.937   9.723  19.541  0.00  0.00    +0.000 A 
ATOM      8  C   UNL     1       1.343   9.754  18.211  0.00  0.00    +0.000 A 
ATOM      9  C   UNL     1       2.137   8.724  17.701  0.00  0.00    +0.000 A 
ATOM     10  C   UNL     1       2.486   7.620  18.490  0.00  0.00    +0.000 A 
ATOM     11  C   UNL     1       2.088   7.614  19.834  0.00  0.00    +0.000 A 
ATOM     12  C   UNL     1       1.324   8.662  20.358  0.00  0.00    +0.000 A 
ENDBRANCH   1  10
BRANCH   5  13
ATOM     13  C   UNL     1       2.440   4.433  19.360  0.00  0.00    +0.000 A 
ATOM     14  C   UNL     1       1.311   3.681  19.002  0.00  0.00    +0.000 A 
ATOM     15  C   UNL     1       0.691   2.839  19.927  0.00  0.00    +0.000 A 
ATOM     16  C   UNL     1       1.155   2.783  21.237  0.00  0.00    +0.000 A 
ATOM     17  C   UNL     1       2.229   3.582  21.626  0.00  0.00    +0.000 A 
ATOM     18  C   UNL     1       2.872   4.400  20.693  0.00  0.00    +0.000 A 
ENDBRANCH   5  13
BRANCH   3  19
ATOM     19  C   UNL     1       5.574   5.179  15.627  0.00  0.00    +0.000 A 
ATOM     20  C   UNL     1       5.423   4.305  14.563  0.00  0.00    +0.000 A 
ATOM     21  C   UNL     1       6.629   4.326  13.822  0.00  0.00    +0.000 A 
ATOM     22  C   UNL     1       7.455   5.210  14.473  0.00  0.00    +0.000 A 
ATOM     23  O   UNL     1       6.831   5.736  15.559  0.00  0.00    +0.000 OA
ENDBRANCH   3  19
TORSDOF 3
ENDMDL
MODEL 6
REMARK VINA RESULT:      -8.5      0.374      1.492
REMARK  Name = 
REMARK  3 active torsions:
REMARK  status: ('A' for Active; 'I' for Inactive)
REMARK    1  A    between atoms: C_4  and  C_5
REMARK    2  A    between atoms: C_7  and  C_8
REMARK    3  A    between atoms: C_14  and  C_15
REMARK                            x       y       z     vdW  Elec       q    Type
REMARK                         _______ _______ _______ _____ _____    ______ ____
ROOT
ATOM      1  C   UNL     1       3.282   6.417  17.975  0.00  0.00    +0.000 A 
ATOM      2  N   UNL     1       4.181   6.609  16.945  0.00  0.00    +0.000 NA
ATOM      3  C   UNL     1       4.652   5.417  16.650  0.00  0.00    +0.000 A 
ATOM      4  N   UNL     1       4.121   4.468  17.483  0.00  0.00    +0.000 N 
ATOM      5  C   UNL     1       3.256   5.077  18.366  0.00  0.00    +0.000 A 
ATOM      6  H   UNL     1       4.343   3.484  17.440  0.00  0.00    +0.000 HD
ENDROOT
BRANCH   1  10
ATOM      7  C   UNL     1       1.038   9.709  19.522  0.00  0.00    +0.000 A 
ATOM      8  C   UNL     1       1.355   8.640  20.353  0.00  0.00    +0.000 A 
ATOM      9  C   UNL     1       2.052   7.543  19.842  0.00  0.00    +0.000 A 
ATOM     10  C   UNL     1       2.498   7.524  18.513  0.00  0.00    +0.000 A 
ATOM     11  C   UNL     1       2.152   8.598  17.682  0.00  0.00    +0.000 A 
ATOM     12  C   UNL     1       1.421   9.682  18.182  0.00  0.00    +0.000 A 
ENDBRANCH   1  10
BRANCH   5  13
ATOM     13  C   UNL     1       2.526   4.342  19.403  0.00  0.00    +0.000 A 
ATOM     14  C   UNL     1       1.237   3.848  19.154  0.00  0.00    +0.000 A 
ATOM     15  C   UNL     1       0.612   2.992  20.063  0.00  0.00    +0.000 A 
ATOM     16  C   UNL     1       1.244   2.667  21.259  0.00  0.00    +0.000 A 
ATOM     17  C   UNL     1       2.492   3.211  21.553  0.00  0.00    +0.000 A 
ATOM     18  C   UNL     1       3.133   4.041  20.630  0.00  0.00    +0.000 A 
ENDBRANCH   5  13
BRANCH   3  19
ATOM     19  C   UNL     1       5.570   5.118  15.602  0.00  0.00    +0.000 A 
ATOM     20  C   UNL     1       5.395   4.268  14.522  0.00  0.00    +0.000 A 
ATOM     21  C   UNL     1       6.592   4.289  13.768  0.00  0.00    +0.000 A 
ATOM     22  C   UNL     1       7.436   5.150  14.426  0.00  0.00    +0.000 A 
ATOM     23  O   UNL     1       6.832   5.661  15.529  0.00  0.00    +0.000 OA
ENDBRANCH   3  19
TORSDOF 3
ENDMDL
MODEL 7
REMARK VINA RESULT:      -8.3      0.239      4.088
REMARK  Name = 
REMARK  3 active torsions:
REMARK  status: ('A' for Active; 'I' for Inactive)
REMARK    1  A    between atoms: C_4  and  C_5
REMARK    2  A    between atoms: C_7  and  C_8
REMARK    3  A    between atoms: C_14  and  C_15
REMARK                            x       y       z     vdW  Elec       q    Type
REMARK                         _______ _______ _______ _____ _____    ______ ____
ROOT
ATOM      1  C   UNL     1       3.291   4.778  18.238  0.00  0.00    +0.000 A 
ATOM      2  N   UNL     1       4.142   4.158  17.343  0.00  0.00    +0.000 NA
ATOM      3  C   UNL     1       4.618   5.115  16.577  0.00  0.00    +0.000 A 
ATOM      4  N   UNL     1       4.071   6.325  16.916  0.00  0.00    +0.000 N 
ATOM      5  C   UNL     1       3.192   6.144  17.962  0.00  0.00    +0.000 A 
ATOM      6  H   UNL     1       4.289   7.197  16.458  0.00  0.00    +0.000 HD
ENDROOT
BRANCH   1  10
ATOM      7  C   UNL     1       1.313   2.639  21.363  0.00  0.00    +0.000 A 
ATOM      8  C   UNL     1       2.680   2.878  21.451  0.00  0.00    +0.000 A 
ATOM      9  C   UNL     1       3.339   3.541  20.413  0.00  0.00    +0.000 A 
ATOM     10  C   UNL     1       2.635   4.029  19.303  0.00  0.00    +0.000 A 
ATOM     11  C   UNL     1       1.262   3.761  19.219  0.00  0.00    +0.000 A 
ATOM     12  C   UNL     1       0.606   3.064  20.240  0.00  0.00    +0.000 A 
ENDBRANCH   1  10
BRANCH   5  13
ATOM     13  C   UNL     1       2.427   7.241  18.560  0.00  0.00    +0.000 A 
ATOM     14  C   UNL     1       2.111   7.229  19.927  0.00  0.00    +0.000 A 
ATOM     15  C   UNL     1       1.550   8.351  20.540  0.00  0.00    +0.000 A 
ATOM     16  C   UNL     1       1.242   9.477  19.782  0.00  0.00    +0.000 A 
ATOM     17  C   UNL     1       1.481   9.474  18.410  0.00  0.00    +0.000 A 
ATOM     18  C   UNL     1       2.074   8.365  17.800  0.00  0.00    +0.000 A 
ENDBRANCH   5  13
BRANCH   3  19
ATOM     19  C   UNL     1       5.586   4.953  15.544  0.00  0.00    +0.000 A 
ATOM     20  C   UNL     1       5.514   4.152  14.416  0.00  0.00    +0.000 A 
ATOM     21  C   UNL     1       6.723   4.316  13.700  0.00  0.00    +0.000 A 
ATOM     22  C   UNL     1       7.473   5.208  14.429  0.00  0.00    +0.000 A 
ATOM     23  O   UNL     1       6.798   5.604  15.539  0.00  0.00    +0.000 OA
ENDBRANCH   3  19
TORSDOF 3
ENDMDL
MODEL 8
REMARK VINA RESULT:      -8.2      0.316      4.047
REMARK  Name = 
REMARK  3 active torsions:
REMARK  status: ('A' for Active; 'I' for Inactive)
REMARK    1  A    between atoms: C_4  and  C_5
REMARK    2  A    between atoms: C_7  and  C_8
REMARK    3  A    between atoms: C_14  and  C_15
REMARK                            x       y       z     vdW  Elec       q    Type
REMARK                         _______ _______ _______ _____ _____    ______ ____
ROOT
ATOM      1  C   UNL     1       3.232   4.898  18.258  0.00  0.00    +0.000 A 
ATOM      2  N   UNL     1       4.095   4.266  17.384  0.00  0.00    +0.000 NA
ATOM      3  C   UNL     1       4.598   5.214  16.624  0.00  0.00    +0.000 A 
ATOM      4  N   UNL     1       4.056   6.430  16.946  0.00  0.00    +0.000 N 
ATOM      5  C   UNL     1       3.153   6.264  17.974  0.00  0.00    +0.000 A 
ATOM      6  H   UNL     1       4.293   7.299  16.489  0.00  0.00    +0.000 HD
ENDROOT
BRANCH   1  10
ATOM      7  C   UNL     1       1.281   2.687  21.350  0.00  0.00    +0.000 A 
ATOM      8  C   UNL     1       0.588   3.002  20.186  0.00  0.00    +0.000 A 
ATOM      9  C   UNL     1       1.207   3.760  19.190  0.00  0.00    +0.000 A 
ATOM     10  C   UNL     1       2.545   4.161  19.312  0.00  0.00    +0.000 A 
ATOM     11  C   UNL     1       3.223   3.854  20.500  0.00  0.00    +0.000 A 
ATOM     12  C   UNL     1       2.593   3.127  21.516  0.00  0.00    +0.000 A 
ENDBRANCH   1  10
BRANCH   5  13
ATOM     13  C   UNL     1       2.387   7.372  18.551  0.00  0.00    +0.000 A 
ATOM     14  C   UNL     1       2.051   7.374  19.913  0.00  0.00    +0.000 A 
ATOM     15  C   UNL     1       1.488   8.505  20.508  0.00  0.00    +0.000 A 
ATOM     16  C   UNL     1       1.201   9.627  19.736  0.00  0.00    +0.000 A 
ATOM     17  C   UNL     1       1.460   9.610  18.367  0.00  0.00    +0.000 A 
ATOM     18  C   UNL     1       2.054   8.491  17.776  0.00  0.00    +0.000 A 
ENDBRANCH   5  13
BRANCH   3  19
ATOM     19  C   UNL     1       5.585   5.037  15.612  0.00  0.00    +0.000 A 
ATOM     20  C   UNL     1       5.539   4.213  14.500  0.00  0.00    +0.000 A 
ATOM     21  C   UNL     1       6.761   4.370  13.804  0.00  0.00    +0.000 A 
ATOM     22  C   UNL     1       7.491   5.281  14.527  0.00  0.00    +0.000 A 
ATOM     23  O   UNL     1       6.793   5.696  15.616  0.00  0.00    +0.000 OA
ENDBRANCH   3  19
TORSDOF 3
ENDMDL
MODEL 9
REMARK VINA RESULT:      -7.9      2.267      5.610
REMARK  Name = 
REMARK  3 active torsions:
REMARK  status: ('A' for Active; 'I' for Inactive)
REMARK    1  A    between atoms: C_4  and  C_5
REMARK    2  A    between atoms: C_7  and  C_8
REMARK    3  A    between atoms: C_14  and  C_15
REMARK                            x       y       z     vdW  Elec       q    Type
REMARK                         _______ _______ _______ _____ _____    ______ ____
ROOT
ATOM      1  C   UNL     1       3.688   6.661  17.686  0.00  0.00    +0.000 A 
ATOM      2  N   UNL     1       3.552   8.034  17.627  0.00  0.00    +0.000 NA
ATOM      3  C   UNL     1       2.374   8.302  18.147  0.00  0.00    +0.000 A 
ATOM      4  N   UNL     1       1.726   7.147  18.498  0.00  0.00    +0.000 N 
ATOM      5  C   UNL     1       2.529   6.069  18.192  0.00  0.00    +0.000 A 
ATOM      6  H   UNL     1       0.807   7.113  18.913  0.00  0.00    +0.000 HD
ENDROOT
BRANCH   1  10
ATOM      7  C   UNL     1       7.254   4.685  16.401  0.00  0.00    +0.000 A 
ATOM      8  C   UNL     1       7.011   4.855  17.760  0.00  0.00    +0.000 A 
ATOM      9  C   UNL     1       5.868   5.535  18.184  0.00  0.00    +0.000 A 
ATOM     10  C   UNL     1       4.920   6.002  17.263  0.00  0.00    +0.000 A 
ATOM     11  C   UNL     1       5.189   5.844  15.897  0.00  0.00    +0.000 A 
ATOM     12  C   UNL     1       6.352   5.195  15.468  0.00  0.00    +0.000 A 
ENDBRANCH   1  10
BRANCH   5  13
ATOM     13  C   UNL     1       2.128   4.681  18.434  0.00  0.00    +0.000 A 
ATOM     14  C   UNL     1       2.507   3.662  17.547  0.00  0.00    +0.000 A 
ATOM     15  C   UNL     1       2.290   2.320  17.865  0.00  0.00    +0.000 A 
ATOM     16  C   UNL     1       1.638   1.982  19.047  0.00  0.00    +0.000 A 
ATOM     17  C   UNL     1       1.188   2.986  19.901  0.00  0.00    +0.000 A 
ATOM     18  C   UNL     1       1.434   4.329  19.600  0.00  0.00    +0.000 A 
ENDBRANCH   5  13
BRANCH   3  19
ATOM     19  C   UNL     1       1.827   9.602  18.350  0.00  0.00    +0.000 A 
ATOM     20  C   UNL     1       0.611   9.944  18.916  0.00  0.00    +0.000 A 
ATOM     21  C   UNL     1       0.509  11.355  18.883  0.00  0.00    +0.000 A 
ATOM     22  C   UNL     1       1.668  11.802  18.297  0.00  0.00    +0.000 A 
ATOM     23  O   UNL     1       2.475  10.757  17.976  0.00  0.00    +0.000 OA
ENDBRANCH   3  19
TORSDOF 3
ENDMDL
