MODEL 1
REMARK VINA RESULT:      -8.7      0.000      0.000
REMARK  Name = 
REMARK  10 active torsions:
REMARK  status: ('A' for Active; 'I' for Inactive)
REMARK    1  A    between atoms: C_1  and  C_2
REMARK    2  A    between atoms: C_4  and  C_5
REMARK    3  A    between atoms: C_7  and  N_8
REMARK    4  A    between atoms: N_11  and  C_12
REMARK    5  A    between atoms: C_12  and  C_13
REMARK    6  A    between atoms: C_13  and  N_14
REMARK    7  A    between atoms: C_19  and  S_20
REMARK    8  A    between atoms: S_20  and  N_23
REMARK    9  A    between atoms: N_23  and  C_24
REMARK   10  A    between atoms: N_23  and  C_25
REMARK                            x       y       z     vdW  Elec       q    Type
REMARK                         _______ _______ _______ _____ _____    ______ ____
ROOT
ATOM      1  C   UNL     1       2.149   1.715  20.159  0.00  0.00    +0.000 C 
ENDROOT
BRANCH   1   2
ATOM      2  N   UNL     1       2.431   2.460  18.954  0.00  0.00    +0.000 N 
ATOM      3  N   UNL     1       1.535   2.537  17.953  0.00  0.00    +0.000 NA
ATOM      4  N   UNL     1       2.071   3.282  16.994  0.00  0.00    +0.000 NA
ATOM      5  C   UNL     1       3.304   3.699  17.415  0.00  0.00    +0.000 A 
ATOM      6  C   UNL     1       4.266   4.496  16.783  0.00  0.00    +0.000 A 
ATOM      7  C   UNL     1       5.463   4.754  17.471  0.00  0.00    +0.000 A 
ATOM      8  C   UNL     1       5.680   4.286  18.772  0.00  0.00    +0.000 A 
ATOM      9  C   UNL     1       4.732   3.470  19.400  0.00  0.00    +0.000 A 
ATOM     10  C   UNL     1       3.559   3.195  18.685  0.00  0.00    +0.000 A 
BRANCH   7  11
ATOM     11  S   UNL     1       6.727   5.712  16.653  0.00  0.00    +0.000 S 
ATOM     12  O   UNL     1       7.823   4.804  16.354  0.00  0.00    +0.000 OA
ATOM     13  O   UNL     1       6.093   6.476  15.603  0.00  0.00    +0.000 OA
BRANCH  11  14
ATOM     14  N   UNL     1       7.254   6.781  17.876  0.00  0.00    +0.000 NA
ATOM     15  C   UNL     1       8.120   6.219  18.928  0.00  0.00    +0.000 C 
ATOM     16  C   UNL     1       7.732   8.098  17.411  0.00  0.00    +0.000 C 
ENDBRANCH  11  14
ENDBRANCH   7  11
ENDBRANCH   1   2
BRANCH   1  17
ATOM     17  C   UNL     1       1.445   2.512  21.268  0.00  0.00    +0.000 C 
BRANCH  17  21
ATOM     18  N   UNL     1       2.158   6.107  21.172  0.00  0.00    +0.000 N 
ATOM     19  C   UNL     1       1.492   4.920  20.942  0.00  0.00    +0.000 C 
ATOM     20  O   UNL     1       0.440   4.789  20.333  0.00  0.00    +0.000 OA
ATOM     21  N   UNL     1       2.077   3.814  21.513  0.00  0.00    +0.000 N 
ATOM     22  H   UNL     1       3.039   6.078  21.657  0.00  0.00    +0.000 HD
ATOM     23  H   UNL     1       3.052   3.838  21.775  0.00  0.00    +0.000 HD
BRANCH  18  30
ATOM     24  C   UNL     1       1.835   9.543  17.609  0.00  0.00    +0.000 C 
ATOM     25  C   UNL     1       1.519   9.086  19.003  0.00  0.00    +0.000 A 
ATOM     26  C   UNL     1       0.764   9.899  19.857  0.00  0.00    +0.000 A 
ATOM     27  C   UNL     1       0.467   9.474  21.149  0.00  0.00    +0.000 A 
ATOM     28  C   UNL     1      -0.340  10.313  22.092  0.00  0.00    +0.000 C 
ATOM     29  C   UNL     1       0.933   8.223  21.573  0.00  0.00    +0.000 A 
ATOM     30  C   UNL     1       1.685   7.381  20.746  0.00  0.00    +0.000 A 
ATOM     31  C   UNL     1       1.981   7.830  19.454  0.00  0.00    +0.000 A 
ENDBRANCH  18  30
ENDBRANCH  17  21
ENDBRANCH   1  17
TORSDOF 6
ENDMDL
MODEL 2
REMARK VINA RESULT:      -8.2      4.537      8.011
REMARK  Name = 
REMARK  10 active torsions:
REMARK  status: ('A' for Active; 'I' for Inactive)
REMARK    1  A    between atoms: C_1  and  C_2
REMARK    2  A    between atoms: C_4  and  C_5
REMARK    3  A    between atoms: C_7  and  N_8
REMARK    4  A    between atoms: N_11  and  C_12
REMARK    5  A    between atoms: C_12  and  C_13
REMARK    6  A    between atoms: C_13  and  N_14
REMARK    7  A    between atoms: C_19  and  S_20
REMARK    8  A    between atoms: S_20  and  N_23
REMARK    9  A    between atoms: N_23  and  C_24
REMARK   10  A    between atoms: N_23  and  C_25
REMARK                            x       y       z     vdW  Elec       q    Type
REMARK                         _______ _______ _______ _____ _____    ______ ____
ROOT
ATOM      1  C   UNL     1       7.838   6.953  17.947  0.00  0.00    +0.000 C 
ENDROOT
BRANCH   1   2
ATOM      2  N   UNL     1       6.633   6.410  17.363  0.00  0.00    +0.000 N 
ATOM      3  N   UNL     1       6.301   6.660  16.083  0.00  0.00    +0.000 NA
ATOM      4  N   UNL     1       5.158   6.032  15.837  0.00  0.00    +0.000 NA
ATOM      5  C   UNL     1       4.788   5.358  16.968  0.00  0.00    +0.000 A 
ATOM      6  C   UNL     1       3.673   4.553  17.230  0.00  0.00    +0.000 A 
ATOM      7  C   UNL     1       3.554   3.990  18.512  0.00  0.00    +0.000 A 
ATOM      8  C   UNL     1       4.540   4.169  19.489  0.00  0.00    +0.000 A 
ATOM      9  C   UNL     1       5.646   4.991  19.240  0.00  0.00    +0.000 A 
ATOM     10  C   UNL     1       5.729   5.572  17.968  0.00  0.00    +0.000 A 
BRANCH   7  11
ATOM     11  S   UNL     1       2.105   3.017  18.884  0.00  0.00    +0.000 S 
ATOM     12  O   UNL     1       1.143   3.262  17.822  0.00  0.00    +0.000 OA
ATOM     13  O   UNL     1       2.542   1.673  19.190  0.00  0.00    +0.000 OA
BRANCH  11  14
ATOM     14  N   UNL     1       1.507   3.743  20.309  0.00  0.00    +0.000 NA
ATOM     15  C   UNL     1       1.970   3.182  21.592  0.00  0.00    +0.000 C 
ATOM     16  C   UNL     1       1.503   5.219  20.321  0.00  0.00    +0.000 C 
ENDBRANCH  11  14
ENDBRANCH   7  11
ENDBRANCH   1   2
BRANCH   1  17
ATOM     17  C   UNL     1       7.962   8.483  17.878  0.00  0.00    +0.000 C 
BRANCH  17  21
ATOM     18  N   UNL     1       9.952  10.820  19.883  0.00  0.00    +0.000 N 
ATOM     19  C   UNL     1       9.070  10.380  18.917  0.00  0.00    +0.000 C 
ATOM     20  O   UNL     1       8.453  11.084  18.129  0.00  0.00    +0.000 OA
ATOM     21  N   UNL     1       8.854   9.022  18.911  0.00  0.00    +0.000 N 
ATOM     22  H   UNL     1      10.426  10.135  20.448  0.00  0.00    +0.000 HD
ATOM     23  H   UNL     1       9.526   8.404  19.343  0.00  0.00    +0.000 HD
BRANCH  18  30
ATOM     24  C   UNL     1      12.153  15.005  18.386  0.00  0.00    +0.000 C 
ATOM     25  C   UNL     1      11.335  14.260  19.401  0.00  0.00    +0.000 A 
ATOM     26  C   UNL     1      10.874  14.913  20.551  0.00  0.00    +0.000 A 
ATOM     27  C   UNL     1      10.113  14.225  21.490  0.00  0.00    +0.000 A 
ATOM     28  C   UNL     1       9.598  14.887  22.732  0.00  0.00    +0.000 C 
ATOM     29  C   UNL     1       9.816  12.875  21.261  0.00  0.00    +0.000 A 
ATOM     30  C   UNL     1      10.254  12.191  20.121  0.00  0.00    +0.000 A 
ATOM     31  C   UNL     1      11.026  12.898  19.194  0.00  0.00    +0.000 A 
ENDBRANCH  18  30
ENDBRANCH  17  21
ENDBRANCH   1  17
TORSDOF 6
ENDMDL
MODEL 3
REMARK VINA RESULT:      -8.0      5.672     10.614
REMARK  Name = 
REMARK  10 active torsions:
REMARK  status: ('A' for Active; 'I' for Inactive)
REMARK    1  A    between atoms: C_1  and  C_2
REMARK    2  A    between atoms: C_4  and  C_5
REMARK    3  A    between atoms: C_7  and  N_8
REMARK    4  A    between atoms: N_11  and  C_12
REMARK    5  A    between atoms: C_12  and  C_13
REMARK    6  A    between atoms: C_13  and  N_14
REMARK    7  A    between atoms: C_19  and  S_20
REMARK    8  A    between atoms: S_20  and  N_23
REMARK    9  A    between atoms: N_23  and  C_24
REMARK   10  A    between atoms: N_23  and  C_25
REMARK                            x       y       z     vdW  Elec       q    Type
REMARK                         _______ _______ _______ _____ _____    ______ ____
ROOT
ATOM      1  C   UNL     1       0.914  11.914  19.734  0.00  0.00    +0.000 C 
ENDROOT
BRANCH   1   2
ATOM      2  N   UNL     1       0.138  11.706  20.934  0.00  0.00    +0.000 N 
ATOM      3  N   UNL     1       0.640  11.029  21.984  0.00  0.00    +0.000 NA
ATOM      4  N   UNL     1      -0.294  11.005  22.927  0.00  0.00    +0.000 NA
ATOM      5  C   UNL     1      -1.380  11.701  22.471  0.00  0.00    +0.000 A 
ATOM      6  C   UNL     1      -2.615  11.967  23.074  0.00  0.00    +0.000 A 
ATOM      7  C   UNL     1      -3.555  12.716  22.347  0.00  0.00    +0.000 A 
ATOM      8  C   UNL     1      -3.261  13.238  21.081  0.00  0.00    +0.000 A 
ATOM      9  C   UNL     1      -2.036  12.956  20.464  0.00  0.00    +0.000 A 
ATOM     10  C   UNL     1      -1.125  12.179  21.191  0.00  0.00    +0.000 A 
BRANCH   7  11
ATOM     11  S   UNL     1      -5.159  13.007  23.073  0.00  0.00    +0.000 S 
ATOM     12  O   UNL     1      -6.121  12.235  22.302  0.00  0.00    +0.000 OA
ATOM     13  O   UNL     1      -5.038  12.823  24.501  0.00  0.00    +0.000 OA
BRANCH  11  14
ATOM     14  N   UNL     1      -5.436  14.660  22.749  0.00  0.00    +0.000 NA
ATOM     15  C   UNL     1      -6.532  14.985  21.817  0.00  0.00    +0.000 C 
ATOM     16  C   UNL     1      -5.427  15.552  23.924  0.00  0.00    +0.000 C 
ENDBRANCH  11  14
ENDBRANCH   7  11
ENDBRANCH   1   2
BRANCH   1  17
ATOM     17  C   UNL     1       0.882  10.753  18.728  0.00  0.00    +0.000 C 
BRANCH  17  21
ATOM     18  N   UNL     1       2.334   7.400  19.012  0.00  0.00    +0.000 N 
ATOM     19  C   UNL     1       1.909   8.573  18.422  0.00  0.00    +0.000 C 
ATOM     20  O   UNL     1       1.997   8.857  17.236  0.00  0.00    +0.000 OA
ATOM     21  N   UNL     1       1.394   9.502  19.296  0.00  0.00    +0.000 N 
ATOM     22  H   UNL     1       2.171   7.270  19.997  0.00  0.00    +0.000 HD
ATOM     23  H   UNL     1       1.062   9.208  20.204  0.00  0.00    +0.000 HD
BRANCH  18  30
ATOM     24  C   UNL     1       6.164   5.824  16.281  0.00  0.00    +0.000 C 
ATOM     25  C   UNL     1       4.853   5.549  16.959  0.00  0.00    +0.000 A 
ATOM     26  C   UNL     1       4.286   4.270  16.903  0.00  0.00    +0.000 A 
ATOM     27  C   UNL     1       3.073   4.013  17.535  0.00  0.00    +0.000 A 
ATOM     28  C   UNL     1       2.434   2.657  17.501  0.00  0.00    +0.000 C 
ATOM     29  C   UNL     1       2.437   5.052  18.226  0.00  0.00    +0.000 A 
ATOM     30  C   UNL     1       2.976   6.341  18.308  0.00  0.00    +0.000 A 
ATOM     31  C   UNL     1       4.191   6.582  17.659  0.00  0.00    +0.000 A 
ENDBRANCH  18  30
ENDBRANCH  17  21
ENDBRANCH   1  17
TORSDOF 6
ENDMDL
MODEL 4
REMARK VINA RESULT:      -8.0      1.304      1.711
REMARK  Name = 
REMARK  10 active torsions:
REMARK  status: ('A' for Active; 'I' for Inactive)
REMARK    1  A    between atoms: C_1  and  C_2
REMARK    2  A    between atoms: C_4  and  C_5
REMARK    3  A    between atoms: C_7  and  N_8
REMARK    4  A    between atoms: N_11  and  C_12
REMARK    5  A    between atoms: C_12  and  C_13
REMARK    6  A    between atoms: C_13  and  N_14
REMARK    7  A    between atoms: C_19  and  S_20
REMARK    8  A    between atoms: S_20  and  N_23
REMARK    9  A    between atoms: N_23  and  C_24
REMARK   10  A    between atoms: N_23  and  C_25
REMARK                            x       y       z     vdW  Elec       q    Type
REMARK                         _______ _______ _______ _____ _____    ______ ____
ROOT
ATOM      1  C   UNL     1       2.552   1.769  20.200  0.00  0.00    +0.000 C 
ENDROOT
BRANCH   1   2
ATOM      2  N   UNL     1       2.624   2.457  18.932  0.00  0.00    +0.000 N 
ATOM      3  N   UNL     1       1.603   2.418  18.055  0.00  0.00    +0.000 NA
ATOM      4  N   UNL     1       1.958   3.137  16.998  0.00  0.00    +0.000 NA
ATOM      5  C   UNL     1       3.203   3.654  17.231  0.00  0.00    +0.000 A 
ATOM      6  C   UNL     1       4.017   4.471  16.437  0.00  0.00    +0.000 A 
ATOM      7  C   UNL     1       5.272   4.844  16.946  0.00  0.00    +0.000 A 
ATOM      8  C   UNL     1       5.687   4.468  18.230  0.00  0.00    +0.000 A 
ATOM      9  C   UNL     1       4.886   3.633  19.019  0.00  0.00    +0.000 A 
ATOM     10  C   UNL     1       3.654   3.243  18.479  0.00  0.00    +0.000 A 
BRANCH   7  11
ATOM     11  S   UNL     1       6.351   5.829  15.921  0.00  0.00    +0.000 S 
ATOM     12  O   UNL     1       5.512   6.786  15.218  0.00  0.00    +0.000 OA
ATOM     13  O   UNL     1       7.454   6.275  16.740  0.00  0.00    +0.000 OA
BRANCH  11  14
ATOM     14  N   UNL     1       6.930   4.702  14.776  0.00  0.00    +0.000 NA
ATOM     15  C   UNL     1       5.958   3.733  14.239  0.00  0.00    +0.000 C 
ATOM     16  C   UNL     1       7.801   5.255  13.720  0.00  0.00    +0.000 C 
ENDBRANCH  11  14
ENDBRANCH   7  11
ENDBRANCH   1   2
BRANCH   1  17
ATOM     17  C   UNL     1       1.806   2.526  21.311  0.00  0.00    +0.000 C 
BRANCH  17  21
ATOM     18  N   UNL     1       2.285   6.158  21.188  0.00  0.00    +0.000 N 
ATOM     19  C   UNL     1       1.696   4.929  20.970  0.00  0.00    +0.000 C 
ATOM     20  O   UNL     1       0.649   4.727  20.371  0.00  0.00    +0.000 OA
ATOM     21  N   UNL     1       2.354   3.866  21.544  0.00  0.00    +0.000 N 
ATOM     22  H   UNL     1       3.170   6.189  21.667  0.00  0.00    +0.000 HD
ATOM     23  H   UNL     1       3.328   3.955  21.798  0.00  0.00    +0.000 HD
BRANCH  18  30
ATOM     24  C   UNL     1       1.773   9.578  17.632  0.00  0.00    +0.000 C 
ATOM     25  C   UNL     1       1.467   9.093  19.019  0.00  0.00    +0.000 A 
ATOM     26  C   UNL     1       0.641   9.844  19.863  0.00  0.00    +0.000 A 
ATOM     27  C   UNL     1       0.353   9.393  21.148  0.00  0.00    +0.000 A 
ATOM     28  C   UNL     1      -0.529  10.167  22.080  0.00  0.00    +0.000 C 
ATOM     29  C   UNL     1       0.902   8.177  21.575  0.00  0.00    +0.000 A 
ATOM     30  C   UNL     1       1.727   7.396  20.759  0.00  0.00    +0.000 A 
ATOM     31  C   UNL     1       2.012   7.872  19.474  0.00  0.00    +0.000 A 
ENDBRANCH  18  30
ENDBRANCH  17  21
ENDBRANCH   1  17
TORSDOF 6
ENDMDL
MODEL 5
REMARK VINA RESULT:      -8.0      5.342     10.345
REMARK  Name = 
REMARK  10 active torsions:
REMARK  status: ('A' for Active; 'I' for Inactive)
REMARK    1  A    between atoms: C_1  and  C_2
REMARK    2  A    between atoms: C_4  and  C_5
REMARK    3  A    between atoms: C_7  and  N_8
REMARK    4  A    between atoms: N_11  and  C_12
REMARK    5  A    between atoms: C_12  and  C_13
REMARK    6  A    between atoms: C_13  and  N_14
REMARK    7  A    between atoms: C_19  and  S_20
REMARK    8  A    between atoms: S_20  and  N_23
REMARK    9  A    between atoms: N_23  and  C_24
REMARK   10  A    between atoms: N_23  and  C_25
REMARK                            x       y       z     vdW  Elec       q    Type
REMARK                         _______ _______ _______ _____ _____    ______ ____
ROOT
ATOM      1  C   UNL     1       1.067  11.642  19.541  0.00  0.00    +0.000 C 
ENDROOT
BRANCH   1   2
ATOM      2  N   UNL     1       0.413  11.441  20.813  0.00  0.00    +0.000 N 
ATOM      3  N   UNL     1       1.007  10.751  21.804  0.00  0.00    +0.000 NA
ATOM      4  N   UNL     1       0.173  10.738  22.837  0.00  0.00    +0.000 NA
ATOM      5  C   UNL     1      -0.942  11.454  22.495  0.00  0.00    +0.000 A 
ATOM      6  C   UNL     1      -2.105  11.738  23.221  0.00  0.00    +0.000 A 
ATOM      7  C   UNL     1      -3.101  12.506  22.594  0.00  0.00    +0.000 A 
ATOM      8  C   UNL     1      -2.927  13.028  21.307  0.00  0.00    +0.000 A 
ATOM      9  C   UNL     1      -1.776  12.729  20.569  0.00  0.00    +0.000 A 
ATOM     10  C   UNL     1      -0.810  11.933  21.197  0.00  0.00    +0.000 A 
BRANCH   7  11
ATOM     11  S   UNL     1      -4.618  12.820  23.480  0.00  0.00    +0.000 S 
ATOM     12  O   UNL     1      -5.697  12.777  22.505  0.00  0.00    +0.000 OA
ATOM     13  O   UNL     1      -4.638  11.961  24.642  0.00  0.00    +0.000 OA
BRANCH  11  14
ATOM     14  N   UNL     1      -4.440  14.440  23.990  0.00  0.00    +0.000 NA
ATOM     15  C   UNL     1      -3.314  14.736  24.895  0.00  0.00    +0.000 C 
ATOM     16  C   UNL     1      -4.585  15.462  22.935  0.00  0.00    +0.000 C 
ENDBRANCH  11  14
ENDBRANCH   7  11
ENDBRANCH   1   2
BRANCH   1  17
ATOM     17  C   UNL     1       0.984  10.452  18.571  0.00  0.00    +0.000 C 
BRANCH  17  21
ATOM     18  N   UNL     1       2.513   7.142  18.948  0.00  0.00    +0.000 N 
ATOM     19  C   UNL     1       2.116   8.315  18.338  0.00  0.00    +0.000 C 
ATOM     20  O   UNL     1       2.325   8.630  17.175  0.00  0.00    +0.000 OA
ATOM     21  N   UNL     1       1.474   9.204  19.168  0.00  0.00    +0.000 N 
ATOM     22  H   UNL     1       2.247   6.983  19.905  0.00  0.00    +0.000 HD
ATOM     23  H   UNL     1       1.054   8.879  20.026  0.00  0.00    +0.000 HD
BRANCH  18  30
ATOM     24  C   UNL     1       2.731   2.533  17.126  0.00  0.00    +0.000 C 
ATOM     25  C   UNL     1       3.392   3.853  17.400  0.00  0.00    +0.000 A 
ATOM     26  C   UNL     1       4.719   4.071  17.010  0.00  0.00    +0.000 A 
ATOM     27  C   UNL     1       5.331   5.295  17.259  0.00  0.00    +0.000 A 
ATOM     28  C   UNL     1       6.748   5.569  16.856  0.00  0.00    +0.000 C 
ATOM     29  C   UNL     1       4.595   6.300  17.901  0.00  0.00    +0.000 A 
ATOM     30  C   UNL     1       3.266   6.122  18.299  0.00  0.00    +0.000 A 
ATOM     31  C   UNL     1       2.671   4.880  18.048  0.00  0.00    +0.000 A 
ENDBRANCH  18  30
ENDBRANCH  17  21
ENDBRANCH   1  17
TORSDOF 6
ENDMDL
MODEL 6
REMARK VINA RESULT:      -7.9      1.398      2.406
REMARK  Name = 
REMARK  10 active torsions:
REMARK  status: ('A' for Active; 'I' for Inactive)
REMARK    1  A    between atoms: C_1  and  C_2
REMARK    2  A    between atoms: C_4  and  C_5
REMARK    3  A    between atoms: C_7  and  N_8
REMARK    4  A    between atoms: N_11  and  C_12
REMARK    5  A    between atoms: C_12  and  C_13
REMARK    6  A    between atoms: C_13  and  N_14
REMARK    7  A    between atoms: C_19  and  S_20
REMARK    8  A    between atoms: S_20  and  N_23
REMARK    9  A    between atoms: N_23  and  C_24
REMARK   10  A    between atoms: N_23  and  C_25
REMARK                            x       y       z     vdW  Elec       q    Type
REMARK                         _______ _______ _______ _____ _____    ______ ____
ROOT
ATOM      1  C   UNL     1       2.944   1.926  20.424  0.00  0.00    +0.000 C 
ENDROOT
BRANCH   1   2
ATOM      2  N   UNL     1       2.981   2.431  19.072  0.00  0.00    +0.000 N 
ATOM      3  N   UNL     1       2.024   2.114  18.179  0.00  0.00    +0.000 NA
ATOM      4  N   UNL     1       2.325   2.723  17.039  0.00  0.00    +0.000 NA
ATOM      5  C   UNL     1       3.466   3.452  17.231  0.00  0.00    +0.000 A 
ATOM      6  C   UNL     1       4.192   4.264  16.351  0.00  0.00    +0.000 A 
ATOM      7  C   UNL     1       5.351   4.892  16.838  0.00  0.00    +0.000 A 
ATOM      8  C   UNL     1       5.748   4.768  18.175  0.00  0.00    +0.000 A 
ATOM      9  C   UNL     1       5.038   3.940  19.053  0.00  0.00    +0.000 A 
ATOM     10  C   UNL     1       3.906   3.294  18.540  0.00  0.00    +0.000 A 
BRANCH   7  11
ATOM     11  S   UNL     1       6.325   5.875  15.713  0.00  0.00    +0.000 S 
ATOM     12  O   UNL     1       5.412   6.791  15.048  0.00  0.00    +0.000 OA
ATOM     13  O   UNL     1       7.471   6.373  16.439  0.00  0.00    +0.000 OA
BRANCH  11  14
ATOM     14  N   UNL     1       6.854   4.733  14.559  0.00  0.00    +0.000 NA
ATOM     15  C   UNL     1       5.824   3.873  13.949  0.00  0.00    +0.000 C 
ATOM     16  C   UNL     1       7.819   5.233  13.561  0.00  0.00    +0.000 C 
ENDBRANCH  11  14
ENDBRANCH   7  11
ENDBRANCH   1   2
BRANCH   1  17
ATOM     17  C   UNL     1       1.926   2.613  21.349  0.00  0.00    +0.000 C 
BRANCH  17  21
ATOM     18  N   UNL     1       2.180   6.270  21.339  0.00  0.00    +0.000 N 
ATOM     19  C   UNL     1       1.737   5.009  20.994  0.00  0.00    +0.000 C 
ATOM     20  O   UNL     1       0.865   4.749  20.176  0.00  0.00    +0.000 OA
ATOM     21  N   UNL     1       2.320   3.982  21.699  0.00  0.00    +0.000 N 
ATOM     22  H   UNL     1       2.933   6.349  22.003  0.00  0.00    +0.000 HD
ATOM     23  H   UNL     1       3.204   4.129  22.164  0.00  0.00    +0.000 HD
BRANCH  18  30
ATOM     24  C   UNL     1      -0.646  10.305  21.919  0.00  0.00    +0.000 C 
ATOM     25  C   UNL     1       0.261   9.467  21.065  0.00  0.00    +0.000 A 
ATOM     26  C   UNL     1       0.583   9.878  19.766  0.00  0.00    +0.000 A 
ATOM     27  C   UNL     1       1.426   9.105  18.974  0.00  0.00    +0.000 A 
ATOM     28  C   UNL     1       1.798   9.511  17.580  0.00  0.00    +0.000 C 
ATOM     29  C   UNL     1       1.946   7.916  19.502  0.00  0.00    +0.000 A 
ATOM     30  C   UNL     1       1.652   7.476  20.797  0.00  0.00    +0.000 A 
ATOM     31  C   UNL     1       0.794   8.263  21.574  0.00  0.00    +0.000 A 
ENDBRANCH  18  30
ENDBRANCH  17  21
ENDBRANCH   1  17
TORSDOF 6
ENDMDL
MODEL 7
REMARK VINA RESULT:      -7.8      4.806      8.266
REMARK  Name = 
REMARK  10 active torsions:
REMARK  status: ('A' for Active; 'I' for Inactive)
REMARK    1  A    between atoms: C_1  and  C_2
REMARK    2  A    between atoms: C_4  and  C_5
REMARK    3  A    between atoms: C_7  and  N_8
REMARK    4  A    between atoms: N_11  and  C_12
REMARK    5  A    between atoms: C_12  and  C_13
REMARK    6  A    between atoms: C_13  and  N_14
REMARK    7  A    between atoms: C_19  and  S_20
REMARK    8  A    between atoms: S_20  and  N_23
REMARK    9  A    between atoms: N_23  and  C_24
REMARK   10  A    between atoms: N_23  and  C_25
REMARK                            x       y       z     vdW  Elec       q    Type
REMARK                         _______ _______ _______ _____ _____    ______ ____
ROOT
ATOM      1  C   UNL     1       7.218   8.035  17.540  0.00  0.00    +0.000 C 
ENDROOT
BRANCH   1   2
ATOM      2  N   UNL     1       6.897   6.677  17.915  0.00  0.00    +0.000 N 
ATOM      3  N   UNL     1       7.842   5.836  18.374  0.00  0.00    +0.000 NA
ATOM      4  N   UNL     1       7.252   4.676  18.635  0.00  0.00    +0.000 NA
ATOM      5  C   UNL     1       5.917   4.805  18.363  0.00  0.00    +0.000 A 
ATOM      6  C   UNL     1       4.869   3.882  18.467  0.00  0.00    +0.000 A 
ATOM      7  C   UNL     1       3.580   4.306  18.103  0.00  0.00    +0.000 A 
ATOM      8  C   UNL     1       3.324   5.623  17.702  0.00  0.00    +0.000 A 
ATOM      9  C   UNL     1       4.372   6.543  17.574  0.00  0.00    +0.000 A 
ATOM     10  C   UNL     1       5.655   6.092  17.909  0.00  0.00    +0.000 A 
BRANCH   7  11
ATOM     11  S   UNL     1       2.244   3.125  18.166  0.00  0.00    +0.000 S 
ATOM     12  O   UNL     1       1.117   3.720  17.467  0.00  0.00    +0.000 OA
ATOM     13  O   UNL     1       2.770   1.841  17.761  0.00  0.00    +0.000 OA
BRANCH  11  14
ATOM     14  N   UNL     1       1.858   3.066  19.828  0.00  0.00    +0.000 NA
ATOM     15  C   UNL     1       2.956   2.750  20.760  0.00  0.00    +0.000 C 
ATOM     16  C   UNL     1       1.010   4.166  20.326  0.00  0.00    +0.000 C 
ENDBRANCH  11  14
ENDBRANCH   7  11
ENDBRANCH   1   2
BRANCH   1  17
ATOM     17  C   UNL     1       8.488   8.607  18.189  0.00  0.00    +0.000 C 
BRANCH  17  21
ATOM     18  N   UNL     1       9.133  12.174  18.739  0.00  0.00    +0.000 N 
ATOM     19  C   UNL     1       9.051  10.823  19.011  0.00  0.00    +0.000 C 
ATOM     20  O   UNL     1       9.350  10.280  20.066  0.00  0.00    +0.000 OA
ATOM     21  N   UNL     1       8.641  10.047  17.952  0.00  0.00    +0.000 N 
ATOM     22  H   UNL     1       8.821  12.502  17.840  0.00  0.00    +0.000 HD
ATOM     23  H   UNL     1       8.139  10.469  17.184  0.00  0.00    +0.000 HD
BRANCH  18  30
ATOM     24  C   UNL     1       8.783  14.350  23.182  0.00  0.00    +0.000 C 
ATOM     25  C   UNL     1       9.455  14.230  21.845  0.00  0.00    +0.000 A 
ATOM     26  C   UNL     1      10.540  15.055  21.525  0.00  0.00    +0.000 A 
ATOM     27  C   UNL     1      11.166  14.942  20.288  0.00  0.00    +0.000 A 
ATOM     28  C   UNL     1      12.332  15.804  19.908  0.00  0.00    +0.000 C 
ATOM     29  C   UNL     1      10.692  13.990  19.375  0.00  0.00    +0.000 A 
ATOM     30  C   UNL     1       9.615  13.145  19.661  0.00  0.00    +0.000 A 
ATOM     31  C   UNL     1       8.993  13.280  20.908  0.00  0.00    +0.000 A 
ENDBRANCH  18  30
ENDBRANCH  17  21
ENDBRANCH   1  17
TORSDOF 6
ENDMDL
MODEL 8
REMARK VINA RESULT:      -7.8      5.583     10.608
REMARK  Name = 
REMARK  10 active torsions:
REMARK  status: ('A' for Active; 'I' for Inactive)
REMARK    1  A    between atoms: C_1  and  C_2
REMARK    2  A    between atoms: C_4  and  C_5
REMARK    3  A    between atoms: C_7  and  N_8
REMARK    4  A    between atoms: N_11  and  C_12
REMARK    5  A    between atoms: C_12  and  C_13
REMARK    6  A    between atoms: C_13  and  N_14
REMARK    7  A    between atoms: C_19  and  S_20
REMARK    8  A    between atoms: S_20  and  N_23
REMARK    9  A    between atoms: N_23  and  C_24
REMARK   10  A    between atoms: N_23  and  C_25
REMARK                            x       y       z     vdW  Elec       q    Type
REMARK                         _______ _______ _______ _____ _____    ______ ____
ROOT
ATOM      1  C   UNL     1      -0.037  11.019  18.982  0.00  0.00    +0.000 C 
ENDROOT
BRANCH   1   2
ATOM      2  N   UNL     1      -0.287  11.177  20.396  0.00  0.00    +0.000 N 
ATOM      3  N   UNL     1       0.620  10.797  21.315  0.00  0.00    +0.000 NA
ATOM      4  N   UNL     1       0.114  11.066  22.512  0.00  0.00    +0.000 NA
ATOM      5  C   UNL     1      -1.112  11.648  22.336  0.00  0.00    +0.000 A 
ATOM      6  C   UNL     1      -2.046  12.113  23.270  0.00  0.00    +0.000 A 
ATOM      7  C   UNL     1      -3.243  12.665  22.785  0.00  0.00    +0.000 A 
ATOM      8  C   UNL     1      -3.485  12.809  21.413  0.00  0.00    +0.000 A 
ATOM      9  C   UNL     1      -2.565  12.325  20.476  0.00  0.00    +0.000 A 
ATOM     10  C   UNL     1      -1.393  11.746  20.979  0.00  0.00    +0.000 A 
BRANCH   7  11
ATOM     11  S   UNL     1      -4.473  13.201  23.961  0.00  0.00    +0.000 S 
ATOM     12  O   UNL     1      -4.831  12.041  24.761  0.00  0.00    +0.000 OA
ATOM     13  O   UNL     1      -3.989  14.410  24.588  0.00  0.00    +0.000 OA
BRANCH  11  14
ATOM     14  N   UNL     1      -5.811  13.588  22.972  0.00  0.00    +0.000 NA
ATOM     15  C   UNL     1      -6.943  12.643  22.978  0.00  0.00    +0.000 C 
ATOM     16  C   UNL     1      -6.262  14.992  23.028  0.00  0.00    +0.000 C 
ENDBRANCH  11  14
ENDBRANCH   7  11
ENDBRANCH   1   2
BRANCH   1  17
ATOM     17  C   UNL     1       1.366  10.504  18.623  0.00  0.00    +0.000 C 
BRANCH  17  21
ATOM     18  N   UNL     1       2.385   6.986  18.770  0.00  0.00    +0.000 N 
ATOM     19  C   UNL     1       2.223   8.260  18.263  0.00  0.00    +0.000 C 
ATOM     20  O   UNL     1       2.612   8.657  17.173  0.00  0.00    +0.000 OA
ATOM     21  N   UNL     1       1.610   9.145  19.118  0.00  0.00    +0.000 N 
ATOM     22  H   UNL     1       1.985   6.772  19.668  0.00  0.00    +0.000 HD
ATOM     23  H   UNL     1       1.049   8.799  19.884  0.00  0.00    +0.000 HD
BRANCH  18  30
ATOM     24  C   UNL     1       2.803   2.149  17.751  0.00  0.00    +0.000 C 
ATOM     25  C   UNL     1       3.291   3.559  17.579  0.00  0.00    +0.000 A 
ATOM     26  C   UNL     1       4.390   3.829  16.755  0.00  0.00    +0.000 A 
ATOM     27  C   UNL     1       4.841   5.135  16.592  0.00  0.00    +0.000 A 
ATOM     28  C   UNL     1       6.012   5.466  15.718  0.00  0.00    +0.000 C 
ATOM     29  C   UNL     1       4.173   6.168  17.263  0.00  0.00    +0.000 A 
ATOM     30  C   UNL     1       3.068   5.938  18.089  0.00  0.00    +0.000 A 
ATOM     31  C   UNL     1       2.637   4.617  18.248  0.00  0.00    +0.000 A 
ENDBRANCH  18  30
ENDBRANCH  17  21
ENDBRANCH   1  17
TORSDOF 6
ENDMDL
MODEL 9
REMARK VINA RESULT:      -7.8      1.605      2.779
REMARK  Name = 
REMARK  10 active torsions:
REMARK  status: ('A' for Active; 'I' for Inactive)
REMARK    1  A    between atoms: C_1  and  C_2
REMARK    2  A    between atoms: C_4  and  C_5
REMARK    3  A    between atoms: C_7  and  N_8
REMARK    4  A    between atoms: N_11  and  C_12
REMARK    5  A    between atoms: C_12  and  C_13
REMARK    6  A    between atoms: C_13  and  N_14
REMARK    7  A    between atoms: C_19  and  S_20
REMARK    8  A    between atoms: S_20  and  N_23
REMARK    9  A    between atoms: N_23  and  C_24
REMARK   10  A    between atoms: N_23  and  C_25
REMARK                            x       y       z     vdW  Elec       q    Type
REMARK                         _______ _______ _______ _____ _____    ______ ____
ROOT
ATOM      1  C   UNL     1       2.201   1.906  19.735  0.00  0.00    +0.000 C 
ENDROOT
BRANCH   1   2
ATOM      2  N   UNL     1       3.514   2.475  19.542  0.00  0.00    +0.000 N 
ATOM      3  N   UNL     1       4.513   2.246  20.415  0.00  0.00    +0.000 NA
ATOM      4  N   UNL     1       5.585   2.891  19.973  0.00  0.00    +0.000 NA
ATOM      5  C   UNL     1       5.259   3.506  18.795  0.00  0.00    +0.000 A 
ATOM      6  C   UNL     1       6.026   4.305  17.938  0.00  0.00    +0.000 A 
ATOM      7  C   UNL     1       5.408   4.812  16.783  0.00  0.00    +0.000 A 
ATOM      8  C   UNL     1       4.085   4.491  16.454  0.00  0.00    +0.000 A 
ATOM      9  C   UNL     1       3.308   3.711  17.319  0.00  0.00    +0.000 A 
ATOM     10  C   UNL     1       3.931   3.243  18.483  0.00  0.00    +0.000 A 
BRANCH   7  11
ATOM     11  S   UNL     1       6.349   5.887  15.713  0.00  0.00    +0.000 S 
ATOM     12  O   UNL     1       5.396   6.739  15.021  0.00  0.00    +0.000 OA
ATOM     13  O   UNL     1       7.421   6.459  16.495  0.00  0.00    +0.000 OA
BRANCH  11  14
ATOM     14  N   UNL     1       7.013   4.808  14.569  0.00  0.00    +0.000 NA
ATOM     15  C   UNL     1       6.156   3.694  14.122  0.00  0.00    +0.000 C 
ATOM     16  C   UNL     1       7.736   5.434  13.445  0.00  0.00    +0.000 C 
ENDBRANCH  11  14
ENDBRANCH   7  11
ENDBRANCH   1   2
BRANCH   1  17
ATOM     17  C   UNL     1       1.397   2.505  20.900  0.00  0.00    +0.000 C 
BRANCH  17  21
ATOM     18  N   UNL     1       2.029   6.104  21.191  0.00  0.00    +0.000 N 
ATOM     19  C   UNL     1       1.450   4.929  20.754  0.00  0.00    +0.000 C 
ATOM     20  O   UNL     1       0.541   4.832  19.942  0.00  0.00    +0.000 OA
ATOM     21  N   UNL     1       1.937   3.792  21.353  0.00  0.00    +0.000 N 
ATOM     22  H   UNL     1       2.798   6.049  21.838  0.00  0.00    +0.000 HD
ATOM     23  H   UNL     1       2.841   3.807  21.804  0.00  0.00    +0.000 HD
BRANCH  18  30
ATOM     24  C   UNL     1      -0.265  10.379  22.223  0.00  0.00    +0.000 C 
ATOM     25  C   UNL     1       0.489   9.511  21.258  0.00  0.00    +0.000 A 
ATOM     26  C   UNL     1       0.786   9.980  19.973  0.00  0.00    +0.000 A 
ATOM     27  C   UNL     1       1.488   9.178  19.079  0.00  0.00    +0.000 A 
ATOM     28  C   UNL     1       1.829   9.643  17.696  0.00  0.00    +0.000 C 
ATOM     29  C   UNL     1       1.892   7.900  19.490  0.00  0.00    +0.000 A 
ATOM     30  C   UNL     1       1.618   7.400  20.768  0.00  0.00    +0.000 A 
ATOM     31  C   UNL     1       0.902   8.219  21.649  0.00  0.00    +0.000 A 
ENDBRANCH  18  30
ENDBRANCH  17  21
ENDBRANCH   1  17
TORSDOF 6
ENDMDL
