MODEL 1
REMARK VINA RESULT:      -8.7      0.000      0.000
REMARK  Name = 
REMARK  4 active torsions:
REMARK  status: ('A' for Active; 'I' for Inactive)
REMARK    1  A    between atoms: C_2  and  C_3
REMARK    2  A    between atoms: C_4  and  O_5
REMARK    3  A    between atoms: C_12  and  O_13
REMARK    4  A    between atoms: C_21  and  C_22
REMARK                            x       y       z     vdW  Elec       q    Type
REMARK                         _______ _______ _______ _____ _____    ______ ____
ROOT
ATOM      1  C   UNL     1       3.624   3.408  20.068  0.00  0.00    +0.000 A 
ATOM      2  C   UNL     1       2.620   3.462  21.080  0.00  0.00    +0.000 A 
ATOM      3  N   UNL     1       1.780   4.493  21.348  0.00  0.00    +0.000 NA
ATOM      4  C   UNL     1       1.952   5.543  20.518  0.00  0.00    +0.000 A 
ATOM      5  N   UNL     1       1.312   6.708  20.613  0.00  0.00    +0.000 NA
ATOM      6  N   UNL     1       1.832   7.427  19.606  0.00  0.00    +0.000 N 
ATOM      7  C   UNL     1       1.546   8.774  19.371  0.00  0.00    +0.000 A 
ATOM      8  C   UNL     1       0.648   9.515  20.148  0.00  0.00    +0.000 A 
ATOM      9  C   UNL     1       0.453  10.852  19.809  0.00  0.00    +0.000 A 
ATOM     10  C   UNL     1       1.147  11.439  18.751  0.00  0.00    +0.000 A 
ATOM     11  C   UNL     1       2.050  10.680  18.003  0.00  0.00    +0.000 A 
ATOM     12  C   UNL     1       2.247   9.330  18.298  0.00  0.00    +0.000 A 
ATOM     13  N   UNL     1       3.119   8.572  17.485  0.00  0.00    +0.000 NA
ATOM     14  N   UNL     1       3.261   7.346  17.721  0.00  0.00    +0.000 NA
ATOM     15  C   UNL     1       2.724   6.740  18.814  0.00  0.00    +0.000 A 
ATOM     16  C   UNL     1       2.891   5.512  19.428  0.00  0.00    +0.000 A 
ATOM     17  C   UNL     1       3.777   4.450  19.102  0.00  0.00    +0.000 A 
ENDROOT
BRANCH  17  18
ATOM     18  C   UNL     1       4.736   4.470  17.967  0.00  0.00    +0.000 A 
ATOM     19  C   UNL     1       4.343   3.963  16.708  0.00  0.00    +0.000 A 
ATOM     20  C   UNL     1       5.238   3.821  15.641  0.00  0.00    +0.000 A 
ATOM     21  C   UNL     1       6.525   4.322  15.745  0.00  0.00    +0.000 A 
ATOM     22  C   UNL     1       6.928   4.918  16.934  0.00  0.00    +0.000 A 
ATOM     23  C   UNL     1       6.070   4.938  18.048  0.00  0.00    +0.000 A 
ATOM     24 CL   UNL     1       6.796   5.468  19.531  0.00  0.00    +0.000 Cl
ENDBRANCH  17  18
BRANCH   1  26
ATOM     25  N   UNL     1       5.230   1.376  20.236  0.00  0.00    +0.000 NA
ATOM     26  C   UNL     1       4.528   2.294  20.112  0.00  0.00    +0.000 C 
ENDBRANCH   1  26
BRANCH   2  27
ATOM     27  O   UNL     1       2.410   2.413  21.942  0.00  0.00    +0.000 OA
ATOM     28  H   UNL     1       2.169   1.601  21.467  0.00  0.00    +0.000 HD
ENDBRANCH   2  27
BRANCH   9  29
ATOM     29  O   UNL     1      -0.422  11.639  20.491  0.00  0.00    +0.000 OA
ATOM     30  H   UNL     1       0.078  12.300  21.011  0.00  0.00    +0.000 HD
ENDBRANCH   9  29
TORSDOF 4
ENDMDL
MODEL 2
REMARK VINA RESULT:      -8.2      1.068      1.399
REMARK  Name = 
REMARK  4 active torsions:
REMARK  status: ('A' for Active; 'I' for Inactive)
REMARK    1  A    between atoms: C_2  and  C_3
REMARK    2  A    between atoms: C_4  and  O_5
REMARK    3  A    between atoms: C_12  and  O_13
REMARK    4  A    between atoms: C_21  and  C_22
REMARK                            x       y       z     vdW  Elec       q    Type
REMARK                         _______ _______ _______ _____ _____    ______ ____
ROOT
ATOM      1  C   UNL     1       3.735   3.208  20.291  0.00  0.00    +0.000 A 
ATOM      2  C   UNL     1       2.722   3.278  21.294  0.00  0.00    +0.000 A 
ATOM      3  N   UNL     1       1.868   4.304  21.527  0.00  0.00    +0.000 NA
ATOM      4  C   UNL     1       2.035   5.335  20.672  0.00  0.00    +0.000 A 
ATOM      5  N   UNL     1       1.381   6.494  20.731  0.00  0.00    +0.000 NA
ATOM      6  N   UNL     1       1.900   7.192  19.710  0.00  0.00    +0.000 N 
ATOM      7  C   UNL     1       1.600   8.529  19.437  0.00  0.00    +0.000 A 
ATOM      8  C   UNL     1       0.687   9.280  20.186  0.00  0.00    +0.000 A 
ATOM      9  C   UNL     1       0.480  10.605  19.811  0.00  0.00    +0.000 A 
ATOM     10  C   UNL     1       1.175  11.172  18.744  0.00  0.00    +0.000 A 
ATOM     11  C   UNL     1       2.094  10.405  18.022  0.00  0.00    +0.000 A 
ATOM     12  C   UNL     1       2.304   9.065  18.355  0.00  0.00    +0.000 A 
ATOM     13  N   UNL     1       3.191   8.297  17.569  0.00  0.00    +0.000 NA
ATOM     14  N   UNL     1       3.346   7.079  17.838  0.00  0.00    +0.000 NA
ATOM     15  C   UNL     1       2.807   6.496  18.943  0.00  0.00    +0.000 A 
ATOM     16  C   UNL     1       2.982   5.286  19.591  0.00  0.00    +0.000 A 
ATOM     17  C   UNL     1       3.884   4.226  19.300  0.00  0.00    +0.000 A 
ENDROOT
BRANCH  17  18
ATOM     18  C   UNL     1       4.852   4.228  18.172  0.00  0.00    +0.000 A 
ATOM     19  C   UNL     1       6.163   4.713  18.374  0.00  0.00    +0.000 A 
ATOM     20  C   UNL     1       7.076   4.875  17.325  0.00  0.00    +0.000 A 
ATOM     21  C   UNL     1       6.763   4.415  16.057  0.00  0.00    +0.000 A 
ATOM     22  C   UNL     1       5.517   3.840  15.831  0.00  0.00    +0.000 A 
ATOM     23  C   UNL     1       4.554   3.802  16.855  0.00  0.00    +0.000 A 
ATOM     24 CL   UNL     1       2.968   3.305  16.359  0.00  0.00    +0.000 Cl
ENDBRANCH  17  18
BRANCH   1  26
ATOM     25  N   UNL     1       5.345   1.184  20.512  0.00  0.00    +0.000 NA
ATOM     26  C   UNL     1       4.651   2.107  20.371  0.00  0.00    +0.000 C 
ENDBRANCH   1  26
BRANCH   2  27
ATOM     27  O   UNL     1       2.517   2.248  22.181  0.00  0.00    +0.000 OA
ATOM     28  H   UNL     1       1.573   2.117  22.368  0.00  0.00    +0.000 HD
ENDBRANCH   2  27
BRANCH   9  29
ATOM     29  O   UNL     1      -0.410  11.399  20.465  0.00  0.00    +0.000 OA
ATOM     30  H   UNL     1      -0.256  12.331  20.212  0.00  0.00    +0.000 HD
ENDBRANCH   9  29
TORSDOF 4
ENDMDL
MODEL 3
REMARK VINA RESULT:      -6.7      2.604      4.422
REMARK  Name = 
REMARK  4 active torsions:
REMARK  status: ('A' for Active; 'I' for Inactive)
REMARK    1  A    between atoms: C_2  and  C_3
REMARK    2  A    between atoms: C_4  and  O_5
REMARK    3  A    between atoms: C_12  and  O_13
REMARK    4  A    between atoms: C_21  and  C_22
REMARK                            x       y       z     vdW  Elec       q    Type
REMARK                         _______ _______ _______ _____ _____    ______ ____
ROOT
ATOM      1  C   UNL     1       3.779   5.348  17.678  0.00  0.00    +0.000 A 
ATOM      2  C   UNL     1       4.337   6.383  16.868  0.00  0.00    +0.000 A 
ATOM      3  N   UNL     1       4.061   7.708  16.928  0.00  0.00    +0.000 NA
ATOM      4  C   UNL     1       3.167   8.019  17.890  0.00  0.00    +0.000 A 
ATOM      5  N   UNL     1       2.667   9.235  18.107  0.00  0.00    +0.000 NA
ATOM      6  N   UNL     1       1.816   9.039  19.126  0.00  0.00    +0.000 N 
ATOM      7  C   UNL     1       0.962  10.018  19.639  0.00  0.00    +0.000 A 
ATOM      8  C   UNL     1       0.929  11.334  19.163  0.00  0.00    +0.000 A 
ATOM      9  C   UNL     1       0.028  12.213  19.759  0.00  0.00    +0.000 A 
ATOM     10  C   UNL     1      -0.828  11.793  20.776  0.00  0.00    +0.000 A 
ATOM     11  C   UNL     1      -0.786  10.469  21.221  0.00  0.00    +0.000 A 
ATOM     12  C   UNL     1       0.125   9.569  20.664  0.00  0.00    +0.000 A 
ATOM     13  N   UNL     1       0.188   8.255  21.177  0.00  0.00    +0.000 NA
ATOM     14  N   UNL     1       1.040   7.458  20.709  0.00  0.00    +0.000 NA
ATOM     15  C   UNL     1       1.811   7.756  19.629  0.00  0.00    +0.000 A 
ATOM     16  C   UNL     1       2.636   7.030  18.789  0.00  0.00    +0.000 A 
ATOM     17  C   UNL     1       2.909   5.635  18.773  0.00  0.00    +0.000 A 
ENDROOT
BRANCH  17  18
ATOM     18  C   UNL     1       2.326   4.651  19.722  0.00  0.00    +0.000 A 
ATOM     19  C   UNL     1       2.835   4.558  21.037  0.00  0.00    +0.000 A 
ATOM     20  C   UNL     1       2.431   3.561  21.932  0.00  0.00    +0.000 A 
ATOM     21  C   UNL     1       1.391   2.709  21.597  0.00  0.00    +0.000 A 
ATOM     22  C   UNL     1       0.794   2.826  20.348  0.00  0.00    +0.000 A 
ATOM     23  C   UNL     1       1.291   3.740  19.402  0.00  0.00    +0.000 A 
ATOM     24 CL   UNL     1       0.625   3.589  17.807  0.00  0.00    +0.000 Cl
ENDBRANCH  17  18
BRANCH   1  26
ATOM     25  N   UNL     1       4.258   2.874  17.055  0.00  0.00    +0.000 NA
ATOM     26  C   UNL     1       4.069   3.996  17.291  0.00  0.00    +0.000 C 
ENDBRANCH   1  26
BRANCH   2  27
ATOM     27  O   UNL     1       5.253   6.108  15.882  0.00  0.00    +0.000 OA
ATOM     28  H   UNL     1       5.743   5.289  16.063  0.00  0.00    +0.000 HD
ENDBRANCH   2  27
BRANCH   9  29
ATOM     29  O   UNL     1      -0.051  13.517  19.378  0.00  0.00    +0.000 OA
ATOM     30  H   UNL     1       0.228  14.086  20.123  0.00  0.00    +0.000 HD
ENDBRANCH   9  29
TORSDOF 4
ENDMDL
MODEL 4
REMARK VINA RESULT:      -6.5      9.294     11.336
REMARK  Name = 
REMARK  4 active torsions:
REMARK  status: ('A' for Active; 'I' for Inactive)
REMARK    1  A    between atoms: C_2  and  C_3
REMARK    2  A    between atoms: C_4  and  O_5
REMARK    3  A    between atoms: C_12  and  O_13
REMARK    4  A    between atoms: C_21  and  C_22
REMARK                            x       y       z     vdW  Elec       q    Type
REMARK                         _______ _______ _______ _____ _____    ______ ____
ROOT
ATOM      1  C   UNL     1       5.670  15.295  22.413  0.00  0.00    +0.000 A 
ATOM      2  C   UNL     1       5.432  16.007  21.199  0.00  0.00    +0.000 A 
ATOM      3  N   UNL     1       6.103  15.878  20.028  0.00  0.00    +0.000 NA
ATOM      4  C   UNL     1       7.078  14.946  20.078  0.00  0.00    +0.000 A 
ATOM      5  N   UNL     1       7.933  14.679  19.092  0.00  0.00    +0.000 NA
ATOM      6  N   UNL     1       8.714  13.720  19.614  0.00  0.00    +0.000 N 
ATOM      7  C   UNL     1       9.842  13.192  18.983  0.00  0.00    +0.000 A 
ATOM      8  C   UNL     1      10.262  13.585  17.707  0.00  0.00    +0.000 A 
ATOM      9  C   UNL     1      11.407  12.982  17.190  0.00  0.00    +0.000 A 
ATOM     10  C   UNL     1      12.124  12.040  17.927  0.00  0.00    +0.000 A 
ATOM     11  C   UNL     1      11.691  11.678  19.206  0.00  0.00    +0.000 A 
ATOM     12  C   UNL     1      10.532  12.242  19.741  0.00  0.00    +0.000 A 
ATOM     13  N   UNL     1      10.084  11.811  21.010  0.00  0.00    +0.000 NA
ATOM     14  N   UNL     1       9.016  12.283  21.472  0.00  0.00    +0.000 NA
ATOM     15  C   UNL     1       8.341  13.301  20.872  0.00  0.00    +0.000 A 
ATOM     16  C   UNL     1       7.308  14.141  21.247  0.00  0.00    +0.000 A 
ATOM     17  C   UNL     1       6.620  14.231  22.488  0.00  0.00    +0.000 A 
ENDROOT
BRANCH  17  18
ATOM     18  C   UNL     1       6.901  13.378  23.673  0.00  0.00    +0.000 A 
ATOM     19  C   UNL     1       6.176  12.181  23.863  0.00  0.00    +0.000 A 
ATOM     20  C   UNL     1       6.289  11.408  25.024  0.00  0.00    +0.000 A 
ATOM     21  C   UNL     1       7.246  11.723  25.975  0.00  0.00    +0.000 A 
ATOM     22  C   UNL     1       8.052  12.840  25.784  0.00  0.00    +0.000 A 
ATOM     23  C   UNL     1       7.843  13.689  24.682  0.00  0.00    +0.000 A 
ATOM     24 CL   UNL     1       8.736  15.176  24.716  0.00  0.00    +0.000 Cl
ENDBRANCH  17  18
BRANCH   1  26
ATOM     25  N   UNL     1       4.348  16.042  24.518  0.00  0.00    +0.000 NA
ATOM     26  C   UNL     1       4.968  15.751  23.579  0.00  0.00    +0.000 C 
ENDBRANCH   1  26
BRANCH   2  27
ATOM     27  O   UNL     1       4.446  16.960  21.106  0.00  0.00    +0.000 OA
ATOM     28  H   UNL     1       3.612  16.654  21.499  0.00  0.00    +0.000 HD
ENDBRANCH   2  27
BRANCH   9  29
ATOM     29  O   UNL     1      11.870  13.283  15.947  0.00  0.00    +0.000 OA
ATOM     30  H   UNL     1      12.527  14.004  16.015  0.00  0.00    +0.000 HD
ENDBRANCH   9  29
TORSDOF 4
ENDMDL
MODEL 5
REMARK VINA RESULT:      -6.4      9.000     11.148
REMARK  Name = 
REMARK  4 active torsions:
REMARK  status: ('A' for Active; 'I' for Inactive)
REMARK    1  A    between atoms: C_2  and  C_3
REMARK    2  A    between atoms: C_4  and  O_5
REMARK    3  A    between atoms: C_12  and  O_13
REMARK    4  A    between atoms: C_21  and  C_22
REMARK                            x       y       z     vdW  Elec       q    Type
REMARK                         _______ _______ _______ _____ _____    ______ ____
ROOT
ATOM      1  C   UNL     1       9.623  16.071  19.260  0.00  0.00    +0.000 A 
ATOM      2  C   UNL     1       9.015  17.204  19.880  0.00  0.00    +0.000 A 
ATOM      3  N   UNL     1       8.305  17.224  21.035  0.00  0.00    +0.000 NA
ATOM      4  C   UNL     1       8.217  16.013  21.621  0.00  0.00    +0.000 A 
ATOM      5  N   UNL     1       7.512  15.743  22.720  0.00  0.00    +0.000 NA
ATOM      6  N   UNL     1       7.707  14.426  22.893  0.00  0.00    +0.000 N 
ATOM      7  C   UNL     1       7.068  13.657  23.869  0.00  0.00    +0.000 A 
ATOM      8  C   UNL     1       6.175  14.192  24.805  0.00  0.00    +0.000 A 
ATOM      9  C   UNL     1       5.603  13.316  25.725  0.00  0.00    +0.000 A 
ATOM     10  C   UNL     1       5.889  11.952  25.699  0.00  0.00    +0.000 A 
ATOM     11  C   UNL     1       6.771  11.441  24.743  0.00  0.00    +0.000 A 
ATOM     12  C   UNL     1       7.384  12.297  23.825  0.00  0.00    +0.000 A 
ATOM     13  N   UNL     1       8.318  11.762  22.911  0.00  0.00    +0.000 NA
ATOM     14  N   UNL     1       8.905  12.538  22.115  0.00  0.00    +0.000 NA
ATOM     15  C   UNL     1       8.577  13.853  21.993  0.00  0.00    +0.000 A 
ATOM     16  C   UNL     1       8.879  14.853  21.087  0.00  0.00    +0.000 A 
ATOM     17  C   UNL     1       9.645  14.790  19.891  0.00  0.00    +0.000 A 
ENDROOT
BRANCH  17  18
ATOM     18  C   UNL     1      10.305  13.561  19.376  0.00  0.00    +0.000 A 
ATOM     19  C   UNL     1      11.598  13.218  19.828  0.00  0.00    +0.000 A 
ATOM     20  C   UNL     1      12.331  12.159  19.279  0.00  0.00    +0.000 A 
ATOM     21  C   UNL     1      11.737  11.308  18.362  0.00  0.00    +0.000 A 
ATOM     22  C   UNL     1      10.429  11.550  17.959  0.00  0.00    +0.000 A 
ATOM     23  C   UNL     1       9.744  12.691  18.410  0.00  0.00    +0.000 A 
ATOM     24 CL   UNL     1       8.231  13.004  17.622  0.00  0.00    +0.000 Cl
ENDBRANCH  17  18
BRANCH   1  26
ATOM     25  N   UNL     1      10.482  16.452  16.841  0.00  0.00    +0.000 NA
ATOM     26  C   UNL     1      10.143  16.259  17.936  0.00  0.00    +0.000 C 
ENDBRANCH   1  26
BRANCH   2  27
ATOM     27  O   UNL     1       9.086  18.456  19.317  0.00  0.00    +0.000 OA
ATOM     28  H   UNL     1       8.578  19.108  19.826  0.00  0.00    +0.000 HD
ENDBRANCH   2  27
BRANCH   9  29
ATOM     29  O   UNL     1       4.747  13.754  26.687  0.00  0.00    +0.000 OA
ATOM     30  H   UNL     1       4.216  13.000  27.011  0.00  0.00    +0.000 HD
ENDBRANCH   9  29
TORSDOF 4
ENDMDL
MODEL 6
REMARK VINA RESULT:      -6.3      2.579      4.211
REMARK  Name = 
REMARK  4 active torsions:
REMARK  status: ('A' for Active; 'I' for Inactive)
REMARK    1  A    between atoms: C_2  and  C_3
REMARK    2  A    between atoms: C_4  and  O_5
REMARK    3  A    between atoms: C_12  and  O_13
REMARK    4  A    between atoms: C_21  and  C_22
REMARK                            x       y       z     vdW  Elec       q    Type
REMARK                         _______ _______ _______ _____ _____    ______ ____
ROOT
ATOM      1  C   UNL     1       4.605   5.314  16.757  0.00  0.00    +0.000 A 
ATOM      2  C   UNL     1       4.816   6.552  16.080  0.00  0.00    +0.000 A 
ATOM      3  N   UNL     1       4.300   7.763  16.405  0.00  0.00    +0.000 NA
ATOM      4  C   UNL     1       3.526   7.727  17.509  0.00  0.00    +0.000 A 
ATOM      5  N   UNL     1       2.839   8.760  17.997  0.00  0.00    +0.000 NA
ATOM      6  N   UNL     1       2.214   8.237  19.063  0.00  0.00    +0.000 N 
ATOM      7  C   UNL     1       1.277   8.922  19.841  0.00  0.00    +0.000 A 
ATOM      8  C   UNL     1       0.915  10.254  19.611  0.00  0.00    +0.000 A 
ATOM      9  C   UNL     1      -0.035  10.820  20.459  0.00  0.00    +0.000 A 
ATOM     10  C   UNL     1      -0.622  10.079  21.484  0.00  0.00    +0.000 A 
ATOM     11  C   UNL     1      -0.254   8.746  21.681  0.00  0.00    +0.000 A 
ATOM     12  C   UNL     1       0.716   8.157  20.867  0.00  0.00    +0.000 A 
ATOM     13  N   UNL     1       1.114   6.827  21.130  0.00  0.00    +0.000 NA
ATOM     14  N   UNL     1       2.019   6.312  20.427  0.00  0.00    +0.000 NA
ATOM     15  C   UNL     1       2.538   6.925  19.329  0.00  0.00    +0.000 A 
ATOM     16  C   UNL     1       3.345   6.526  18.279  0.00  0.00    +0.000 A 
ATOM     17  C   UNL     1       3.879   5.242  17.986  0.00  0.00    +0.000 A 
ENDROOT
BRANCH  17  18
ATOM     18  C   UNL     1       3.656   4.026  18.812  0.00  0.00    +0.000 A 
ATOM     19  C   UNL     1       4.713   3.503  19.589  0.00  0.00    +0.000 A 
ATOM     20  C   UNL     1       4.613   2.287  20.274  0.00  0.00    +0.000 A 
ATOM     21  C   UNL     1       3.399   1.621  20.331  0.00  0.00    +0.000 A 
ATOM     22  C   UNL     1       2.303   2.151  19.660  0.00  0.00    +0.000 A 
ATOM     23  C   UNL     1       2.441   3.300  18.863  0.00  0.00    +0.000 A 
ATOM     24 CL   UNL     1       1.066   3.688  17.880  0.00  0.00    +0.000 Cl
ENDBRANCH  17  18
BRANCH   1  26
ATOM     25  N   UNL     1       5.551   3.221  15.548  0.00  0.00    +0.000 NA
ATOM     26  C   UNL     1       5.087   4.129  16.107  0.00  0.00    +0.000 C 
ENDBRANCH   1  26
BRANCH   2  27
ATOM     27  O   UNL     1       5.601   6.631  14.955  0.00  0.00    +0.000 OA
ATOM     28  H   UNL     1       6.071   7.479  14.903  0.00  0.00    +0.000 HD
ENDBRANCH   2  27
BRANCH   9  29
ATOM     29  O   UNL     1      -0.425  12.116  20.326  0.00  0.00    +0.000 OA
ATOM     30  H   UNL     1      -0.002  12.499  19.532  0.00  0.00    +0.000 HD
ENDBRANCH   9  29
TORSDOF 4
ENDMDL
MODEL 7
REMARK VINA RESULT:      -6.3      5.907      8.936
REMARK  Name = 
REMARK  4 active torsions:
REMARK  status: ('A' for Active; 'I' for Inactive)
REMARK    1  A    between atoms: C_2  and  C_3
REMARK    2  A    between atoms: C_4  and  O_5
REMARK    3  A    between atoms: C_12  and  O_13
REMARK    4  A    between atoms: C_21  and  C_22
REMARK                            x       y       z     vdW  Elec       q    Type
REMARK                         _______ _______ _______ _____ _____    ______ ____
ROOT
ATOM      1  C   UNL     1      -0.132  10.304  20.700  0.00  0.00    +0.000 A 
ATOM      2  C   UNL     1       0.254  10.368  22.073  0.00  0.00    +0.000 A 
ATOM      3  N   UNL     1      -0.307  11.124  23.048  0.00  0.00    +0.000 NA
ATOM      4  C   UNL     1      -1.351  11.859  22.611  0.00  0.00    +0.000 A 
ATOM      5  N   UNL     1      -2.027  12.743  23.346  0.00  0.00    +0.000 NA
ATOM      6  N   UNL     1      -2.934  13.228  22.483  0.00  0.00    +0.000 N 
ATOM      7  C   UNL     1      -3.809  14.278  22.770  0.00  0.00    +0.000 A 
ATOM      8  C   UNL     1      -3.860  14.917  24.014  0.00  0.00    +0.000 A 
ATOM      9  C   UNL     1      -4.778  15.954  24.169  0.00  0.00    +0.000 A 
ATOM     10  C   UNL     1      -5.599  16.358  23.117  0.00  0.00    +0.000 A 
ATOM     11  C   UNL     1      -5.515  15.713  21.880  0.00  0.00    +0.000 A 
ATOM     12  C   UNL     1      -4.626  14.651  21.699  0.00  0.00    +0.000 A 
ATOM     13  N   UNL     1      -4.608  13.978  20.458  0.00  0.00    +0.000 NA
ATOM     14  N   UNL     1      -3.842  12.993  20.309  0.00  0.00    +0.000 NA
ATOM     15  C   UNL     1      -2.920  12.631  21.242  0.00  0.00    +0.000 A 
ATOM     16  C   UNL     1      -1.837  11.771  21.261  0.00  0.00    +0.000 A 
ATOM     17  C   UNL     1      -1.291  10.982  20.212  0.00  0.00    +0.000 A 
ENDROOT
BRANCH  17  18
ATOM     18  C   UNL     1      -1.827  10.932  18.826  0.00  0.00    +0.000 A 
ATOM     19  C   UNL     1      -2.609   9.829  18.417  0.00  0.00    +0.000 A 
ATOM     20  C   UNL     1      -3.022   9.651  17.092  0.00  0.00    +0.000 A 
ATOM     21  C   UNL     1      -2.797  10.647  16.155  0.00  0.00    +0.000 A 
ATOM     22  C   UNL     1      -2.115  11.796  16.538  0.00  0.00    +0.000 A 
ATOM     23  C   UNL     1      -1.584  11.912  17.834  0.00  0.00    +0.000 A 
ATOM     24 CL   UNL     1      -0.536  13.271  18.084  0.00  0.00    +0.000 Cl
ENDBRANCH  17  18
BRANCH   1  26
ATOM     25  N   UNL     1       1.491   8.974  19.174  0.00  0.00    +0.000 NA
ATOM     26  C   UNL     1       0.743   9.590  19.815  0.00  0.00    +0.000 C 
ENDBRANCH   1  26
BRANCH   2  27
ATOM     27  O   UNL     1       1.309   9.633  22.558  0.00  0.00    +0.000 OA
ATOM     28  H   UNL     1       1.847   9.261  21.841  0.00  0.00    +0.000 HD
ENDBRANCH   2  27
BRANCH   9  29
ATOM     29  O   UNL     1      -4.915  16.611  25.352  0.00  0.00    +0.000 OA
ATOM     30  H   UNL     1      -4.354  16.180  26.027  0.00  0.00    +0.000 HD
ENDBRANCH   9  29
TORSDOF 4
ENDMDL
MODEL 8
REMARK VINA RESULT:      -6.0      9.600     11.548
REMARK  Name = 
REMARK  4 active torsions:
REMARK  status: ('A' for Active; 'I' for Inactive)
REMARK    1  A    between atoms: C_2  and  C_3
REMARK    2  A    between atoms: C_4  and  O_5
REMARK    3  A    between atoms: C_12  and  O_13
REMARK    4  A    between atoms: C_21  and  C_22
REMARK                            x       y       z     vdW  Elec       q    Type
REMARK                         _______ _______ _______ _____ _____    ______ ____
ROOT
ATOM      1  C   UNL     1       5.402  15.361  22.342  0.00  0.00    +0.000 A 
ATOM      2  C   UNL     1       4.895  15.655  21.040  0.00  0.00    +0.000 A 
ATOM      3  N   UNL     1       5.497  15.408  19.851  0.00  0.00    +0.000 NA
ATOM      4  C   UNL     1       6.694  14.800  19.981  0.00  0.00    +0.000 A 
ATOM      5  N   UNL     1       7.523  14.518  18.976  0.00  0.00    +0.000 NA
ATOM      6  N   UNL     1       8.573  13.955  19.595  0.00  0.00    +0.000 N 
ATOM      7  C   UNL     1       9.760  13.589  18.955  0.00  0.00    +0.000 A 
ATOM      8  C   UNL     1       9.968  13.738  17.579  0.00  0.00    +0.000 A 
ATOM      9  C   UNL     1      11.199  13.336  17.066  0.00  0.00    +0.000 A 
ATOM     10  C   UNL     1      12.198  12.828  17.895  0.00  0.00    +0.000 A 
ATOM     11  C   UNL     1      11.970  12.705  19.269  0.00  0.00    +0.000 A 
ATOM     12  C   UNL     1      10.736  13.072  19.811  0.00  0.00    +0.000 A 
ATOM     13  N   UNL     1      10.512  12.879  21.192  0.00  0.00    +0.000 NA
ATOM     14  N   UNL     1       9.387  13.165  21.673  0.00  0.00    +0.000 NA
ATOM     15  C   UNL     1       8.416  13.789  20.953  0.00  0.00    +0.000 A 
ATOM     16  C   UNL     1       7.217  14.405  21.261  0.00  0.00    +0.000 A 
ATOM     17  C   UNL     1       6.614  14.629  22.529  0.00  0.00    +0.000 A 
ENDROOT
BRANCH  17  18
ATOM     18  C   UNL     1       7.201  14.207  23.828  0.00  0.00    +0.000 A 
ATOM     19  C   UNL     1       8.065  15.081  24.524  0.00  0.00    +0.000 A 
ATOM     20  C   UNL     1       8.761  14.692  25.675  0.00  0.00    +0.000 A 
ATOM     21  C   UNL     1       8.501  13.464  26.260  0.00  0.00    +0.000 A 
ATOM     22  C   UNL     1       7.584  12.608  25.663  0.00  0.00    +0.000 A 
ATOM     23  C   UNL     1       6.988  12.945  24.435  0.00  0.00    +0.000 A 
ATOM     24 CL   UNL     1       6.078  11.676  23.681  0.00  0.00    +0.000 Cl
ENDBRANCH  17  18
BRANCH   1  26
ATOM     25  N   UNL     1       4.015  16.332  24.308  0.00  0.00    +0.000 NA
ATOM     26  C   UNL     1       4.679  15.904  23.456  0.00  0.00    +0.000 C 
ENDBRANCH   1  26
BRANCH   2  27
ATOM     27  O   UNL     1       3.678  16.270  20.865  0.00  0.00    +0.000 OA
ATOM     28  H   UNL     1       3.615  17.094  21.375  0.00  0.00    +0.000 HD
ENDBRANCH   2  27
BRANCH   9  29
ATOM     29  O   UNL     1      11.477  13.418  15.737  0.00  0.00    +0.000 OA
ATOM     30  H   UNL     1      11.299  12.553  15.317  0.00  0.00    +0.000 HD
ENDBRANCH   9  29
TORSDOF 4
ENDMDL
MODEL 9
REMARK VINA RESULT:      -5.9      9.683     10.475
REMARK  Name = 
REMARK  4 active torsions:
REMARK  status: ('A' for Active; 'I' for Inactive)
REMARK    1  A    between atoms: C_2  and  C_3
REMARK    2  A    between atoms: C_4  and  O_5
REMARK    3  A    between atoms: C_12  and  O_13
REMARK    4  A    between atoms: C_21  and  C_22
REMARK                            x       y       z     vdW  Elec       q    Type
REMARK                         _______ _______ _______ _____ _____    ______ ____
ROOT
ATOM      1  C   UNL     1       5.760  14.872  21.841  0.00  0.00    +0.000 A 
ATOM      2  C   UNL     1       4.672  14.429  22.651  0.00  0.00    +0.000 A 
ATOM      3  N   UNL     1       3.349  14.595  22.409  0.00  0.00    +0.000 NA
ATOM      4  C   UNL     1       3.101  15.241  21.250  0.00  0.00    +0.000 A 
ATOM      5  N   UNL     1       1.893  15.600  20.815  0.00  0.00    +0.000 NA
ATOM      6  N   UNL     1       2.157  16.226  19.658  0.00  0.00    +0.000 N 
ATOM      7  C   UNL     1       1.200  16.883  18.882  0.00  0.00    +0.000 A 
ATOM      8  C   UNL     1      -0.159  16.925  19.214  0.00  0.00    +0.000 A 
ATOM      9  C   UNL     1      -1.011  17.617  18.355  0.00  0.00    +0.000 A 
ATOM     10  C   UNL     1      -0.525  18.265  17.220  0.00  0.00    +0.000 A 
ATOM     11  C   UNL     1       0.839  18.220  16.921  0.00  0.00    +0.000 A 
ATOM     12  C   UNL     1       1.716  17.511  17.745  0.00  0.00    +0.000 A 
ATOM     13  N   UNL     1       3.079  17.430  17.384  0.00  0.00    +0.000 NA
ATOM     14  N   UNL     1       3.860  16.754  18.099  0.00  0.00    +0.000 NA
ATOM     15  C   UNL     1       3.484  16.212  19.289  0.00  0.00    +0.000 A 
ATOM     16  C   UNL     1       4.154  15.636  20.354  0.00  0.00    +0.000 A 
ATOM     17  C   UNL     1       5.551  15.468  20.559  0.00  0.00    +0.000 A 
ENDROOT
BRANCH  17  18
ATOM     18  C   UNL     1       6.603  15.902  19.603  0.00  0.00    +0.000 A 
ATOM     19  C   UNL     1       7.168  14.964  18.710  0.00  0.00    +0.000 A 
ATOM     20  C   UNL     1       8.257  15.271  17.886  0.00  0.00    +0.000 A 
ATOM     21  C   UNL     1       8.726  16.573  17.814  0.00  0.00    +0.000 A 
ATOM     22  C   UNL     1       8.136  17.552  18.605  0.00  0.00    +0.000 A 
ATOM     23  C   UNL     1       7.132  17.212  19.529  0.00  0.00    +0.000 A 
ATOM     24 CL   UNL     1       6.682  18.477  20.627  0.00  0.00    +0.000 Cl
ENDBRANCH  17  18
BRANCH   1  26
ATOM     25  N   UNL     1       8.163  14.753  22.815  0.00  0.00    +0.000 NA
ATOM     26  C   UNL     1       7.075  14.764  22.406  0.00  0.00    +0.000 C 
ENDBRANCH   1  26
BRANCH   2  27
ATOM     27  O   UNL     1       4.882  13.765  23.836  0.00  0.00    +0.000 OA
ATOM     28  H   UNL     1       4.650  12.824  23.766  0.00  0.00    +0.000 HD
ENDBRANCH   2  27
BRANCH   9  29
ATOM     29  O   UNL     1      -2.350  17.686  18.585  0.00  0.00    +0.000 OA
ATOM     30  H   UNL     1      -2.528  17.464  19.521  0.00  0.00    +0.000 HD
ENDBRANCH   9  29
TORSDOF 4
ENDMDL
