MODEL 1
REMARK VINA RESULT:      -6.6      0.000      0.000
REMARK  Name = 
REMARK  6 active torsions:
REMARK  status: ('A' for Active; 'I' for Inactive)
REMARK    1  A    between atoms: C_1  and  C_2
REMARK    2  A    between atoms: C_2  and  C_4
REMARK    3  A    between atoms: C_5  and  C_6
REMARK    4  A    between atoms: C_9  and  C_10
REMARK    5  A    between atoms: C_10  and  C_11
REMARK    6  A    between atoms: C_10  and  C_12
REMARK                            x       y       z     vdW  Elec       q    Type
REMARK                         _______ _______ _______ _____ _____    ______ ____
ROOT
ATOM      1  C   UNL     1       4.489   4.940  16.820  0.00  0.00    +0.000 A 
ATOM      2  C   UNL     1       4.037   3.646  17.083  0.00  0.00    +0.000 A 
ATOM      3  C   UNL     1       3.039   3.422  18.042  0.00  0.00    +0.000 A 
ATOM      4  C   UNL     1       2.482   4.484  18.774  0.00  0.00    +0.000 A 
ATOM      5  C   UNL     1       2.924   5.782  18.478  0.00  0.00    +0.000 A 
ATOM      6  C   UNL     1       3.912   6.007  17.511  0.00  0.00    +0.000 A 
ENDROOT
BRANCH   4   7
ATOM      7  C   UNL     1       1.465   4.200  19.871  0.00  0.00    +0.000 C 
ATOM      8  C   UNL     1       0.726   2.881  19.613  0.00  0.00    +0.000 C 
ATOM      9  C   UNL     1       2.061   4.160  21.282  0.00  0.00    +0.000 C 
ENDBRANCH   4   7
BRANCH   1  11
ATOM     10  C   UNL     1       5.658   4.383  14.735  0.00  0.00    +0.000 C 
ATOM     11  C   UNL     1       5.527   5.169  15.812  0.00  0.00    +0.000 C 
BRANCH  10  13
ATOM     12  C   UNL     1       6.708   3.820  12.488  0.00  0.00    +0.000 C 
ATOM     13  C   UNL     1       6.775   4.607  13.771  0.00  0.00    +0.000 C 
ATOM     14  O   UNL     1       7.697   5.370  14.016  0.00  0.00    +0.000 OA
ENDBRANCH  10  13
ENDBRANCH   1  11
TORSDOF 3
ENDMDL
MODEL 2
REMARK VINA RESULT:      -6.5      0.415      1.306
REMARK  Name = 
REMARK  6 active torsions:
REMARK  status: ('A' for Active; 'I' for Inactive)
REMARK    1  A    between atoms: C_1  and  C_2
REMARK    2  A    between atoms: C_2  and  C_4
REMARK    3  A    between atoms: C_5  and  C_6
REMARK    4  A    between atoms: C_9  and  C_10
REMARK    5  A    between atoms: C_10  and  C_11
REMARK    6  A    between atoms: C_10  and  C_12
REMARK                            x       y       z     vdW  Elec       q    Type
REMARK                         _______ _______ _______ _____ _____    ______ ____
ROOT
ATOM      1  C   UNL     1       4.384   4.919  16.997  0.00  0.00    +0.000 A 
ATOM      2  C   UNL     1       4.221   5.834  18.039  0.00  0.00    +0.000 A 
ATOM      3  C   UNL     1       3.350   5.554  19.102  0.00  0.00    +0.000 A 
ATOM      4  C   UNL     1       2.608   4.362  19.139  0.00  0.00    +0.000 A 
ATOM      5  C   UNL     1       2.804   3.438  18.102  0.00  0.00    +0.000 A 
ATOM      6  C   UNL     1       3.684   3.712  17.046  0.00  0.00    +0.000 A 
ENDROOT
BRANCH   4   7
ATOM      7  C   UNL     1       1.604   4.127  20.260  0.00  0.00    +0.000 C 
ATOM      8  C   UNL     1       0.585   3.048  19.874  0.00  0.00    +0.000 C 
ATOM      9  C   UNL     1       2.241   3.742  21.600  0.00  0.00    +0.000 C 
ENDBRANCH   4   7
BRANCH   1  11
ATOM     10  C   UNL     1       5.776   4.252  15.089  0.00  0.00    +0.000 C 
ATOM     11  C   UNL     1       5.301   5.213  15.893  0.00  0.00    +0.000 C 
BRANCH  10  13
ATOM     12  C   UNL     1       6.601   3.852  12.717  0.00  0.00    +0.000 C 
ATOM     13  C   UNL     1       6.766   4.585  14.023  0.00  0.00    +0.000 C 
ATOM     14  O   UNL     1       7.665   5.391  14.205  0.00  0.00    +0.000 OA
ENDBRANCH  10  13
ENDBRANCH   1  11
TORSDOF 3
ENDMDL
MODEL 3
REMARK VINA RESULT:      -6.5      1.060      1.672
REMARK  Name = 
REMARK  6 active torsions:
REMARK  status: ('A' for Active; 'I' for Inactive)
REMARK    1  A    between atoms: C_1  and  C_2
REMARK    2  A    between atoms: C_2  and  C_4
REMARK    3  A    between atoms: C_5  and  C_6
REMARK    4  A    between atoms: C_9  and  C_10
REMARK    5  A    between atoms: C_10  and  C_11
REMARK    6  A    between atoms: C_10  and  C_12
REMARK                            x       y       z     vdW  Elec       q    Type
REMARK                         _______ _______ _______ _____ _____    ______ ____
ROOT
ATOM      1  C   UNL     1       4.520   4.172  17.005  0.00  0.00    +0.000 A 
ATOM      2  C   UNL     1       5.051   4.873  18.090  0.00  0.00    +0.000 A 
ATOM      3  C   UNL     1       4.346   4.952  19.299  0.00  0.00    +0.000 A 
ATOM      4  C   UNL     1       3.085   4.350  19.448  0.00  0.00    +0.000 A 
ATOM      5  C   UNL     1       2.577   3.624  18.361  0.00  0.00    +0.000 A 
ATOM      6  C   UNL     1       3.288   3.533  17.157  0.00  0.00    +0.000 A 
ENDROOT
BRANCH   4   7
ATOM      7  C   UNL     1       2.305   4.530  20.743  0.00  0.00    +0.000 C 
ATOM      8  C   UNL     1       1.562   5.872  20.760  0.00  0.00    +0.000 C 
ATOM      9  C   UNL     1       1.299   3.409  21.029  0.00  0.00    +0.000 C 
ENDBRANCH   4   7
BRANCH   1  11
ATOM     10  C   UNL     1       6.272   4.917  15.458  0.00  0.00    +0.000 C 
ATOM     11  C   UNL     1       5.264   4.084  15.747  0.00  0.00    +0.000 C 
BRANCH  10  13
ATOM     12  C   UNL     1       6.382   3.854  13.150  0.00  0.00    +0.000 C 
ATOM     13  C   UNL     1       6.955   4.842  14.133  0.00  0.00    +0.000 C 
ATOM     14  O   UNL     1       7.929   5.529  13.868  0.00  0.00    +0.000 OA
ENDBRANCH  10  13
ENDBRANCH   1  11
TORSDOF 3
ENDMDL
MODEL 4
REMARK VINA RESULT:      -6.5      1.052      1.340
REMARK  Name = 
REMARK  6 active torsions:
REMARK  status: ('A' for Active; 'I' for Inactive)
REMARK    1  A    between atoms: C_1  and  C_2
REMARK    2  A    between atoms: C_2  and  C_4
REMARK    3  A    between atoms: C_5  and  C_6
REMARK    4  A    between atoms: C_9  and  C_10
REMARK    5  A    between atoms: C_10  and  C_11
REMARK    6  A    between atoms: C_10  and  C_12
REMARK                            x       y       z     vdW  Elec       q    Type
REMARK                         _______ _______ _______ _____ _____    ______ ____
ROOT
ATOM      1  C   UNL     1       4.685   4.234  17.060  0.00  0.00    +0.000 A 
ATOM      2  C   UNL     1       3.467   3.564  17.188  0.00  0.00    +0.000 A 
ATOM      3  C   UNL     1       2.676   3.739  18.333  0.00  0.00    +0.000 A 
ATOM      4  C   UNL     1       3.093   4.570  19.385  0.00  0.00    +0.000 A 
ATOM      5  C   UNL     1       4.305   5.260  19.231  0.00  0.00    +0.000 A 
ATOM      6  C   UNL     1       5.088   5.096  18.081  0.00  0.00    +0.000 A 
ENDROOT
BRANCH   4   7
ATOM      7  C   UNL     1       2.256   4.669  20.654  0.00  0.00    +0.000 C 
ATOM      8  C   UNL     1       1.564   6.033  20.756  0.00  0.00    +0.000 C 
ATOM      9  C   UNL     1       1.196   3.570  20.791  0.00  0.00    +0.000 C 
ENDBRANCH   4   7
BRANCH   1  11
ATOM     10  C   UNL     1       6.185   5.066  15.305  0.00  0.00    +0.000 C 
ATOM     11  C   UNL     1       5.503   4.054  15.858  0.00  0.00    +0.000 C 
BRANCH  10  13
ATOM     12  C   UNL     1       6.398   3.811  13.103  0.00  0.00    +0.000 C 
ATOM     13  C   UNL     1       6.946   4.857  14.039  0.00  0.00    +0.000 C 
ATOM     14  O   UNL     1       7.961   5.486  13.784  0.00  0.00    +0.000 OA
ENDBRANCH  10  13
ENDBRANCH   1  11
TORSDOF 3
ENDMDL
MODEL 5
REMARK VINA RESULT:      -6.5      1.218      1.564
REMARK  Name = 
REMARK  6 active torsions:
REMARK  status: ('A' for Active; 'I' for Inactive)
REMARK    1  A    between atoms: C_1  and  C_2
REMARK    2  A    between atoms: C_2  and  C_4
REMARK    3  A    between atoms: C_5  and  C_6
REMARK    4  A    between atoms: C_9  and  C_10
REMARK    5  A    between atoms: C_10  and  C_11
REMARK    6  A    between atoms: C_10  and  C_12
REMARK                            x       y       z     vdW  Elec       q    Type
REMARK                         _______ _______ _______ _____ _____    ______ ____
ROOT
ATOM      1  C   UNL     1       4.799   3.926  17.278  0.00  0.00    +0.000 A 
ATOM      2  C   UNL     1       5.092   3.964  18.643  0.00  0.00    +0.000 A 
ATOM      3  C   UNL     1       4.095   3.697  19.592  0.00  0.00    +0.000 A 
ATOM      4  C   UNL     1       2.777   3.407  19.201  0.00  0.00    +0.000 A 
ATOM      5  C   UNL     1       2.503   3.342  17.827  0.00  0.00    +0.000 A 
ATOM      6  C   UNL     1       3.503   3.595  16.878  0.00  0.00    +0.000 A 
ENDROOT
BRANCH   4   7
ATOM      7  C   UNL     1       1.697   3.211  20.257  0.00  0.00    +0.000 C 
ATOM      8  C   UNL     1       2.301   2.743  21.586  0.00  0.00    +0.000 C 
ATOM      9  C   UNL     1       0.843   4.457  20.517  0.00  0.00    +0.000 C 
ENDBRANCH   4   7
BRANCH   1  11
ATOM     10  C   UNL     1       5.568   4.387  14.994  0.00  0.00    +0.000 C 
ATOM     11  C   UNL     1       5.846   4.196  16.290  0.00  0.00    +0.000 C 
BRANCH  10  13
ATOM     12  C   UNL     1       6.558   3.806  12.724  0.00  0.00    +0.000 C 
ATOM     13  C   UNL     1       6.671   4.586  14.009  0.00  0.00    +0.000 C 
ATOM     14  O   UNL     1       7.616   5.324  14.237  0.00  0.00    +0.000 OA
ENDBRANCH  10  13
ENDBRANCH   1  11
TORSDOF 3
ENDMDL
MODEL 6
REMARK VINA RESULT:      -6.3      1.426      2.624
REMARK  Name = 
REMARK  6 active torsions:
REMARK  status: ('A' for Active; 'I' for Inactive)
REMARK    1  A    between atoms: C_1  and  C_2
REMARK    2  A    between atoms: C_2  and  C_4
REMARK    3  A    between atoms: C_5  and  C_6
REMARK    4  A    between atoms: C_9  and  C_10
REMARK    5  A    between atoms: C_10  and  C_11
REMARK    6  A    between atoms: C_10  and  C_12
REMARK                            x       y       z     vdW  Elec       q    Type
REMARK                         _______ _______ _______ _____ _____    ______ ____
ROOT
ATOM      1  C   UNL     1       5.315   4.873  15.652  0.00  0.00    +0.000 A 
ATOM      2  C   UNL     1       5.252   6.234  15.958  0.00  0.00    +0.000 A 
ATOM      3  C   UNL     1       4.568   6.676  17.099  0.00  0.00    +0.000 A 
ATOM      4  C   UNL     1       3.914   5.770  17.951  0.00  0.00    +0.000 A 
ATOM      5  C   UNL     1       4.010   4.404  17.649  0.00  0.00    +0.000 A 
ATOM      6  C   UNL     1       4.705   3.962  16.516  0.00  0.00    +0.000 A 
ENDROOT
BRANCH   4   7
ATOM      7  C   UNL     1       3.103   6.288  19.133  0.00  0.00    +0.000 C 
ATOM      8  C   UNL     1       2.332   7.560  18.760  0.00  0.00    +0.000 C 
ATOM      9  C   UNL     1       2.116   5.268  19.710  0.00  0.00    +0.000 C 
ENDBRANCH   4   7
BRANCH   1  11
ATOM     10  C   UNL     1       5.405   3.903  13.400  0.00  0.00    +0.000 C 
ATOM     11  C   UNL     1       6.038   4.416  14.463  0.00  0.00    +0.000 C 
BRANCH  10  13
ATOM     12  C   UNL     1       5.611   2.169  11.551  0.00  0.00    +0.000 C 
ATOM     13  C   UNL     1       6.184   3.381  12.240  0.00  0.00    +0.000 C 
ATOM     14  O   UNL     1       7.232   3.895  11.881  0.00  0.00    +0.000 OA
ENDBRANCH  10  13
ENDBRANCH   1  11
TORSDOF 3
ENDMDL
MODEL 7
REMARK VINA RESULT:      -6.2      1.081      1.816
REMARK  Name = 
REMARK  6 active torsions:
REMARK  status: ('A' for Active; 'I' for Inactive)
REMARK    1  A    between atoms: C_1  and  C_2
REMARK    2  A    between atoms: C_2  and  C_4
REMARK    3  A    between atoms: C_5  and  C_6
REMARK    4  A    between atoms: C_9  and  C_10
REMARK    5  A    between atoms: C_10  and  C_11
REMARK    6  A    between atoms: C_10  and  C_12
REMARK                            x       y       z     vdW  Elec       q    Type
REMARK                         _______ _______ _______ _____ _____    ______ ____
ROOT
ATOM      1  C   UNL     1       4.991   5.134  17.407  0.00  0.00    +0.000 A 
ATOM      2  C   UNL     1       4.106   6.197  17.601  0.00  0.00    +0.000 A 
ATOM      3  C   UNL     1       3.194   6.178  18.665  0.00  0.00    +0.000 A 
ATOM      4  C   UNL     1       3.130   5.088  19.549  0.00  0.00    +0.000 A 
ATOM      5  C   UNL     1       4.044   4.041  19.361  0.00  0.00    +0.000 A 
ATOM      6  C   UNL     1       4.965   4.066  18.305  0.00  0.00    +0.000 A 
ENDROOT
BRANCH   4   7
ATOM      7  C   UNL     1       2.068   5.056  20.640  0.00  0.00    +0.000 C 
ATOM      8  C   UNL     1       1.377   6.418  20.780  0.00  0.00    +0.000 C 
ATOM      9  C   UNL     1       0.994   3.980  20.438  0.00  0.00    +0.000 C 
ENDBRANCH   4   7
BRANCH   1  11
ATOM     10  C   UNL     1       5.650   4.668  15.090  0.00  0.00    +0.000 C 
ATOM     11  C   UNL     1       5.948   5.163  16.298  0.00  0.00    +0.000 C 
BRANCH  10  13
ATOM     12  C   UNL     1       6.399   3.734  12.846  0.00  0.00    +0.000 C 
ATOM     13  C   UNL     1       6.680   4.649  14.010  0.00  0.00    +0.000 C 
ATOM     14  O   UNL     1       7.696   5.323  14.074  0.00  0.00    +0.000 OA
ENDBRANCH  10  13
ENDBRANCH   1  11
TORSDOF 3
ENDMDL
MODEL 8
REMARK VINA RESULT:      -6.1      0.966      1.112
REMARK  Name = 
REMARK  6 active torsions:
REMARK  status: ('A' for Active; 'I' for Inactive)
REMARK    1  A    between atoms: C_1  and  C_2
REMARK    2  A    between atoms: C_2  and  C_4
REMARK    3  A    between atoms: C_5  and  C_6
REMARK    4  A    between atoms: C_9  and  C_10
REMARK    5  A    between atoms: C_10  and  C_11
REMARK    6  A    between atoms: C_10  and  C_12
REMARK                            x       y       z     vdW  Elec       q    Type
REMARK                         _______ _______ _______ _____ _____    ______ ____
ROOT
ATOM      1  C   UNL     1       4.884   4.328  17.075  0.00  0.00    +0.000 A 
ATOM      2  C   UNL     1       3.604   3.834  16.815  0.00  0.00    +0.000 A 
ATOM      3  C   UNL     1       2.605   3.896  17.797  0.00  0.00    +0.000 A 
ATOM      4  C   UNL     1       2.866   4.434  19.068  0.00  0.00    +0.000 A 
ATOM      5  C   UNL     1       4.147   4.953  19.306  0.00  0.00    +0.000 A 
ATOM      6  C   UNL     1       5.141   4.904  18.321  0.00  0.00    +0.000 A 
ENDROOT
BRANCH   4   7
ATOM      7  C   UNL     1       1.786   4.404  20.142  0.00  0.00    +0.000 C 
ATOM      8  C   UNL     1       2.117   3.377  21.231  0.00  0.00    +0.000 C 
ATOM      9  C   UNL     1       1.529   5.761  20.808  0.00  0.00    +0.000 C 
ENDBRANCH   4   7
BRANCH   1  11
ATOM     10  C   UNL     1       5.732   4.766  14.815  0.00  0.00    +0.000 C 
ATOM     11  C   UNL     1       5.922   4.269  16.044  0.00  0.00    +0.000 C 
BRANCH  10  13
ATOM     12  C   UNL     1       6.466   3.686  12.632  0.00  0.00    +0.000 C 
ATOM     13  C   UNL     1       6.788   4.618  13.771  0.00  0.00    +0.000 C 
ATOM     14  O   UNL     1       7.857   5.206  13.845  0.00  0.00    +0.000 OA
ENDBRANCH  10  13
ENDBRANCH   1  11
TORSDOF 3
ENDMDL
MODEL 9
REMARK VINA RESULT:      -6.1      2.423      2.778
REMARK  Name = 
REMARK  6 active torsions:
REMARK  status: ('A' for Active; 'I' for Inactive)
REMARK    1  A    between atoms: C_1  and  C_2
REMARK    2  A    between atoms: C_2  and  C_4
REMARK    3  A    between atoms: C_5  and  C_6
REMARK    4  A    between atoms: C_9  and  C_10
REMARK    5  A    between atoms: C_10  and  C_11
REMARK    6  A    between atoms: C_10  and  C_12
REMARK                            x       y       z     vdW  Elec       q    Type
REMARK                         _______ _______ _______ _____ _____    ______ ____
ROOT
ATOM      1  C   UNL     1       4.056   5.618  18.077  0.00  0.00    +0.000 A 
ATOM      2  C   UNL     1       3.447   4.542  17.429  0.00  0.00    +0.000 A 
ATOM      3  C   UNL     1       2.405   3.837  18.046  0.00  0.00    +0.000 A 
ATOM      4  C   UNL     1       1.958   4.177  19.334  0.00  0.00    +0.000 A 
ATOM      5  C   UNL     1       2.558   5.279  19.962  0.00  0.00    +0.000 A 
ATOM      6  C   UNL     1       3.591   5.992  19.340  0.00  0.00    +0.000 A 
ENDROOT
BRANCH   4   7
ATOM      7  C   UNL     1       0.886   3.336  20.014  0.00  0.00    +0.000 C 
ATOM      8  C   UNL     1       0.449   2.169  19.120  0.00  0.00    +0.000 C 
ATOM      9  C   UNL     1       1.300   2.779  21.380  0.00  0.00    +0.000 C 
ENDBRANCH   4   7
BRANCH   1  11
ATOM     10  C   UNL     1       6.417   6.232  17.809  0.00  0.00    +0.000 C 
ATOM     11  C   UNL     1       5.140   6.357  17.425  0.00  0.00    +0.000 C 
BRANCH  10  13
ATOM     12  C   UNL     1       7.881   8.309  17.907  0.00  0.00    +0.000 C 
ATOM     13  C   UNL     1       7.480   7.058  17.167  0.00  0.00    +0.000 C 
ATOM     14  O   UNL     1       7.983   6.748  16.098  0.00  0.00    +0.000 OA
ENDBRANCH  10  13
ENDBRANCH   1  11
TORSDOF 3
ENDMDL
