MODEL 1
REMARK VINA RESULT:      -6.5      0.000      0.000
REMARK  Name = 
REMARK  20 active torsions:
REMARK  status: ('A' for Active; 'I' for Inactive)
REMARK    1  A    between atoms: C_1  and  C_2
REMARK    2  A    between atoms: C_2  and  C_3
REMARK    3  A    between atoms: C_3  and  C_4
REMARK    4  A    between atoms: C_4  and  C_5
REMARK    5  A    between atoms: C_5  and  C_6
REMARK    6  A    between atoms: C_6  and  C_7
REMARK    7  A    between atoms: C_7  and  C_8
REMARK    8  A    between atoms: C_8  and  C_9
REMARK    9  A    between atoms: C_9  and  C_10
REMARK   10  A    between atoms: C_10  and  S_11
REMARK   11  A    between atoms: S_11  and  C_13
REMARK   12  A    between atoms: C_13  and  C_14
REMARK   13  A    between atoms: C_14  and  C_15
REMARK   14  A    between atoms: C_14  and  N_17
REMARK   15  A    between atoms: C_15  and  O_16
REMARK   16  A    between atoms: C_18  and  C_20
REMARK   17  A    between atoms: C_21  and  C_22
REMARK   18  A    between atoms: C_23  and  C_24
REMARK   19  A    between atoms: C_26  and  O_27
REMARK   20  A    between atoms: C_29  and  O_30
REMARK                            x       y       z     vdW  Elec       q    Type
REMARK                         _______ _______ _______ _____ _____    ______ ____
ROOT
ATOM      1  C   UNK A   1       6.499   6.725  17.292  0.00  0.00    +0.000 C 
ENDROOT
BRANCH   1   2
ATOM      2  N   UNK A   1       7.189   8.013  17.105  0.00  0.00    +0.000 N 
ATOM      3  C   UNK A   0       8.171   8.444  17.957  0.00  0.00    +0.000 C 
ATOM      4  O   UNK A   0       8.515   7.821  18.960  0.00  0.00    +0.000 OA
ATOM      5  H   UNK A   1       7.089   8.453  16.190  0.00  0.00    +0.000 HD
BRANCH   3   6
ATOM      6  C   UNK A   0       8.785   9.745  17.575  0.00  0.00    +0.000 C 
ATOM      7  C   UNK A   0       9.333  10.541  18.515  0.00  0.00    +0.000 C 
BRANCH   7   8
ATOM      8  C   UNK A   0       9.932  11.874  18.280  0.00  0.00    +0.000 A 
ATOM      9  C   UNK A   0       9.198  12.977  17.835  0.00  0.00    +0.000 A 
ATOM     10  C   UNK A   0       7.718  12.964  17.582  0.00  0.00    +0.000 C 
ATOM     11  N   UNK A   0       9.778  14.184  17.584  0.00  0.00    +0.000 NA
ATOM     12  C   UNK A   0      11.098  14.268  17.761  0.00  0.00    +0.000 A 
ATOM     13  N   UNK A   0      11.922  13.307  18.151  0.00  0.00    +0.000 NA
ATOM     14  C   UNK A   0      11.300  12.141  18.392  0.00  0.00    +0.000 A 
BRANCH  14  15
ATOM     15  O   UNK A   0      12.190  11.171  18.748  0.00  0.00    +0.000 OA
ATOM     16  H   UNK A   0      12.617  11.012  17.886  0.00  0.00    +0.000 HD
ENDBRANCH  14  15
BRANCH  12  17
ATOM     17  O   UNK A   0      11.635  15.486  17.495  0.00  0.00    +0.000 OA
ATOM     18  H   UNK A   0      12.396  15.453  18.097  0.00  0.00    +0.000 HD
ENDBRANCH  12  17
ENDBRANCH   7   8
ENDBRANCH   3   6
ENDBRANCH   1   2
BRANCH   1  19
ATOM     19  C   UNK A   1       5.153   6.685  16.524  0.00  0.00    +0.000 C 
BRANCH  19  20
ATOM     20  S   UNK A   1       3.761   6.508  17.683  0.00  0.00    +0.000 S 
ATOM     21  O   UNK A   1       3.118   7.930  17.864  0.00  0.00    +0.000 OA
BRANCH  20  22
ATOM     22  C   UNK A   1       4.686   6.171  19.223  0.00  0.00    +0.000 C 
BRANCH  22  23
ATOM     23  C   UNK A   1       4.277   4.763  19.673  0.00  0.00    +0.000 C 
BRANCH  23  24
ATOM     24  C   UNK A   1       4.716   3.644  18.738  0.00  0.00    +0.000 C 
BRANCH  24  25
ATOM     25  C   UNK A   1       4.177   2.303  19.254  0.00  0.00    +0.000 C 
BRANCH  25  26
ATOM     26  C   UNK A   1       3.105   1.741  18.326  0.00  0.00    +0.000 C 
BRANCH  26  27
ATOM     27  C   UNK A   1       2.621   2.793  17.330  0.00  0.00    +0.000 C 
BRANCH  27  28
ATOM     28  C   UNK A   1       1.389   3.516  17.870  0.00  0.00    +0.000 C 
BRANCH  28  29
ATOM     29  C   UNK A   1       0.775   2.767  19.051  0.00  0.00    +0.000 C 
BRANCH  29  31
ATOM     30  C   UNK A   1       1.373   2.895  21.490  0.00  0.00    +0.000 C 
ATOM     31  C   UNK A   1       0.772   3.635  20.307  0.00  0.00    +0.000 C 
ENDBRANCH  29  31
ENDBRANCH  28  29
ENDBRANCH  27  28
ENDBRANCH  26  27
ENDBRANCH  25  26
ENDBRANCH  24  25
ENDBRANCH  23  24
ENDBRANCH  22  23
ENDBRANCH  20  22
ENDBRANCH  19  20
ENDBRANCH   1  19
BRANCH   1  32
ATOM     32  C   UNK A   1       7.452   5.573  16.904  0.00  0.00    +0.000 C 
BRANCH  32  33
ATOM     33  O   UNK A   1       7.315   5.272  15.508  0.00  0.00    +0.000 OA
ATOM     34  H   UNK A   1       7.401   4.303  15.430  0.00  0.00    +0.000 HD
ENDBRANCH  32  33
ENDBRANCH   1  32
TORSDOF 18
ENDMDL
MODEL 2
REMARK VINA RESULT:      -6.4      1.553      2.065
REMARK  Name = 
REMARK  20 active torsions:
REMARK  status: ('A' for Active; 'I' for Inactive)
REMARK    1  A    between atoms: C_1  and  C_2
REMARK    2  A    between atoms: C_2  and  C_3
REMARK    3  A    between atoms: C_3  and  C_4
REMARK    4  A    between atoms: C_4  and  C_5
REMARK    5  A    between atoms: C_5  and  C_6
REMARK    6  A    between atoms: C_6  and  C_7
REMARK    7  A    between atoms: C_7  and  C_8
REMARK    8  A    between atoms: C_8  and  C_9
REMARK    9  A    between atoms: C_9  and  C_10
REMARK   10  A    between atoms: C_10  and  S_11
REMARK   11  A    between atoms: S_11  and  C_13
REMARK   12  A    between atoms: C_13  and  C_14
REMARK   13  A    between atoms: C_14  and  C_15
REMARK   14  A    between atoms: C_14  and  N_17
REMARK   15  A    between atoms: C_15  and  O_16
REMARK   16  A    between atoms: C_18  and  C_20
REMARK   17  A    between atoms: C_21  and  C_22
REMARK   18  A    between atoms: C_23  and  C_24
REMARK   19  A    between atoms: C_26  and  O_27
REMARK   20  A    between atoms: C_29  and  O_30
REMARK                            x       y       z     vdW  Elec       q    Type
REMARK                         _______ _______ _______ _____ _____    ______ ____
ROOT
ATOM      1  C   UNK A   1       6.280   6.673  16.912  0.00  0.00    +0.000 C 
ENDROOT
BRANCH   1   2
ATOM      2  N   UNK A   1       6.880   7.990  17.188  0.00  0.00    +0.000 N 
ATOM      3  C   UNK A   0       7.912   8.151  18.074  0.00  0.00    +0.000 C 
ATOM      4  O   UNK A   0       8.381   7.228  18.738  0.00  0.00    +0.000 OA
ATOM      5  H   UNK A   1       6.671   8.733  16.520  0.00  0.00    +0.000 HD
BRANCH   3   6
ATOM      6  C   UNK A   0       8.416   9.547  18.179  0.00  0.00    +0.000 C 
ATOM      7  C   UNK A   0       9.359   9.863  19.091  0.00  0.00    +0.000 C 
BRANCH   7   8
ATOM      8  C   UNK A   0       9.912  11.215  19.332  0.00  0.00    +0.000 A 
ATOM      9  C   UNK A   0       9.636  11.962  20.481  0.00  0.00    +0.000 A 
ATOM     10  C   UNK A   0       8.789  11.479  21.624  0.00  0.00    +0.000 C 
ATOM     11  N   UNK A   0      10.121  13.222  20.663  0.00  0.00    +0.000 NA
ATOM     12  C   UNK A   0      10.863  13.732  19.678  0.00  0.00    +0.000 A 
ATOM     13  N   UNK A   0      11.184  13.156  18.529  0.00  0.00    +0.000 NA
ATOM     14  C   UNK A   0      10.687  11.914  18.403  0.00  0.00    +0.000 A 
BRANCH  14  15
ATOM     15  O   UNK A   0      11.005  11.377  17.191  0.00  0.00    +0.000 OA
ATOM     16  H   UNK A   0      11.393  10.531  17.480  0.00  0.00    +0.000 HD
ENDBRANCH  14  15
BRANCH  12  17
ATOM     17  O   UNK A   0      11.322  14.991  19.899  0.00  0.00    +0.000 OA
ATOM     18  H   UNK A   0      11.092  15.389  19.043  0.00  0.00    +0.000 HD
ENDBRANCH  12  17
ENDBRANCH   7   8
ENDBRANCH   3   6
ENDBRANCH   1   2
BRANCH   1  19
ATOM     19  C   UNK A   1       4.952   6.806  16.126  0.00  0.00    +0.000 C 
BRANCH  19  20
ATOM     20  S   UNK A   1       3.530   6.764  17.261  0.00  0.00    +0.000 S 
ATOM     21  O   UNK A   1       3.526   8.117  18.059  0.00  0.00    +0.000 OA
BRANCH  20  22
ATOM     22  C   UNK A   1       4.112   5.488  18.432  0.00  0.00    +0.000 C 
BRANCH  22  23
ATOM     23  C   UNK A   1       3.936   4.139  17.724  0.00  0.00    +0.000 C 
BRANCH  23  24
ATOM     24  C   UNK A   1       2.490   3.684  17.575  0.00  0.00    +0.000 C 
BRANCH  24  25
ATOM     25  C   UNK A   1       2.431   2.150  17.589  0.00  0.00    +0.000 C 
BRANCH  25  26
ATOM     26  C   UNK A   1       1.715   1.633  18.832  0.00  0.00    +0.000 C 
BRANCH  26  27
ATOM     27  C   UNK A   1       1.187   2.781  19.690  0.00  0.00    +0.000 C 
BRANCH  27  28
ATOM     28  C   UNK A   1       1.971   2.877  20.998  0.00  0.00    +0.000 C 
BRANCH  28  29
ATOM     29  C   UNK A   1       2.151   4.329  21.435  0.00  0.00    +0.000 C 
BRANCH  29  31
ATOM     30  C   UNK A   1       1.711   6.692  20.695  0.00  0.00    +0.000 C 
ATOM     31  C   UNK A   1       1.220   5.254  20.656  0.00  0.00    +0.000 C 
ENDBRANCH  29  31
ENDBRANCH  28  29
ENDBRANCH  27  28
ENDBRANCH  26  27
ENDBRANCH  25  26
ENDBRANCH  24  25
ENDBRANCH  23  24
ENDBRANCH  22  23
ENDBRANCH  20  22
ENDBRANCH  19  20
ENDBRANCH   1  19
BRANCH   1  32
ATOM     32  C   UNK A   1       7.319   5.778  16.200  0.00  0.00    +0.000 C 
BRANCH  32  33
ATOM     33  O   UNK A   1       7.682   4.678  17.046  0.00  0.00    +0.000 OA
ATOM     34  H   UNK A   1       6.846   4.322  17.400  0.00  0.00    +0.000 HD
ENDBRANCH  32  33
ENDBRANCH   1  32
TORSDOF 18
ENDMDL
MODEL 3
REMARK VINA RESULT:      -6.3      1.683      2.744
REMARK  Name = 
REMARK  20 active torsions:
REMARK  status: ('A' for Active; 'I' for Inactive)
REMARK    1  A    between atoms: C_1  and  C_2
REMARK    2  A    between atoms: C_2  and  C_3
REMARK    3  A    between atoms: C_3  and  C_4
REMARK    4  A    between atoms: C_4  and  C_5
REMARK    5  A    between atoms: C_5  and  C_6
REMARK    6  A    between atoms: C_6  and  C_7
REMARK    7  A    between atoms: C_7  and  C_8
REMARK    8  A    between atoms: C_8  and  C_9
REMARK    9  A    between atoms: C_9  and  C_10
REMARK   10  A    between atoms: C_10  and  S_11
REMARK   11  A    between atoms: S_11  and  C_13
REMARK   12  A    between atoms: C_13  and  C_14
REMARK   13  A    between atoms: C_14  and  C_15
REMARK   14  A    between atoms: C_14  and  N_17
REMARK   15  A    between atoms: C_15  and  O_16
REMARK   16  A    between atoms: C_18  and  C_20
REMARK   17  A    between atoms: C_21  and  C_22
REMARK   18  A    between atoms: C_23  and  C_24
REMARK   19  A    between atoms: C_26  and  O_27
REMARK   20  A    between atoms: C_29  and  O_30
REMARK                            x       y       z     vdW  Elec       q    Type
REMARK                         _______ _______ _______ _____ _____    ______ ____
ROOT
ATOM      1  C   UNK A   1       6.541   6.438  17.044  0.00  0.00    +0.000 C 
ENDROOT
BRANCH   1   2
ATOM      2  N   UNK A   1       7.177   7.767  16.999  0.00  0.00    +0.000 N 
ATOM      3  C   UNK A   0       8.121   8.155  17.913  0.00  0.00    +0.000 C 
ATOM      4  O   UNK A   0       8.471   7.453  18.860  0.00  0.00    +0.000 OA
ATOM      5  H   UNK A   1       7.076   8.289  16.128  0.00  0.00    +0.000 HD
BRANCH   3   6
ATOM      6  C   UNK A   0       8.683   9.512  17.672  0.00  0.00    +0.000 C 
ATOM      7  C   UNK A   0       8.654  10.442  18.648  0.00  0.00    +0.000 C 
BRANCH   7   8
ATOM      8  C   UNK A   0       9.134  11.838  18.528  0.00  0.00    +0.000 A 
ATOM      9  C   UNK A   0      10.147  12.371  19.329  0.00  0.00    +0.000 A 
ATOM     10  C   UNK A   0      10.902  11.596  20.371  0.00  0.00    +0.000 C 
ATOM     11  N   UNK A   0      10.543  13.671  19.232  0.00  0.00    +0.000 NA
ATOM     12  C   UNK A   0       9.901  14.433  18.343  0.00  0.00    +0.000 A 
ATOM     13  N   UNK A   0       8.911  14.075  17.541  0.00  0.00    +0.000 NA
ATOM     14  C   UNK A   0       8.564  12.784  17.672  0.00  0.00    +0.000 A 
BRANCH  14  15
ATOM     15  O   UNK A   0       7.514  12.471  16.859  0.00  0.00    +0.000 OA
ATOM     16  H   UNK A   0       7.911  12.669  15.990  0.00  0.00    +0.000 HD
ENDBRANCH  14  15
BRANCH  12  17
ATOM     17  O   UNK A   0      10.324  15.723  18.283  0.00  0.00    +0.000 OA
ATOM     18  H   UNK A   0       9.474  16.153  18.098  0.00  0.00    +0.000 HD
ENDBRANCH  12  17
ENDBRANCH   7   8
ENDBRANCH   3   6
ENDBRANCH   1   2
BRANCH   1  19
ATOM     19  C   UNK A   1       4.999   6.549  17.143  0.00  0.00    +0.000 C 
BRANCH  19  20
ATOM     20  S   UNK A   1       4.458   6.402  18.875  0.00  0.00    +0.000 S 
ATOM     21  O   UNK A   1       4.899   4.984  19.385  0.00  0.00    +0.000 OA
BRANCH  20  22
ATOM     22  C   UNK A   1       2.650   6.311  18.623  0.00  0.00    +0.000 C 
BRANCH  22  23
ATOM     23  C   UNK A   1       2.008   6.689  19.964  0.00  0.00    +0.000 C 
BRANCH  23  24
ATOM     24  C   UNK A   1       1.772   5.519  20.909  0.00  0.00    +0.000 C 
BRANCH  24  25
ATOM     25  C   UNK A   1       0.963   4.432  20.188  0.00  0.00    +0.000 C 
BRANCH  25  26
ATOM     26  C   UNK A   1       1.072   3.091  20.905  0.00  0.00    +0.000 C 
BRANCH  26  27
ATOM     27  C   UNK A   1       2.472   2.876  21.478  0.00  0.00    +0.000 C 
BRANCH  27  28
ATOM     28  C   UNK A   1       3.439   2.435  20.381  0.00  0.00    +0.000 C 
BRANCH  28  29
ATOM     29  C   UNK A   1       2.713   1.685  19.266  0.00  0.00    +0.000 C 
BRANCH  29  31
ATOM     30  C   UNK A   1       2.757   3.127  17.207  0.00  0.00    +0.000 C 
ATOM     31  C   UNK A   1       3.379   1.935  17.915  0.00  0.00    +0.000 C 
ENDBRANCH  29  31
ENDBRANCH  28  29
ENDBRANCH  27  28
ENDBRANCH  26  27
ENDBRANCH  25  26
ENDBRANCH  24  25
ENDBRANCH  23  24
ENDBRANCH  22  23
ENDBRANCH  20  22
ENDBRANCH  19  20
ENDBRANCH   1  19
BRANCH   1  32
ATOM     32  C   UNK A   1       7.011   5.605  15.830  0.00  0.00    +0.000 C 
BRANCH  32  33
ATOM     33  O   UNK A   1       7.799   4.492  16.275  0.00  0.00    +0.000 OA
ATOM     34  H   UNK A   1       7.165   3.798  16.535  0.00  0.00    +0.000 HD
ENDBRANCH  32  33
ENDBRANCH   1  32
TORSDOF 18
ENDMDL
MODEL 4
REMARK VINA RESULT:      -6.3      4.146      9.507
REMARK  Name = 
REMARK  20 active torsions:
REMARK  status: ('A' for Active; 'I' for Inactive)
REMARK    1  A    between atoms: C_1  and  C_2
REMARK    2  A    between atoms: C_2  and  C_3
REMARK    3  A    between atoms: C_3  and  C_4
REMARK    4  A    between atoms: C_4  and  C_5
REMARK    5  A    between atoms: C_5  and  C_6
REMARK    6  A    between atoms: C_6  and  C_7
REMARK    7  A    between atoms: C_7  and  C_8
REMARK    8  A    between atoms: C_8  and  C_9
REMARK    9  A    between atoms: C_9  and  C_10
REMARK   10  A    between atoms: C_10  and  S_11
REMARK   11  A    between atoms: S_11  and  C_13
REMARK   12  A    between atoms: C_13  and  C_14
REMARK   13  A    between atoms: C_14  and  C_15
REMARK   14  A    between atoms: C_14  and  N_17
REMARK   15  A    between atoms: C_15  and  O_16
REMARK   16  A    between atoms: C_18  and  C_20
REMARK   17  A    between atoms: C_21  and  C_22
REMARK   18  A    between atoms: C_23  and  C_24
REMARK   19  A    between atoms: C_26  and  O_27
REMARK   20  A    between atoms: C_29  and  O_30
REMARK                            x       y       z     vdW  Elec       q    Type
REMARK                         _______ _______ _______ _____ _____    ______ ____
ROOT
ATOM      1  C   UNK A   1       4.643   4.649  18.096  0.00  0.00    +0.000 C 
ENDROOT
BRANCH   1   2
ATOM      2  N   UNK A   1       4.099   5.860  18.735  0.00  0.00    +0.000 N 
ATOM      3  C   UNK A   0       2.805   6.267  18.546  0.00  0.00    +0.000 C 
ATOM      4  O   UNK A   0       2.019   5.688  17.796  0.00  0.00    +0.000 OA
ATOM      5  H   UNK A   1       4.637   6.243  19.513  0.00  0.00    +0.000 HD
BRANCH   3   6
ATOM      6  C   UNK A   0       2.426   7.482  19.316  0.00  0.00    +0.000 C 
ATOM      7  C   UNK A   0       1.630   8.419  18.760  0.00  0.00    +0.000 C 
BRANCH   7   8
ATOM      8  C   UNK A   0       1.217   9.691  19.393  0.00  0.00    +0.000 A 
ATOM      9  C   UNK A   0       0.484   9.753  20.582  0.00  0.00    +0.000 A 
ATOM     10  C   UNK A   0       0.065   8.554  21.383  0.00  0.00    +0.000 C 
ATOM     11  N   UNK A   0       0.076  10.934  21.125  0.00  0.00    +0.000 NA
ATOM     12  C   UNK A   0       0.390  12.047  20.456  0.00  0.00    +0.000 A 
ATOM     13  N   UNK A   0       1.052  12.140  19.313  0.00  0.00    +0.000 NA
ATOM     14  C   UNK A   0       1.436  10.949  18.824  0.00  0.00    +0.000 A 
BRANCH  14  15
ATOM     15  O   UNK A   0       2.075  11.090  17.628  0.00  0.00    +0.000 OA
ATOM     16  H   UNK A   0       2.689  10.334  17.677  0.00  0.00    +0.000 HD
ENDBRANCH  14  15
BRANCH  12  17
ATOM     17  O   UNK A   0      -0.040  13.200  21.029  0.00  0.00    +0.000 OA
ATOM     18  H   UNK A   0       0.754  13.744  20.892  0.00  0.00    +0.000 HD
ENDBRANCH  12  17
ENDBRANCH   7   8
ENDBRANCH   3   6
ENDBRANCH   1   2
BRANCH   1  19
ATOM     19  C   UNK A   1       6.178   4.746  17.911  0.00  0.00    +0.000 C 
BRANCH  19  20
ATOM     20  S   UNK A   1       6.619   6.258  16.999  0.00  0.00    +0.000 S 
ATOM     21  O   UNK A   1       7.431   5.820  15.728  0.00  0.00    +0.000 OA
BRANCH  20  22
ATOM     22  C   UNK A   1       7.839   6.969  18.159  0.00  0.00    +0.000 C 
BRANCH  22  23
ATOM     23  C   UNK A   1       8.043   8.428  17.731  0.00  0.00    +0.000 C 
BRANCH  23  24
ATOM     24  C   UNK A   1       8.734   9.304  18.766  0.00  0.00    +0.000 C 
BRANCH  24  25
ATOM     25  C   UNK A   1       9.052  10.673  18.150  0.00  0.00    +0.000 C 
BRANCH  25  26
ATOM     26  C   UNK A   1      10.249  11.326  18.832  0.00  0.00    +0.000 C 
BRANCH  26  27
ATOM     27  C   UNK A   1      11.310  11.746  17.816  0.00  0.00    +0.000 C 
BRANCH  27  28
ATOM     28  C   UNK A   1      11.896  13.108  18.184  0.00  0.00    +0.000 C 
BRANCH  28  29
ATOM     29  C   UNK A   1      10.889  13.959  18.954  0.00  0.00    +0.000 C 
BRANCH  29  31
ATOM     30  C   UNK A   1      11.177  15.441  16.944  0.00  0.00    +0.000 C 
ATOM     31  C   UNK A   1      10.226  14.985  18.038  0.00  0.00    +0.000 C 
ENDBRANCH  29  31
ENDBRANCH  28  29
ENDBRANCH  27  28
ENDBRANCH  26  27
ENDBRANCH  25  26
ENDBRANCH  24  25
ENDBRANCH  23  24
ENDBRANCH  22  23
ENDBRANCH  20  22
ENDBRANCH  19  20
ENDBRANCH   1  19
BRANCH   1  32
ATOM     32  C   UNK A   1       4.206   3.406  18.901  0.00  0.00    +0.000 C 
BRANCH  32  33
ATOM     33  O   UNK A   1       5.318   2.890  19.648  0.00  0.00    +0.000 OA
ATOM     34  H   UNK A   1       5.436   1.968  19.355  0.00  0.00    +0.000 HD
ENDBRANCH  32  33
ENDBRANCH   1  32
TORSDOF 18
ENDMDL
MODEL 5
REMARK VINA RESULT:      -6.1      6.872     10.173
REMARK  Name = 
REMARK  20 active torsions:
REMARK  status: ('A' for Active; 'I' for Inactive)
REMARK    1  A    between atoms: C_1  and  C_2
REMARK    2  A    between atoms: C_2  and  C_3
REMARK    3  A    between atoms: C_3  and  C_4
REMARK    4  A    between atoms: C_4  and  C_5
REMARK    5  A    between atoms: C_5  and  C_6
REMARK    6  A    between atoms: C_6  and  C_7
REMARK    7  A    between atoms: C_7  and  C_8
REMARK    8  A    between atoms: C_8  and  C_9
REMARK    9  A    between atoms: C_9  and  C_10
REMARK   10  A    between atoms: C_10  and  S_11
REMARK   11  A    between atoms: S_11  and  C_13
REMARK   12  A    between atoms: C_13  and  C_14
REMARK   13  A    between atoms: C_14  and  C_15
REMARK   14  A    between atoms: C_14  and  N_17
REMARK   15  A    between atoms: C_15  and  O_16
REMARK   16  A    between atoms: C_18  and  C_20
REMARK   17  A    between atoms: C_21  and  C_22
REMARK   18  A    between atoms: C_23  and  C_24
REMARK   19  A    between atoms: C_26  and  O_27
REMARK   20  A    between atoms: C_29  and  O_30
REMARK                            x       y       z     vdW  Elec       q    Type
REMARK                         _______ _______ _______ _____ _____    ______ ____
ROOT
ATOM      1  C   UNK A   1       0.576  10.930  18.973  0.00  0.00    +0.000 C 
ENDROOT
BRANCH   1   2
ATOM      2  N   UNK A   1       1.214   9.658  19.358  0.00  0.00    +0.000 N 
ATOM      3  C   UNK A   0       1.835   8.848  18.444  0.00  0.00    +0.000 C 
ATOM      4  O   UNK A   0       1.867   9.092  17.239  0.00  0.00    +0.000 OA
ATOM      5  H   UNK A   1       1.393   9.523  20.353  0.00  0.00    +0.000 HD
BRANCH   3   6
ATOM      6  C   UNK A   0       2.463   7.634  19.031  0.00  0.00    +0.000 C 
ATOM      7  C   UNK A   0       2.779   6.584  18.245  0.00  0.00    +0.000 C 
BRANCH   7   8
ATOM      8  C   UNK A   0       3.362   5.303  18.704  0.00  0.00    +0.000 A 
ATOM      9  C   UNK A   0       2.640   4.347  19.425  0.00  0.00    +0.000 A 
ATOM     10  C   UNK A   0       1.189   4.475  19.786  0.00  0.00    +0.000 C 
ATOM     11  N   UNK A   0       3.209   3.194  19.875  0.00  0.00    +0.000 NA
ATOM     12  C   UNK A   0       4.507   3.018  19.615  0.00  0.00    +0.000 A 
ATOM     13  N   UNK A   0       5.318   3.842  18.971  0.00  0.00    +0.000 NA
ATOM     14  C   UNK A   0       4.707   4.960  18.543  0.00  0.00    +0.000 A 
BRANCH  14  15
ATOM     15  O   UNK A   0       5.588   5.797  17.924  0.00  0.00    +0.000 OA
ATOM     16  H   UNK A   0       5.647   5.363  17.053  0.00  0.00    +0.000 HD
ENDBRANCH  14  15
BRANCH  12  17
ATOM     17  O   UNK A   0       5.033   1.858  20.086  0.00  0.00    +0.000 OA
ATOM     18  H   UNK A   0       4.258   1.522  20.563  0.00  0.00    +0.000 HD
ENDBRANCH  12  17
ENDBRANCH   7   8
ENDBRANCH   3   6
ENDBRANCH   1   2
BRANCH   1  19
ATOM     19  C   UNK A   1      -0.554  11.320  19.958  0.00  0.00    +0.000 C 
BRANCH  19  20
ATOM     20  S   UNK A   1      -0.244  12.967  20.668  0.00  0.00    +0.000 S 
ATOM     21  O   UNK A   1       0.241  12.758  22.147  0.00  0.00    +0.000 OA
BRANCH  20  22
ATOM     22  C   UNK A   1      -1.962  13.580  20.780  0.00  0.00    +0.000 C 
BRANCH  22  23
ATOM     23  C   UNK A   1      -2.804  12.671  19.877  0.00  0.00    +0.000 C 
BRANCH  23  24
ATOM     24  C   UNK A   1      -4.203  12.373  20.400  0.00  0.00    +0.000 C 
BRANCH  24  25
ATOM     25  C   UNK A   1      -5.208  13.341  19.760  0.00  0.00    +0.000 C 
BRANCH  25  26
ATOM     26  C   UNK A   1      -5.814  12.753  18.490  0.00  0.00    +0.000 C 
BRANCH  26  27
ATOM     27  C   UNK A   1      -5.536  11.255  18.380  0.00  0.00    +0.000 C 
BRANCH  27  28
ATOM     28  C   UNK A   1      -4.595  10.969  17.211  0.00  0.00    +0.000 C 
BRANCH  28  29
ATOM     29  C   UNK A   1      -3.486   9.999  17.613  0.00  0.00    +0.000 C 
BRANCH  29  31
ATOM     30  C   UNK A   1      -2.904  10.492  15.216  0.00  0.00    +0.000 C 
ATOM     31  C   UNK A   1      -2.405   9.929  16.537  0.00  0.00    +0.000 C 
ENDBRANCH  29  31
ENDBRANCH  28  29
ENDBRANCH  27  28
ENDBRANCH  26  27
ENDBRANCH  25  26
ENDBRANCH  24  25
ENDBRANCH  23  24
ENDBRANCH  22  23
ENDBRANCH  20  22
ENDBRANCH  19  20
ENDBRANCH   1  19
BRANCH   1  32
ATOM     32  C   UNK A   1       1.660  12.022  18.831  0.00  0.00    +0.000 C 
BRANCH  32  33
ATOM     33  O   UNK A   1       2.155  12.051  17.484  0.00  0.00    +0.000 OA
ATOM     34  H   UNK A   1       2.010  12.960  17.163  0.00  0.00    +0.000 HD
ENDBRANCH  32  33
ENDBRANCH   1  32
TORSDOF 18
ENDMDL
MODEL 6
REMARK VINA RESULT:      -6.1      5.198      8.615
REMARK  Name = 
REMARK  20 active torsions:
REMARK  status: ('A' for Active; 'I' for Inactive)
REMARK    1  A    between atoms: C_1  and  C_2
REMARK    2  A    between atoms: C_2  and  C_3
REMARK    3  A    between atoms: C_3  and  C_4
REMARK    4  A    between atoms: C_4  and  C_5
REMARK    5  A    between atoms: C_5  and  C_6
REMARK    6  A    between atoms: C_6  and  C_7
REMARK    7  A    between atoms: C_7  and  C_8
REMARK    8  A    between atoms: C_8  and  C_9
REMARK    9  A    between atoms: C_9  and  C_10
REMARK   10  A    between atoms: C_10  and  S_11
REMARK   11  A    between atoms: S_11  and  C_13
REMARK   12  A    between atoms: C_13  and  C_14
REMARK   13  A    between atoms: C_14  and  C_15
REMARK   14  A    between atoms: C_14  and  N_17
REMARK   15  A    between atoms: C_15  and  O_16
REMARK   16  A    between atoms: C_18  and  C_20
REMARK   17  A    between atoms: C_21  and  C_22
REMARK   18  A    between atoms: C_23  and  C_24
REMARK   19  A    between atoms: C_26  and  O_27
REMARK   20  A    between atoms: C_29  and  O_30
REMARK                            x       y       z     vdW  Elec       q    Type
REMARK                         _______ _______ _______ _____ _____    ______ ____
ROOT
ATOM      1  C   UNK A   1       1.995   4.343  19.966  0.00  0.00    +0.000 C 
ENDROOT
BRANCH   1   2
ATOM      2  N   UNK A   1       1.462   5.512  20.687  0.00  0.00    +0.000 N 
ATOM      3  C   UNK A   0       1.872   6.789  20.411  0.00  0.00    +0.000 C 
ATOM      4  O   UNK A   0       2.742   7.053  19.583  0.00  0.00    +0.000 OA
ATOM      5  H   UNK A   1       0.605   5.364  21.221  0.00  0.00    +0.000 HD
BRANCH   3   6
ATOM      6  C   UNK A   0       1.183   7.839  21.209  0.00  0.00    +0.000 C 
ATOM      7  C   UNK A   0       0.967   9.061  20.681  0.00  0.00    +0.000 C 
BRANCH   7   8
ATOM      8  C   UNK A   0       0.338  10.207  21.378  0.00  0.00    +0.000 A 
ATOM      9  C   UNK A   0       0.508  11.535  20.976  0.00  0.00    +0.000 A 
ATOM     10  C   UNK A   0       1.304  11.964  19.778  0.00  0.00    +0.000 C 
ATOM     11  N   UNK A   0      -0.045  12.577  21.658  0.00  0.00    +0.000 NA
ATOM     12  C   UNK A   0      -0.749  12.277  22.753  0.00  0.00    +0.000 A 
ATOM     13  N   UNK A   0      -0.971  11.077  23.265  0.00  0.00    +0.000 NA
ATOM     14  C   UNK A   0      -0.410  10.085  22.552  0.00  0.00    +0.000 A 
BRANCH  14  15
ATOM     15  O   UNK A   0      -0.628   8.873  23.138  0.00  0.00    +0.000 OA
ATOM     16  H   UNK A   0      -0.767   9.156  24.060  0.00  0.00    +0.000 HD
ENDBRANCH  14  15
BRANCH  12  17
ATOM     17  O   UNK A   0      -1.277  13.346  23.404  0.00  0.00    +0.000 OA
ATOM     18  H   UNK A   0      -1.883  12.876  24.000  0.00  0.00    +0.000 HD
ENDBRANCH  12  17
ENDBRANCH   7   8
ENDBRANCH   3   6
ENDBRANCH   1   2
BRANCH   1  19
ATOM     19  C   UNK A   1       3.056   3.590  20.807  0.00  0.00    +0.000 C 
BRANCH  19  20
ATOM     20  S   UNK A   1       4.171   2.640  19.728  0.00  0.00    +0.000 S 
ATOM     21  O   UNK A   1       5.034   1.706  20.651  0.00  0.00    +0.000 OA
BRANCH  20  22
ATOM     22  C   UNK A   1       5.285   3.983  19.183  0.00  0.00    +0.000 C 
BRANCH  22  23
ATOM     23  C   UNK A   1       5.552   3.743  17.692  0.00  0.00    +0.000 C 
BRANCH  23  24
ATOM     24  C   UNK A   1       4.368   4.036  16.779  0.00  0.00    +0.000 C 
BRANCH  24  25
ATOM     25  C   UNK A   1       4.018   5.529  16.855  0.00  0.00    +0.000 C 
BRANCH  25  26
ATOM     26  C   UNK A   1       5.096   6.387  16.203  0.00  0.00    +0.000 C 
BRANCH  26  27
ATOM     27  C   UNK A   1       5.853   7.215  17.239  0.00  0.00    +0.000 C 
BRANCH  27  28
ATOM     28  C   UNK A   1       7.336   6.850  17.238  0.00  0.00    +0.000 C 
BRANCH  28  29
ATOM     29  C   UNK A   1       8.108   7.650  18.285  0.00  0.00    +0.000 C 
BRANCH  29  31
ATOM     30  C   UNK A   1       8.951   9.930  18.931  0.00  0.00    +0.000 C 
ATOM     31  C   UNK A   1       8.274   9.104  17.850  0.00  0.00    +0.000 C 
ENDBRANCH  29  31
ENDBRANCH  28  29
ENDBRANCH  27  28
ENDBRANCH  26  27
ENDBRANCH  25  26
ENDBRANCH  24  25
ENDBRANCH  23  24
ENDBRANCH  22  23
ENDBRANCH  20  22
ENDBRANCH  19  20
ENDBRANCH   1  19
BRANCH   1  32
ATOM     32  C   UNK A   1       0.823   3.440  19.520  0.00  0.00    +0.000 C 
BRANCH  32  33
ATOM     33  O   UNK A   1       0.912   3.180  18.112  0.00  0.00    +0.000 OA
ATOM     34  H   UNK A   1       0.207   3.708  17.694  0.00  0.00    +0.000 HD
ENDBRANCH  32  33
ENDBRANCH   1  32
TORSDOF 18
ENDMDL
MODEL 7
REMARK VINA RESULT:      -6.1      1.835      2.768
REMARK  Name = 
REMARK  20 active torsions:
REMARK  status: ('A' for Active; 'I' for Inactive)
REMARK    1  A    between atoms: C_1  and  C_2
REMARK    2  A    between atoms: C_2  and  C_3
REMARK    3  A    between atoms: C_3  and  C_4
REMARK    4  A    between atoms: C_4  and  C_5
REMARK    5  A    between atoms: C_5  and  C_6
REMARK    6  A    between atoms: C_6  and  C_7
REMARK    7  A    between atoms: C_7  and  C_8
REMARK    8  A    between atoms: C_8  and  C_9
REMARK    9  A    between atoms: C_9  and  C_10
REMARK   10  A    between atoms: C_10  and  S_11
REMARK   11  A    between atoms: S_11  and  C_13
REMARK   12  A    between atoms: C_13  and  C_14
REMARK   13  A    between atoms: C_14  and  C_15
REMARK   14  A    between atoms: C_14  and  N_17
REMARK   15  A    between atoms: C_15  and  O_16
REMARK   16  A    between atoms: C_18  and  C_20
REMARK   17  A    between atoms: C_21  and  C_22
REMARK   18  A    between atoms: C_23  and  C_24
REMARK   19  A    between atoms: C_26  and  O_27
REMARK   20  A    between atoms: C_29  and  O_30
REMARK                            x       y       z     vdW  Elec       q    Type
REMARK                         _______ _______ _______ _____ _____    ______ ____
ROOT
ATOM      1  C   UNK A   1       6.509   6.163  16.906  0.00  0.00    +0.000 C 
ENDROOT
BRANCH   1   2
ATOM      2  N   UNK A   1       7.067   7.524  16.831  0.00  0.00    +0.000 N 
ATOM      3  C   UNK A   0       7.978   7.991  17.742  0.00  0.00    +0.000 C 
ATOM      4  O   UNK A   0       8.359   7.335  18.710  0.00  0.00    +0.000 OA
ATOM      5  H   UNK A   1       6.944   8.017  15.946  0.00  0.00    +0.000 HD
BRANCH   3   6
ATOM      6  C   UNK A   0       8.463   9.371  17.470  0.00  0.00    +0.000 C 
ATOM      7  C   UNK A   0       8.753  10.203  18.491  0.00  0.00    +0.000 C 
BRANCH   7   8
ATOM      8  C   UNK A   0       9.197  11.610  18.363  0.00  0.00    +0.000 A 
ATOM      9  C   UNK A   0      10.321  12.121  19.018  0.00  0.00    +0.000 A 
ATOM     10  C   UNK A   0      11.236  11.311  19.890  0.00  0.00    +0.000 C 
ATOM     11  N   UNK A   0      10.687  13.430  18.920  0.00  0.00    +0.000 NA
ATOM     12  C   UNK A   0       9.907  14.221  18.180  0.00  0.00    +0.000 A 
ATOM     13  N   UNK A   0       8.805  13.886  17.528  0.00  0.00    +0.000 NA
ATOM     14  C   UNK A   0       8.492  12.584  17.651  0.00  0.00    +0.000 A 
BRANCH  14  15
ATOM     15  O   UNK A   0       7.330  12.293  17.001  0.00  0.00    +0.000 OA
ATOM     16  H   UNK A   0       7.225  13.107  16.474  0.00  0.00    +0.000 HD
ENDBRANCH  14  15
BRANCH  12  17
ATOM     17  O   UNK A   0      10.305  15.518  18.115  0.00  0.00    +0.000 OA
ATOM     18  H   UNK A   0       9.720  15.892  18.793  0.00  0.00    +0.000 HD
ENDBRANCH  12  17
ENDBRANCH   7   8
ENDBRANCH   3   6
ENDBRANCH   1   2
BRANCH   1  19
ATOM     19  C   UNK A   1       5.111   6.158  17.575  0.00  0.00    +0.000 C 
BRANCH  19  20
ATOM     20  S   UNK A   1       4.923   4.702  18.651  0.00  0.00    +0.000 S 
ATOM     21  O   UNK A   1       6.345   4.350  19.217  0.00  0.00    +0.000 OA
BRANCH  20  22
ATOM     22  C   UNK A   1       4.551   3.434  17.388  0.00  0.00    +0.000 C 
BRANCH  22  23
ATOM     23  C   UNK A   1       3.199   2.824  17.775  0.00  0.00    +0.000 C 
BRANCH  23  24
ATOM     24  C   UNK A   1       3.234   1.926  19.004  0.00  0.00    +0.000 C 
BRANCH  24  25
ATOM     25  C   UNK A   1       3.108   2.784  20.270  0.00  0.00    +0.000 C 
BRANCH  25  26
ATOM     26  C   UNK A   1       1.691   2.744  20.831  0.00  0.00    +0.000 C 
BRANCH  26  27
ATOM     27  C   UNK A   1       0.797   3.787  20.163  0.00  0.00    +0.000 C 
BRANCH  27  28
ATOM     28  C   UNK A   1       1.587   5.061  19.867  0.00  0.00    +0.000 C 
BRANCH  28  29
ATOM     29  C   UNK A   1       1.498   6.054  21.023  0.00  0.00    +0.000 C 
BRANCH  29  31
ATOM     30  C   UNK A   1       2.240   7.498  19.102  0.00  0.00    +0.000 C 
ATOM     31  C   UNK A   1       1.743   7.481  20.538  0.00  0.00    +0.000 C 
ENDBRANCH  29  31
ENDBRANCH  28  29
ENDBRANCH  27  28
ENDBRANCH  26  27
ENDBRANCH  25  26
ENDBRANCH  24  25
ENDBRANCH  23  24
ENDBRANCH  22  23
ENDBRANCH  20  22
ENDBRANCH  19  20
ENDBRANCH   1  19
BRANCH   1  32
ATOM     32  C   UNK A   1       6.508   5.532  15.496  0.00  0.00    +0.000 C 
BRANCH  32  33
ATOM     33  O   UNK A   1       7.792   5.707  14.880  0.00  0.00    +0.000 OA
ATOM     34  H   UNK A   1       7.912   4.944  14.284  0.00  0.00    +0.000 HD
ENDBRANCH  32  33
ENDBRANCH   1  32
TORSDOF 18
ENDMDL
MODEL 8
REMARK VINA RESULT:      -6.1      4.253      9.474
REMARK  Name = 
REMARK  20 active torsions:
REMARK  status: ('A' for Active; 'I' for Inactive)
REMARK    1  A    between atoms: C_1  and  C_2
REMARK    2  A    between atoms: C_2  and  C_3
REMARK    3  A    between atoms: C_3  and  C_4
REMARK    4  A    between atoms: C_4  and  C_5
REMARK    5  A    between atoms: C_5  and  C_6
REMARK    6  A    between atoms: C_6  and  C_7
REMARK    7  A    between atoms: C_7  and  C_8
REMARK    8  A    between atoms: C_8  and  C_9
REMARK    9  A    between atoms: C_9  and  C_10
REMARK   10  A    between atoms: C_10  and  S_11
REMARK   11  A    between atoms: S_11  and  C_13
REMARK   12  A    between atoms: C_13  and  C_14
REMARK   13  A    between atoms: C_14  and  C_15
REMARK   14  A    between atoms: C_14  and  N_17
REMARK   15  A    between atoms: C_15  and  O_16
REMARK   16  A    between atoms: C_18  and  C_20
REMARK   17  A    between atoms: C_21  and  C_22
REMARK   18  A    between atoms: C_23  and  C_24
REMARK   19  A    between atoms: C_26  and  O_27
REMARK   20  A    between atoms: C_29  and  O_30
REMARK                            x       y       z     vdW  Elec       q    Type
REMARK                         _______ _______ _______ _____ _____    ______ ____
ROOT
ATOM      1  C   UNK A   1       4.732   4.562  17.607  0.00  0.00    +0.000 C 
ENDROOT
BRANCH   1   2
ATOM      2  N   UNK A   1       3.622   5.516  17.775  0.00  0.00    +0.000 N 
ATOM      3  C   UNK A   0       3.059   5.773  18.998  0.00  0.00    +0.000 C 
ATOM      4  O   UNK A   0       3.399   5.197  20.030  0.00  0.00    +0.000 OA
ATOM      5  H   UNK A   1       3.454   6.159  17.001  0.00  0.00    +0.000 HD
BRANCH   3   6
ATOM      6  C   UNK A   0       1.986   6.803  18.973  0.00  0.00    +0.000 C 
ATOM      7  C   UNK A   0       2.238   8.058  19.400  0.00  0.00    +0.000 C 
BRANCH   7   8
ATOM      8  C   UNK A   0       1.255   9.162  19.473  0.00  0.00    +0.000 A 
ATOM      9  C   UNK A   0       0.321   9.290  20.505  0.00  0.00    +0.000 A 
ATOM     10  C   UNK A   0       0.223   8.362  21.680  0.00  0.00    +0.000 C 
ATOM     11  N   UNK A   0      -0.604  10.291  20.529  0.00  0.00    +0.000 NA
ATOM     12  C   UNK A   0      -0.597  11.144  19.502  0.00  0.00    +0.000 A 
ATOM     13  N   UNK A   0       0.205  11.132  18.449  0.00  0.00    +0.000 NA
ATOM     14  C   UNK A   0       1.101  10.131  18.477  0.00  0.00    +0.000 A 
BRANCH  14  15
ATOM     15  O   UNK A   0       1.876  10.131  17.355  0.00  0.00    +0.000 OA
ATOM     16  H   UNK A   0       2.153  11.066  17.344  0.00  0.00    +0.000 HD
ENDBRANCH  14  15
BRANCH  12  17
ATOM     17  O   UNK A   0      -1.538  12.122  19.564  0.00  0.00    +0.000 OA
ATOM     18  H   UNK A   0      -1.031  12.791  20.052  0.00  0.00    +0.000 HD
ENDBRANCH  12  17
ENDBRANCH   7   8
ENDBRANCH   3   6
ENDBRANCH   1   2
BRANCH   1  19
ATOM     19  C   UNK A   1       6.061   5.134  18.162  0.00  0.00    +0.000 C 
BRANCH  19  20
ATOM     20  S   UNK A   1       6.690   6.455  17.079  0.00  0.00    +0.000 S 
ATOM     21  O   UNK A   1       7.543   5.771  15.951  0.00  0.00    +0.000 OA
BRANCH  20  22
ATOM     22  C   UNK A   1       7.888   7.237  18.216  0.00  0.00    +0.000 C 
BRANCH  22  23
ATOM     23  C   UNK A   1       7.976   8.711  17.804  0.00  0.00    +0.000 C 
BRANCH  23  24
ATOM     24  C   UNK A   1       8.882   9.565  18.681  0.00  0.00    +0.000 C 
BRANCH  24  25
ATOM     25  C   UNK A   1       9.025  10.963  18.065  0.00  0.00    +0.000 C 
BRANCH  25  26
ATOM     26  C   UNK A   1      10.431  11.518  18.266  0.00  0.00    +0.000 C 
BRANCH  26  27
ATOM     27  C   UNK A   1      10.481  13.021  17.997  0.00  0.00    +0.000 C 
BRANCH  27  28
ATOM     28  C   UNK A   1       9.313  13.728  18.682  0.00  0.00    +0.000 C 
BRANCH  28  29
ATOM     29  C   UNK A   1       9.296  15.220  18.358  0.00  0.00    +0.000 C 
BRANCH  29  31
ATOM     30  C   UNK A   1       6.990  14.462  17.701  0.00  0.00    +0.000 C 
ATOM     31  C   UNK A   1       7.933  15.648  17.820  0.00  0.00    +0.000 C 
ENDBRANCH  29  31
ENDBRANCH  28  29
ENDBRANCH  27  28
ENDBRANCH  26  27
ENDBRANCH  25  26
ENDBRANCH  24  25
ENDBRANCH  23  24
ENDBRANCH  22  23
ENDBRANCH  20  22
ENDBRANCH  19  20
ENDBRANCH   1  19
BRANCH   1  32
ATOM     32  C   UNK A   1       4.343   3.209  18.242  0.00  0.00    +0.000 C 
BRANCH  32  33
ATOM     33  O   UNK A   1       5.237   2.897  19.320  0.00  0.00    +0.000 OA
ATOM     34  H   UNK A   1       5.246   3.682  19.899  0.00  0.00    +0.000 HD
ENDBRANCH  32  33
ENDBRANCH   1  32
TORSDOF 18
ENDMDL
MODEL 9
REMARK VINA RESULT:      -6.0      6.014      8.699
REMARK  Name = 
REMARK  20 active torsions:
REMARK  status: ('A' for Active; 'I' for Inactive)
REMARK    1  A    between atoms: C_1  and  C_2
REMARK    2  A    between atoms: C_2  and  C_3
REMARK    3  A    between atoms: C_3  and  C_4
REMARK    4  A    between atoms: C_4  and  C_5
REMARK    5  A    between atoms: C_5  and  C_6
REMARK    6  A    between atoms: C_6  and  C_7
REMARK    7  A    between atoms: C_7  and  C_8
REMARK    8  A    between atoms: C_8  and  C_9
REMARK    9  A    between atoms: C_9  and  C_10
REMARK   10  A    between atoms: C_10  and  S_11
REMARK   11  A    between atoms: S_11  and  C_13
REMARK   12  A    between atoms: C_13  and  C_14
REMARK   13  A    between atoms: C_14  and  C_15
REMARK   14  A    between atoms: C_14  and  N_17
REMARK   15  A    between atoms: C_15  and  O_16
REMARK   16  A    between atoms: C_18  and  C_20
REMARK   17  A    between atoms: C_21  and  C_22
REMARK   18  A    between atoms: C_23  and  C_24
REMARK   19  A    between atoms: C_26  and  O_27
REMARK   20  A    between atoms: C_29  and  O_30
REMARK                            x       y       z     vdW  Elec       q    Type
REMARK                         _______ _______ _______ _____ _____    ______ ____
ROOT
ATOM      1  C   UNK A   1       2.810   6.209  18.812  0.00  0.00    +0.000 C 
ENDROOT
BRANCH   1   2
ATOM      2  N   UNK A   1       2.450   7.445  19.528  0.00  0.00    +0.000 N 
ATOM      3  C   UNK A   0       1.728   8.447  18.936  0.00  0.00    +0.000 C 
ATOM      4  O   UNK A   0       1.370   8.416  17.760  0.00  0.00    +0.000 OA
ATOM      5  H   UNK A   1       2.540   7.424  20.544  0.00  0.00    +0.000 HD
BRANCH   3   6
ATOM      6  C   UNK A   0       1.420   9.592  19.836  0.00  0.00    +0.000 C 
ATOM      7  C   UNK A   0       0.163   9.783  20.287  0.00  0.00    +0.000 C 
BRANCH   7   8
ATOM      8  C   UNK A   0      -0.289  10.902  21.145  0.00  0.00    +0.000 A 
ATOM      9  C   UNK A   0      -0.231  12.241  20.751  0.00  0.00    +0.000 A 
ATOM     10  C   UNK A   0       0.250  12.711  19.408  0.00  0.00    +0.000 C 
ATOM     11  N   UNK A   0      -0.612  13.258  21.574  0.00  0.00    +0.000 NA
ATOM     12  C   UNK A   0      -1.029  12.922  22.797  0.00  0.00    +0.000 A 
ATOM     13  N   UNK A   0      -1.111  11.706  23.315  0.00  0.00    +0.000 NA
ATOM     14  C   UNK A   0      -0.731  10.741  22.461  0.00  0.00    +0.000 A 
BRANCH  14  15
ATOM     15  O   UNK A   0      -0.791   9.512  23.049  0.00  0.00    +0.000 OA
ATOM     16  H   UNK A   0      -1.464   9.687  23.733  0.00  0.00    +0.000 HD
ENDBRANCH  14  15
BRANCH  12  17
ATOM     17  O   UNK A   0      -1.394  13.967  23.585  0.00  0.00    +0.000 OA
ATOM     18  H   UNK A   0      -1.877  13.479  24.271  0.00  0.00    +0.000 HD
ENDBRANCH  12  17
ENDBRANCH   7   8
ENDBRANCH   3   6
ENDBRANCH   1   2
BRANCH   1  19
ATOM     19  C   UNK A   1       4.330   6.144  18.519  0.00  0.00    +0.000 C 
BRANCH  19  20
ATOM     20  S   UNK A   1       5.028   4.570  19.109  0.00  0.00    +0.000 S 
ATOM     21  O   UNK A   1       6.590   4.729  19.134  0.00  0.00    +0.000 OA
BRANCH  20  22
ATOM     22  C   UNK A   1       4.651   3.510  17.669  0.00  0.00    +0.000 C 
BRANCH  22  23
ATOM     23  C   UNK A   1       5.011   4.329  16.424  0.00  0.00    +0.000 C 
BRANCH  23  24
ATOM     24  C   UNK A   1       6.339   3.956  15.778  0.00  0.00    +0.000 C 
BRANCH  24  25
ATOM     25  C   UNK A   1       6.487   4.696  14.442  0.00  0.00    +0.000 C 
BRANCH  25  26
ATOM     26  C   UNK A   1       5.540   4.134  13.387  0.00  0.00    +0.000 C 
BRANCH  26  27
ATOM     27  C   UNK A   1       6.303   3.383  12.296  0.00  0.00    +0.000 C 
BRANCH  27  28
ATOM     28  C   UNK A   1       5.363   2.991  11.158  0.00  0.00    +0.000 C 
BRANCH  28  29
ATOM     29  C   UNK A   1       3.900   3.174  11.554  0.00  0.00    +0.000 C 
BRANCH  29  31
ATOM     30  C   UNK A   1       3.099   4.312   9.459  0.00  0.00    +0.000 C 
ATOM     31  C   UNK A   1       2.987   3.075  10.334  0.00  0.00    +0.000 C 
ENDBRANCH  29  31
ENDBRANCH  28  29
ENDBRANCH  27  28
ENDBRANCH  26  27
ENDBRANCH  25  26
ENDBRANCH  24  25
ENDBRANCH  23  24
ENDBRANCH  22  23
ENDBRANCH  20  22
ENDBRANCH  19  20
ENDBRANCH   1  19
BRANCH   1  32
ATOM     32  C   UNK A   1       2.294   4.989  19.607  0.00  0.00    +0.000 C 
BRANCH  32  33
ATOM     33  O   UNK A   1       2.010   5.370  20.961  0.00  0.00    +0.000 OA
ATOM     34  H   UNK A   1       2.700   6.012  21.211  0.00  0.00    +0.000 HD
ENDBRANCH  32  33
ENDBRANCH   1  32
TORSDOF 18
ENDMDL
