MODEL 1
REMARK VINA RESULT:      -6.5      0.000      0.000
REMARK  Name = 
REMARK  7 active torsions:
REMARK  status: ('A' for Active; 'I' for Inactive)
REMARK    1  A    between atoms: C_1  and  O_2
REMARK    2  A    between atoms: O_2  and  C_3
REMARK    3  A    between atoms: C_8  and  O_9
REMARK    4  A    between atoms: O_9  and  C_10
REMARK    5  A    between atoms: N_12  and  N_13
REMARK    6  A    between atoms: N_13  and  C_14
REMARK    7  A    between atoms: C_14  and  N_15
REMARK                            x       y       z     vdW  Elec       q    Type
REMARK                         _______ _______ _______ _____ _____    ______ ____
ROOT
ATOM      1  C   UNL     1       5.918   4.635  16.230  0.00  0.00    +0.000 A 
ATOM      2  C   UNL     1       4.721   3.917  16.419  0.00  0.00    +0.000 A 
ATOM      3  C   UNL     1       3.780   4.396  17.316  0.00  0.00    +0.000 A 
ATOM      4  C   UNL     1       4.030   5.577  17.995  0.00  0.00    +0.000 A 
ATOM      5  C   UNL     1       5.185   6.319  17.829  0.00  0.00    +0.000 A 
ATOM      6  C   UNL     1       6.145   5.851  16.927  0.00  0.00    +0.000 A 
ATOM      7  C   UNL     1       2.902   5.874  18.860  0.00  0.00    +0.000 C 
ATOM      8  N   UNL     1       2.861   6.960  19.569  0.00  0.00    +0.000 NA
ATOM      9  C   UNL     1       1.908   4.743  18.779  0.00  0.00    +0.000 C 
ATOM     10  C   UNL     1       2.428   3.840  17.639  0.00  0.00    +0.000 C 
ENDROOT
BRANCH   1  12
ATOM     11  C   UNL     1       6.237   3.993  13.953  0.00  0.00    +0.000 C 
ATOM     12  O   UNL     1       6.744   4.084  15.280  0.00  0.00    +0.000 OA
ENDBRANCH   1  12
BRANCH   6  13
ATOM     13  O   UNL     1       7.299   6.542  16.657  0.00  0.00    +0.000 OA
ATOM     14  C   UNL     1       7.677   7.588  17.538  0.00  0.00    +0.000 C 
ENDBRANCH   6  13
BRANCH   8  15
ATOM     15  N   UNL     1       1.776   7.157  20.369  0.00  0.00    +0.000 N 
ATOM     16  H   UNL     1       1.205   6.376  20.678  0.00  0.00    +0.000 HD
BRANCH  15  17
ATOM     17  C   UNL     1       1.428   8.410  20.793  0.00  0.00    +0.000 C 
ATOM     18  S   UNL     1       0.826   9.562  19.761  0.00  0.00    +0.000 S 
BRANCH  17  19
ATOM     19  N   UNL     1       1.604   8.658  22.115  0.00  0.00    +0.000 N 
ATOM     20  H   UNL     1       0.922   9.256  22.565  0.00  0.00    +0.000 HD
ATOM     21  H   UNL     1       2.363   8.246  22.637  0.00  0.00    +0.000 HD
ENDBRANCH  17  19
ENDBRANCH  15  17
ENDBRANCH   8  15
TORSDOF 5
ENDMDL
MODEL 2
REMARK VINA RESULT:      -6.2      4.802      7.043
REMARK  Name = 
REMARK  7 active torsions:
REMARK  status: ('A' for Active; 'I' for Inactive)
REMARK    1  A    between atoms: C_1  and  O_2
REMARK    2  A    between atoms: O_2  and  C_3
REMARK    3  A    between atoms: C_8  and  O_9
REMARK    4  A    between atoms: O_9  and  C_10
REMARK    5  A    between atoms: N_12  and  N_13
REMARK    6  A    between atoms: N_13  and  C_14
REMARK    7  A    between atoms: C_14  and  N_15
REMARK                            x       y       z     vdW  Elec       q    Type
REMARK                         _______ _______ _______ _____ _____    ______ ____
ROOT
ATOM      1  C   UNL     1       3.611   4.734  19.100  0.00  0.00    +0.000 A 
ATOM      2  C   UNL     1       4.851   5.366  18.886  0.00  0.00    +0.000 A 
ATOM      3  C   UNL     1       5.510   5.173  17.683  0.00  0.00    +0.000 A 
ATOM      4  C   UNL     1       4.928   4.376  16.712  0.00  0.00    +0.000 A 
ATOM      5  C   UNL     1       3.707   3.748  16.875  0.00  0.00    +0.000 A 
ATOM      6  C   UNL     1       3.028   3.932  18.083  0.00  0.00    +0.000 A 
ATOM      7  C   UNL     1       5.796   4.337  15.548  0.00  0.00    +0.000 C 
ATOM      8  N   UNL     1       5.456   3.698  14.471  0.00  0.00    +0.000 NA
ATOM      9  C   UNL     1       7.061   5.100  15.851  0.00  0.00    +0.000 C 
ATOM     10  C   UNL     1       6.797   5.778  17.214  0.00  0.00    +0.000 C 
ENDROOT
BRANCH   1  12
ATOM     11  C   UNL     1       2.092   6.108  20.324  0.00  0.00    +0.000 C 
ATOM     12  O   UNL     1       3.037   5.044  20.309  0.00  0.00    +0.000 OA
ENDBRANCH   1  12
BRANCH   6  13
ATOM     13  O   UNL     1       1.789   3.392  18.320  0.00  0.00    +0.000 OA
ATOM     14  C   UNL     1       1.719   2.135  18.973  0.00  0.00    +0.000 C 
ENDBRANCH   6  13
BRANCH   8  15
ATOM     15  N   UNL     1       6.333   3.694  13.429  0.00  0.00    +0.000 N 
ATOM     16  H   UNL     1       7.243   4.140  13.509  0.00  0.00    +0.000 HD
BRANCH  15  17
ATOM     17  C   UNL     1       6.025   3.080  12.246  0.00  0.00    +0.000 C 
ATOM     18  S   UNL     1       4.532   3.221  11.536  0.00  0.00    +0.000 S 
BRANCH  17  19
ATOM     19  N   UNL     1       7.017   2.346  11.684  0.00  0.00    +0.000 N 
ATOM     20  H   UNL     1       7.401   2.686  10.810  0.00  0.00    +0.000 HD
ATOM     21  H   UNL     1       7.377   1.513  12.125  0.00  0.00    +0.000 HD
ENDBRANCH  17  19
ENDBRANCH  15  17
ENDBRANCH   8  15
TORSDOF 5
ENDMDL
MODEL 3
REMARK VINA RESULT:      -6.2      3.716      5.305
REMARK  Name = 
REMARK  7 active torsions:
REMARK  status: ('A' for Active; 'I' for Inactive)
REMARK    1  A    between atoms: C_1  and  O_2
REMARK    2  A    between atoms: O_2  and  C_3
REMARK    3  A    between atoms: C_8  and  O_9
REMARK    4  A    between atoms: O_9  and  C_10
REMARK    5  A    between atoms: N_12  and  N_13
REMARK    6  A    between atoms: N_13  and  C_14
REMARK    7  A    between atoms: C_14  and  N_15
REMARK                            x       y       z     vdW  Elec       q    Type
REMARK                         _______ _______ _______ _____ _____    ______ ____
ROOT
ATOM      1  C   UNL     1       2.569   3.701  17.699  0.00  0.00    +0.000 A 
ATOM      2  C   UNL     1       3.643   3.311  16.875  0.00  0.00    +0.000 A 
ATOM      3  C   UNL     1       4.702   4.184  16.687  0.00  0.00    +0.000 A 
ATOM      4  C   UNL     1       4.690   5.413  17.325  0.00  0.00    +0.000 A 
ATOM      5  C   UNL     1       3.663   5.829  18.153  0.00  0.00    +0.000 A 
ATOM      6  C   UNL     1       2.586   4.961  18.354  0.00  0.00    +0.000 A 
ATOM      7  C   UNL     1       5.902   6.136  16.984  0.00  0.00    +0.000 C 
ATOM      8  N   UNL     1       6.162   7.299  17.497  0.00  0.00    +0.000 NA
ATOM      9  C   UNL     1       6.692   5.330  15.984  0.00  0.00    +0.000 C 
ATOM     10  C   UNL     1       5.963   3.970  15.908  0.00  0.00    +0.000 C 
ENDROOT
BRANCH   1  12
ATOM     11  C   UNL     1       1.710   1.881  18.982  0.00  0.00    +0.000 C 
ATOM     12  O   UNL     1       1.608   2.730  17.845  0.00  0.00    +0.000 OA
ENDBRANCH   1  12
BRANCH   6  13
ATOM     13  O   UNL     1       1.546   5.263  19.196  0.00  0.00    +0.000 OA
ATOM     14  C   UNL     1       1.781   5.224  20.595  0.00  0.00    +0.000 C 
ENDBRANCH   6  13
BRANCH   8  15
ATOM     15  N   UNL     1       7.312   7.922  17.112  0.00  0.00    +0.000 N 
ATOM     16  H   UNL     1       7.549   8.022  16.129  0.00  0.00    +0.000 HD
BRANCH  15  17
ATOM     17  C   UNL     1       8.178   8.442  18.034  0.00  0.00    +0.000 C 
ATOM     18  S   UNL     1       8.673  10.025  17.994  0.00  0.00    +0.000 S 
BRANCH  17  19
ATOM     19  N   UNL     1       8.610   7.583  18.990  0.00  0.00    +0.000 N 
ATOM     20  H   UNL     1       9.421   7.017  18.767  0.00  0.00    +0.000 HD
ATOM     21  H   UNL     1       8.165   7.524  19.894  0.00  0.00    +0.000 HD
ENDBRANCH  17  19
ENDBRANCH  15  17
ENDBRANCH   8  15
TORSDOF 5
ENDMDL
MODEL 4
REMARK VINA RESULT:      -6.1      1.868      1.981
REMARK  Name = 
REMARK  7 active torsions:
REMARK  status: ('A' for Active; 'I' for Inactive)
REMARK    1  A    between atoms: C_1  and  O_2
REMARK    2  A    between atoms: O_2  and  C_3
REMARK    3  A    between atoms: C_8  and  O_9
REMARK    4  A    between atoms: O_9  and  C_10
REMARK    5  A    between atoms: N_12  and  N_13
REMARK    6  A    between atoms: N_13  and  C_14
REMARK    7  A    between atoms: C_14  and  N_15
REMARK                            x       y       z     vdW  Elec       q    Type
REMARK                         _______ _______ _______ _____ _____    ______ ____
ROOT
ATOM      1  C   UNL     1       6.871   5.232  15.633  0.00  0.00    +0.000 A 
ATOM      2  C   UNL     1       5.911   4.201  15.631  0.00  0.00    +0.000 A 
ATOM      3  C   UNL     1       5.047   4.080  16.707  0.00  0.00    +0.000 A 
ATOM      4  C   UNL     1       5.137   4.983  17.753  0.00  0.00    +0.000 A 
ATOM      5  C   UNL     1       6.055   6.017  17.788  0.00  0.00    +0.000 A 
ATOM      6  C   UNL     1       6.934   6.154  16.711  0.00  0.00    +0.000 A 
ATOM      7  C   UNL     1       4.128   4.659  18.747  0.00  0.00    +0.000 C 
ATOM      8  N   UNL     1       3.964   5.389  19.807  0.00  0.00    +0.000 NA
ATOM      9  C   UNL     1       3.411   3.401  18.328  0.00  0.00    +0.000 C 
ATOM     10  C   UNL     1       3.924   3.109  16.901  0.00  0.00    +0.000 C 
ENDROOT
BRANCH   1  12
ATOM     11  C   UNL     1       7.106   4.629  13.336  0.00  0.00    +0.000 C 
ATOM     12  O   UNL     1       7.632   5.275  14.489  0.00  0.00    +0.000 OA
ENDBRANCH   1  12
BRANCH   6  13
ATOM     13  O   UNL     1       7.845   7.177  16.631  0.00  0.00    +0.000 OA
ATOM     14  C   UNL     1       7.824   8.175  17.638  0.00  0.00    +0.000 C 
ENDBRANCH   6  13
BRANCH   8  15
ATOM     15  N   UNL     1       3.008   5.008  20.701  0.00  0.00    +0.000 N 
ATOM     16  H   UNL     1       3.219   4.344  21.441  0.00  0.00    +0.000 HD
BRANCH  15  17
ATOM     17  C   UNL     1       1.739   5.514  20.638  0.00  0.00    +0.000 C 
ATOM     18  S   UNL     1       1.425   7.139  20.745  0.00  0.00    +0.000 S 
BRANCH  17  19
ATOM     19  N   UNL     1       0.746   4.603  20.483  0.00  0.00    +0.000 N 
ATOM     20  H   UNL     1       0.893   3.689  20.894  0.00  0.00    +0.000 HD
ATOM     21  H   UNL     1      -0.112   4.828  20.002  0.00  0.00    +0.000 HD
ENDBRANCH  17  19
ENDBRANCH  15  17
ENDBRANCH   8  15
TORSDOF 5
ENDMDL
MODEL 5
REMARK VINA RESULT:      -6.1      2.778      4.361
REMARK  Name = 
REMARK  7 active torsions:
REMARK  status: ('A' for Active; 'I' for Inactive)
REMARK    1  A    between atoms: C_1  and  O_2
REMARK    2  A    between atoms: O_2  and  C_3
REMARK    3  A    between atoms: C_8  and  O_9
REMARK    4  A    between atoms: O_9  and  C_10
REMARK    5  A    between atoms: N_12  and  N_13
REMARK    6  A    between atoms: N_13  and  C_14
REMARK    7  A    between atoms: C_14  and  N_15
REMARK                            x       y       z     vdW  Elec       q    Type
REMARK                         _______ _______ _______ _____ _____    ______ ____
ROOT
ATOM      1  C   UNL     1       3.127   4.681  18.883  0.00  0.00    +0.000 A 
ATOM      2  C   UNL     1       3.137   5.832  18.071  0.00  0.00    +0.000 A 
ATOM      3  C   UNL     1       2.555   6.997  18.543  0.00  0.00    +0.000 A 
ATOM      4  C   UNL     1       1.989   7.009  19.807  0.00  0.00    +0.000 A 
ATOM      5  C   UNL     1       1.969   5.905  20.640  0.00  0.00    +0.000 A 
ATOM      6  C   UNL     1       2.552   4.721  20.181  0.00  0.00    +0.000 A 
ATOM      7  C   UNL     1       1.459   8.334  20.077  0.00  0.00    +0.000 C 
ATOM      8  N   UNL     1       0.921   8.626  21.221  0.00  0.00    +0.000 NA
ATOM      9  C   UNL     1       1.630   9.192  18.849  0.00  0.00    +0.000 C 
ATOM     10  C   UNL     1       2.493   8.343  17.890  0.00  0.00    +0.000 C 
ENDROOT
BRANCH   1  12
ATOM     11  C   UNL     1       4.271   3.769  16.997  0.00  0.00    +0.000 C 
ATOM     12  O   UNL     1       3.778   3.608  18.322  0.00  0.00    +0.000 OA
ENDBRANCH   1  12
BRANCH   6  13
ATOM     13  O   UNL     1       2.627   3.590  20.954  0.00  0.00    +0.000 OA
ATOM     14  C   UNL     1       1.425   2.891  21.238  0.00  0.00    +0.000 C 
ENDBRANCH   6  13
BRANCH   8  15
ATOM     15  N   UNL     1       0.430   9.886  21.390  0.00  0.00    +0.000 N 
ATOM     16  H   UNL     1       0.571  10.602  20.682  0.00  0.00    +0.000 HD
BRANCH  15  17
ATOM     17  C   UNL     1      -0.277  10.227  22.510  0.00  0.00    +0.000 C 
ATOM     18  S   UNL     1      -1.095  11.664  22.642  0.00  0.00    +0.000 S 
BRANCH  17  19
ATOM     19  N   UNL     1      -0.270   9.314  23.513  0.00  0.00    +0.000 N 
ATOM     20  H   UNL     1      -0.425   9.663  24.452  0.00  0.00    +0.000 HD
ATOM     21  H   UNL     1      -0.142   8.329  23.336  0.00  0.00    +0.000 HD
ENDBRANCH  17  19
ENDBRANCH  15  17
ENDBRANCH   8  15
TORSDOF 5
ENDMDL
MODEL 6
REMARK VINA RESULT:      -6.1      4.592      6.595
REMARK  Name = 
REMARK  7 active torsions:
REMARK  status: ('A' for Active; 'I' for Inactive)
REMARK    1  A    between atoms: C_1  and  O_2
REMARK    2  A    between atoms: O_2  and  C_3
REMARK    3  A    between atoms: C_8  and  O_9
REMARK    4  A    between atoms: O_9  and  C_10
REMARK    5  A    between atoms: N_12  and  N_13
REMARK    6  A    between atoms: N_13  and  C_14
REMARK    7  A    between atoms: C_14  and  N_15
REMARK                            x       y       z     vdW  Elec       q    Type
REMARK                         _______ _______ _______ _____ _____    ______ ____
ROOT
ATOM      1  C   UNL     1       2.391   4.301  18.973  0.00  0.00    +0.000 A 
ATOM      2  C   UNL     1       2.689   5.634  18.628  0.00  0.00    +0.000 A 
ATOM      3  C   UNL     1       3.765   5.893  17.795  0.00  0.00    +0.000 A 
ATOM      4  C   UNL     1       4.515   4.835  17.308  0.00  0.00    +0.000 A 
ATOM      5  C   UNL     1       4.249   3.512  17.612  0.00  0.00    +0.000 A 
ATOM      6  C   UNL     1       3.167   3.233  18.450  0.00  0.00    +0.000 A 
ATOM      7  C   UNL     1       5.570   5.355  16.456  0.00  0.00    +0.000 C 
ATOM      8  N   UNL     1       6.385   4.563  15.830  0.00  0.00    +0.000 NA
ATOM      9  C   UNL     1       5.528   6.862  16.485  0.00  0.00    +0.000 C 
ATOM     10  C   UNL     1       4.234   7.208  17.254  0.00  0.00    +0.000 C 
ENDROOT
BRANCH   1  12
ATOM     11  C   UNL     1       1.482   3.918  21.146  0.00  0.00    +0.000 C 
ATOM     12  O   UNL     1       1.273   4.175  19.762  0.00  0.00    +0.000 OA
ENDBRANCH   1  12
BRANCH   6  13
ATOM     13  O   UNL     1       2.794   1.951  18.767  0.00  0.00    +0.000 OA
ATOM     14  C   UNL     1       3.757   0.918  18.630  0.00  0.00    +0.000 C 
ENDBRANCH   6  13
BRANCH   8  15
ATOM     15  N   UNL     1       7.360   5.129  15.065  0.00  0.00    +0.000 N 
ATOM     16  H   UNL     1       8.106   5.676  15.487  0.00  0.00    +0.000 HD
BRANCH  15  17
ATOM     17  C   UNL     1       7.375   4.970  13.706  0.00  0.00    +0.000 C 
ATOM     18  S   UNL     1       6.430   3.847  12.933  0.00  0.00    +0.000 S 
BRANCH  17  19
ATOM     19  N   UNL     1       8.213   5.790  13.024  0.00  0.00    +0.000 N 
ATOM     20  H   UNL     1       7.924   6.755  12.916  0.00  0.00    +0.000 HD
ATOM     21  H   UNL     1       9.096   5.465  12.661  0.00  0.00    +0.000 HD
ENDBRANCH  17  19
ENDBRANCH  15  17
ENDBRANCH   8  15
TORSDOF 5
ENDMDL
MODEL 7
REMARK VINA RESULT:      -6.1      4.488      6.372
REMARK  Name = 
REMARK  7 active torsions:
REMARK  status: ('A' for Active; 'I' for Inactive)
REMARK    1  A    between atoms: C_1  and  O_2
REMARK    2  A    between atoms: O_2  and  C_3
REMARK    3  A    between atoms: C_8  and  O_9
REMARK    4  A    between atoms: O_9  and  C_10
REMARK    5  A    between atoms: N_12  and  N_13
REMARK    6  A    between atoms: N_13  and  C_14
REMARK    7  A    between atoms: C_14  and  N_15
REMARK                            x       y       z     vdW  Elec       q    Type
REMARK                         _______ _______ _______ _____ _____    ______ ____
ROOT
ATOM      1  C   UNL     1       2.906   4.435  20.068  0.00  0.00    +0.000 A 
ATOM      2  C   UNL     1       2.795   5.647  19.357  0.00  0.00    +0.000 A 
ATOM      3  C   UNL     1       3.738   5.951  18.389  0.00  0.00    +0.000 A 
ATOM      4  C   UNL     1       4.759   5.052  18.130  0.00  0.00    +0.000 A 
ATOM      5  C   UNL     1       4.897   3.848  18.795  0.00  0.00    +0.000 A 
ATOM      6  C   UNL     1       3.955   3.524  19.775  0.00  0.00    +0.000 A 
ATOM      7  C   UNL     1       5.604   5.586  17.076  0.00  0.00    +0.000 C 
ATOM      8  N   UNL     1       6.608   4.910  16.607  0.00  0.00    +0.000 NA
ATOM      9  C   UNL     1       5.122   6.967  16.710  0.00  0.00    +0.000 C 
ATOM     10  C   UNL     1       3.793   7.139  17.479  0.00  0.00    +0.000 C 
ENDROOT
BRANCH   1  12
ATOM     11  C   UNL     1       0.730   3.549  20.483  0.00  0.00    +0.000 C 
ATOM     12  O   UNL     1       1.885   4.228  20.963  0.00  0.00    +0.000 OA
ENDBRANCH   1  12
BRANCH   6  13
ATOM     13  O   UNL     1       3.979   2.330  20.452  0.00  0.00    +0.000 OA
ATOM     14  C   UNL     1       4.743   1.266  19.909  0.00  0.00    +0.000 C 
ENDBRANCH   6  13
BRANCH   8  15
ATOM     15  N   UNL     1       7.364   5.488  15.632  0.00  0.00    +0.000 N 
ATOM     16  H   UNL     1       8.019   6.233  15.850  0.00  0.00    +0.000 HD
BRANCH  15  17
ATOM     17  C   UNL     1       7.275   5.077  14.330  0.00  0.00    +0.000 C 
ATOM     18  S   UNL     1       6.167   3.947  13.830  0.00  0.00    +0.000 S 
BRANCH  17  19
ATOM     19  N   UNL     1       8.149   5.650  13.468  0.00  0.00    +0.000 N 
ATOM     20  H   UNL     1       7.795   5.898  12.551  0.00  0.00    +0.000 HD
ATOM     21  H   UNL     1       9.103   5.848  13.730  0.00  0.00    +0.000 HD
ENDBRANCH  17  19
ENDBRANCH  15  17
ENDBRANCH   8  15
TORSDOF 5
ENDMDL
MODEL 8
REMARK VINA RESULT:      -6.1      4.901      6.985
REMARK  Name = 
REMARK  7 active torsions:
REMARK  status: ('A' for Active; 'I' for Inactive)
REMARK    1  A    between atoms: C_1  and  O_2
REMARK    2  A    between atoms: O_2  and  C_3
REMARK    3  A    between atoms: C_8  and  O_9
REMARK    4  A    between atoms: O_9  and  C_10
REMARK    5  A    between atoms: N_12  and  N_13
REMARK    6  A    between atoms: N_13  and  C_14
REMARK    7  A    between atoms: C_14  and  N_15
REMARK                            x       y       z     vdW  Elec       q    Type
REMARK                         _______ _______ _______ _____ _____    ______ ____
ROOT
ATOM      1  C   UNL     1       3.094   4.296  19.313  0.00  0.00    +0.000 A 
ATOM      2  C   UNL     1       4.445   4.685  19.399  0.00  0.00    +0.000 A 
ATOM      3  C   UNL     1       5.253   4.575  18.280  0.00  0.00    +0.000 A 
ATOM      4  C   UNL     1       4.712   4.100  17.097  0.00  0.00    +0.000 A 
ATOM      5  C   UNL     1       3.389   3.720  16.965  0.00  0.00    +0.000 A 
ATOM      6  C   UNL     1       2.559   3.825  18.084  0.00  0.00    +0.000 A 
ATOM      7  C   UNL     1       5.744   4.088  16.075  0.00  0.00    +0.000 C 
ATOM      8  N   UNL     1       5.482   3.735  14.854  0.00  0.00    +0.000 NA
ATOM      9  C   UNL     1       7.054   4.507  16.693  0.00  0.00    +0.000 C 
ATOM     10  C   UNL     1       6.688   4.972  18.119  0.00  0.00    +0.000 C 
ENDROOT
BRANCH   1  12
ATOM     11  C   UNL     1       2.554   3.538  21.511  0.00  0.00    +0.000 C 
ATOM     12  O   UNL     1       2.388   4.499  20.474  0.00  0.00    +0.000 OA
ENDBRANCH   1  12
BRANCH   6  13
ATOM     13  O   UNL     1       1.221   3.520  18.040  0.00  0.00    +0.000 OA
ATOM     14  C   UNL     1       0.792   2.297  18.616  0.00  0.00    +0.000 C 
ENDBRANCH   6  13
BRANCH   8  15
ATOM     15  N   UNL     1       6.509   3.733  13.958  0.00  0.00    +0.000 N 
ATOM     16  H   UNL     1       7.476   3.759  14.270  0.00  0.00    +0.000 HD
BRANCH  15  17
ATOM     17  C   UNL     1       6.273   3.683  12.611  0.00  0.00    +0.000 C 
ATOM     18  S   UNL     1       4.821   3.184  11.982  0.00  0.00    +0.000 S 
BRANCH  17  19
ATOM     19  N   UNL     1       7.302   4.068  11.816  0.00  0.00    +0.000 N 
ATOM     20  H   UNL     1       7.205   4.955  11.336  0.00  0.00    +0.000 HD
ATOM     21  H   UNL     1       8.140   3.512  11.724  0.00  0.00    +0.000 HD
ENDBRANCH  17  19
ENDBRANCH  15  17
ENDBRANCH   8  15
TORSDOF 5
ENDMDL
MODEL 9
REMARK VINA RESULT:      -6.0      2.952      4.339
REMARK  Name = 
REMARK  7 active torsions:
REMARK  status: ('A' for Active; 'I' for Inactive)
REMARK    1  A    between atoms: C_1  and  O_2
REMARK    2  A    between atoms: O_2  and  C_3
REMARK    3  A    between atoms: C_8  and  O_9
REMARK    4  A    between atoms: O_9  and  C_10
REMARK    5  A    between atoms: N_12  and  N_13
REMARK    6  A    between atoms: N_13  and  C_14
REMARK    7  A    between atoms: C_14  and  N_15
REMARK                            x       y       z     vdW  Elec       q    Type
REMARK                         _______ _______ _______ _____ _____    ______ ____
ROOT
ATOM      1  C   UNL     1       3.390   4.060  19.141  0.00  0.00    +0.000 A 
ATOM      2  C   UNL     1       3.567   5.069  18.174  0.00  0.00    +0.000 A 
ATOM      3  C   UNL     1       3.036   6.327  18.405  0.00  0.00    +0.000 A 
ATOM      4  C   UNL     1       2.355   6.569  19.586  0.00  0.00    +0.000 A 
ATOM      5  C   UNL     1       2.171   5.611  20.567  0.00  0.00    +0.000 A 
ATOM      6  C   UNL     1       2.701   4.337  20.351  0.00  0.00    +0.000 A 
ATOM      7  C   UNL     1       1.908   7.951  19.600  0.00  0.00    +0.000 C 
ATOM      8  N   UNL     1       1.288   8.450  20.625  0.00  0.00    +0.000 NA
ATOM      9  C   UNL     1       2.260   8.596  18.284  0.00  0.00    +0.000 C 
ATOM     10  C   UNL     1       3.141   7.557  17.557  0.00  0.00    +0.000 C 
ENDROOT
BRANCH   1  12
ATOM     11  C   UNL     1       3.227   1.909  18.119  0.00  0.00    +0.000 C 
ATOM     12  O   UNL     1       4.006   2.875  18.817  0.00  0.00    +0.000 OA
ENDBRANCH   1  12
BRANCH   6  13
ATOM     13  O   UNL     1       2.613   3.336  21.286  0.00  0.00    +0.000 OA
ATOM     14  C   UNL     1       1.357   2.706  21.478  0.00  0.00    +0.000 C 
ENDBRANCH   6  13
BRANCH   8  15
ATOM     15  N   UNL     1       0.884   9.750  20.553  0.00  0.00    +0.000 N 
ATOM     16  H   UNL     1       1.014  10.292  19.704  0.00  0.00    +0.000 HD
BRANCH  15  17
ATOM     17  C   UNL     1       0.278  10.362  21.616  0.00  0.00    +0.000 C 
ATOM     18  S   UNL     1      -0.134   9.541  22.998  0.00  0.00    +0.000 S 
BRANCH  17  19
ATOM     19  N   UNL     1       0.035  11.688  21.474  0.00  0.00    +0.000 N 
ATOM     20  H   UNL     1      -0.846  12.035  21.834  0.00  0.00    +0.000 HD
ATOM     21  H   UNL     1       0.709  12.311  21.053  0.00  0.00    +0.000 HD
ENDBRANCH  17  19
ENDBRANCH  15  17
ENDBRANCH   8  15
TORSDOF 5
ENDMDL
