MODEL 1
REMARK VINA RESULT:      -8.7      0.000      0.000
REMARK  Name = 
REMARK  7 active torsions:
REMARK  status: ('A' for Active; 'I' for Inactive)
REMARK    1  A    between atoms: C_1  and  C_2
REMARK    2  A    between atoms: C_2  and  C_3
REMARK    3  A    between atoms: C_3  and  C_4
REMARK    4  A    between atoms: C_4  and  N_5
REMARK    5  A    between atoms: C_6  and  C_8
REMARK    6  A    between atoms: C_9  and  C_10
REMARK    7  A    between atoms: N_12  and  C_13
REMARK                            x       y       z     vdW  Elec       q    Type
REMARK                         _______ _______ _______ _____ _____    ______ ____
ROOT
ATOM      1  C   UNL     1       4.057   5.371  19.571  0.00  0.00    +0.000 C 
ATOM      2  C   UNL     1       3.120   5.920  18.424  0.00  0.00    +0.000 C 
ATOM      3  C   UNL     1       2.206   4.685  18.119  0.00  0.00    +0.000 C 
ATOM      4  C   UNL     1       1.342   4.450  19.360  0.00  0.00    +0.000 C 
ATOM      5  C   UNL     1       2.155   4.000  20.335  0.00  0.00    +0.000 C 
ATOM      6  C   UNL     1       3.557   3.901  19.738  0.00  0.00    +0.000 C 
ATOM      7  C   UNL     1       3.205   3.574  18.308  0.00  0.00    +0.000 C 
ATOM      8  C   UNL     1       2.976   2.173  17.796  0.00  0.00    +0.000 C 
ATOM      9  C   UNL     1       4.132   2.996  17.272  0.00  0.00    +0.000 C 
ENDROOT
BRANCH   1  11
ATOM     10  N   UNL     1       5.768   6.117  17.990  0.00  0.00    +0.000 N 
ATOM     11  C   UNL     1       5.522   5.414  19.148  0.00  0.00    +0.000 C 
ATOM     12  O   UNL     1       6.413   4.833  19.759  0.00  0.00    +0.000 OA
ATOM     13  H   UNL     1       4.997   6.325  17.368  0.00  0.00    +0.000 HD
BRANCH  10  14
ATOM     14  C   UNL     1       7.121   6.260  17.478  0.00  0.00    +0.000 C 
BRANCH  14  15
ATOM     15  C   UNL     1       7.937   7.272  18.278  0.00  0.00    +0.000 C 
BRANCH  15  17
ATOM     16  C   UNL     1       8.710   9.668  18.461  0.00  0.00    +0.000 C 
ATOM     17  C   UNL     1       7.895   8.670  17.657  0.00  0.00    +0.000 C 
ENDBRANCH  15  17
ENDBRANCH  14  15
ENDBRANCH  10  14
ENDBRANCH   1  11
BRANCH   2  18
ATOM     18  C   UNL     1       2.269   7.143  18.745  0.00  0.00    +0.000 C 
ATOM     19  O   UNL     1       1.880   7.868  17.826  0.00  0.00    +0.000 OA
ATOM     20  N   UNL     1       2.090   7.415  20.087  0.00  0.00    +0.000 N 
ATOM     21  H   UNL     1       2.672   6.917  20.748  0.00  0.00    +0.000 HD
BRANCH  20  22
ATOM     22  C   UNL     1       1.316   8.481  20.610  0.00  0.00    +0.000 A 
ATOM     23  C   UNL     1       1.264   9.753  20.027  0.00  0.00    +0.000 A 
ATOM     24  C   UNL     1       0.550  10.793  20.628  0.00  0.00    +0.000 A 
ATOM     25  C   UNL     1      -0.135  10.561  21.815  0.00  0.00    +0.000 A 
ATOM     26 BR   UNL     1      -1.049  11.983  22.661  0.00  0.00    +0.000 Br
ATOM     27  C   UNL     1      -0.140   9.289  22.382  0.00  0.00    +0.000 A 
ATOM     28  C   UNL     1       0.573   8.249  21.775  0.00  0.00    +0.000 A 
ENDBRANCH  20  22
ENDBRANCH   2  18
TORSDOF 6
ENDMDL
MODEL 2
REMARK VINA RESULT:      -8.6      1.058      1.895
REMARK  Name = 
REMARK  7 active torsions:
REMARK  status: ('A' for Active; 'I' for Inactive)
REMARK    1  A    between atoms: C_1  and  C_2
REMARK    2  A    between atoms: C_2  and  C_3
REMARK    3  A    between atoms: C_3  and  C_4
REMARK    4  A    between atoms: C_4  and  N_5
REMARK    5  A    between atoms: C_6  and  C_8
REMARK    6  A    between atoms: C_9  and  C_10
REMARK    7  A    between atoms: N_12  and  C_13
REMARK                            x       y       z     vdW  Elec       q    Type
REMARK                         _______ _______ _______ _____ _____    ______ ____
ROOT
ATOM      1  C   UNL     1       4.058   5.445  19.517  0.00  0.00    +0.000 C 
ATOM      2  C   UNL     1       3.025   5.922  18.420  0.00  0.00    +0.000 C 
ATOM      3  C   UNL     1       2.090   4.673  18.277  0.00  0.00    +0.000 C 
ATOM      4  C   UNL     1       1.336   4.525  19.600  0.00  0.00    +0.000 C 
ATOM      5  C   UNL     1       2.229   4.137  20.531  0.00  0.00    +0.000 C 
ATOM      6  C   UNL     1       3.575   3.992  19.824  0.00  0.00    +0.000 C 
ATOM      7  C   UNL     1       3.102   3.572  18.454  0.00  0.00    +0.000 C 
ATOM      8  C   UNL     1       2.831   2.142  18.058  0.00  0.00    +0.000 C 
ATOM      9  C   UNL     1       3.939   2.923  17.383  0.00  0.00    +0.000 C 
ENDROOT
BRANCH   1  11
ATOM     10  N   UNL     1       5.633   6.102  17.765  0.00  0.00    +0.000 N 
ATOM     11  C   UNL     1       5.482   5.452  18.969  0.00  0.00    +0.000 C 
ATOM     12  O   UNL     1       6.417   4.888  19.527  0.00  0.00    +0.000 OA
ATOM     13  H   UNL     1       4.813   6.292  17.202  0.00  0.00    +0.000 HD
BRANCH  10  14
ATOM     14  C   UNL     1       6.937   6.207  17.133  0.00  0.00    +0.000 C 
BRANCH  14  15
ATOM     15  C   UNL     1       7.137   5.157  16.042  0.00  0.00    +0.000 C 
BRANCH  15  17
ATOM     16  C   UNL     1       6.112   3.976  14.060  0.00  0.00    +0.000 C 
ATOM     17  C   UNL     1       5.948   5.091  15.079  0.00  0.00    +0.000 C 
ENDBRANCH  15  17
ENDBRANCH  14  15
ENDBRANCH  10  14
ENDBRANCH   1  11
BRANCH   2  18
ATOM     18  C   UNL     1       2.204   7.167  18.730  0.00  0.00    +0.000 C 
ATOM     19  O   UNL     1       1.808   7.877  17.804  0.00  0.00    +0.000 OA
ATOM     20  N   UNL     1       2.061   7.474  20.070  0.00  0.00    +0.000 N 
ATOM     21  H   UNL     1       2.649   6.981  20.729  0.00  0.00    +0.000 HD
BRANCH  20  22
ATOM     22  C   UNL     1       1.318   8.566  20.583  0.00  0.00    +0.000 A 
ATOM     23  C   UNL     1       0.995   9.700  19.829  0.00  0.00    +0.000 A 
ATOM     24  C   UNL     1       0.331  10.786  20.407  0.00  0.00    +0.000 A 
ATOM     25  C   UNL     1      -0.031  10.737  21.748  0.00  0.00    +0.000 A 
ATOM     26 BR   UNL     1      -0.873  12.228  22.546  0.00  0.00    +0.000 Br
ATOM     27  C   UNL     1       0.233   9.595  22.502  0.00  0.00    +0.000 A 
ATOM     28  C   UNL     1       0.895   8.508  21.918  0.00  0.00    +0.000 A 
ENDBRANCH  20  22
ENDBRANCH   2  18
TORSDOF 6
ENDMDL
MODEL 3
REMARK VINA RESULT:      -8.6      2.069      2.648
REMARK  Name = 
REMARK  7 active torsions:
REMARK  status: ('A' for Active; 'I' for Inactive)
REMARK    1  A    between atoms: C_1  and  C_2
REMARK    2  A    between atoms: C_2  and  C_3
REMARK    3  A    between atoms: C_3  and  C_4
REMARK    4  A    between atoms: C_4  and  N_5
REMARK    5  A    between atoms: C_6  and  C_8
REMARK    6  A    between atoms: C_9  and  C_10
REMARK    7  A    between atoms: N_12  and  C_13
REMARK                            x       y       z     vdW  Elec       q    Type
REMARK                         _______ _______ _______ _____ _____    ______ ____
ROOT
ATOM      1  C   UNL     1       4.101   5.386  19.514  0.00  0.00    +0.000 C 
ATOM      2  C   UNL     1       3.107   6.086  18.505  0.00  0.00    +0.000 C 
ATOM      3  C   UNL     1       2.017   4.981  18.289  0.00  0.00    +0.000 C 
ATOM      4  C   UNL     1       1.288   4.806  19.623  0.00  0.00    +0.000 C 
ATOM      5  C   UNL     1       2.151   4.225  20.479  0.00  0.00    +0.000 C 
ATOM      6  C   UNL     1       3.447   3.981  19.710  0.00  0.00    +0.000 C 
ATOM      7  C   UNL     1       2.886   3.752  18.328  0.00  0.00    +0.000 C 
ATOM      8  C   UNL     1       2.425   2.409  17.817  0.00  0.00    +0.000 C 
ATOM      9  C   UNL     1       3.603   3.107  17.171  0.00  0.00    +0.000 C 
ENDROOT
BRANCH   1  11
ATOM     10  N   UNL     1       5.738   6.101  17.842  0.00  0.00    +0.000 N 
ATOM     11  C   UNL     1       5.498   5.268  18.912  0.00  0.00    +0.000 C 
ATOM     12  O   UNL     1       6.335   4.466  19.313  0.00  0.00    +0.000 OA
ATOM     13  H   UNL     1       4.952   6.523  17.362  0.00  0.00    +0.000 HD
BRANCH  10  14
ATOM     14  C   UNL     1       7.032   6.113  17.181  0.00  0.00    +0.000 C 
BRANCH  14  15
ATOM     15  C   UNL     1       7.055   5.223  15.941  0.00  0.00    +0.000 C 
BRANCH  15  17
ATOM     16  C   UNL     1       5.644   4.173  14.130  0.00  0.00    +0.000 C 
ATOM     17  C   UNL     1       5.740   5.286  15.160  0.00  0.00    +0.000 C 
ENDBRANCH  15  17
ENDBRANCH  14  15
ENDBRANCH  10  14
ENDBRANCH   1  11
BRANCH   2  18
ATOM     18  C   UNL     1       2.459   7.389  18.957  0.00  0.00    +0.000 C 
ATOM     19  O   UNL     1       2.229   7.567  20.155  0.00  0.00    +0.000 OA
ATOM     20  N   UNL     1       2.064   8.246  17.948  0.00  0.00    +0.000 N 
ATOM     21  H   UNL     1       2.054   7.884  17.003  0.00  0.00    +0.000 HD
BRANCH  20  22
ATOM     22  C   UNL     1       1.469   9.517  18.141  0.00  0.00    +0.000 A 
ATOM     23  C   UNL     1       2.206  10.703  18.252  0.00  0.00    +0.000 A 
ATOM     24  C   UNL     1       1.576  11.920  18.525  0.00  0.00    +0.000 A 
ATOM     25  C   UNL     1       0.194  11.963  18.670  0.00  0.00    +0.000 A 
ATOM     26 BR   UNL     1      -0.652  13.597  19.100  0.00  0.00    +0.000 Br
ATOM     27  C   UNL     1      -0.562  10.804  18.510  0.00  0.00    +0.000 A 
ATOM     28  C   UNL     1       0.073   9.587  18.234  0.00  0.00    +0.000 A 
ENDBRANCH  20  22
ENDBRANCH   2  18
TORSDOF 6
ENDMDL
MODEL 4
REMARK VINA RESULT:      -8.3      2.229      3.021
REMARK  Name = 
REMARK  7 active torsions:
REMARK  status: ('A' for Active; 'I' for Inactive)
REMARK    1  A    between atoms: C_1  and  C_2
REMARK    2  A    between atoms: C_2  and  C_3
REMARK    3  A    between atoms: C_3  and  C_4
REMARK    4  A    between atoms: C_4  and  N_5
REMARK    5  A    between atoms: C_6  and  C_8
REMARK    6  A    between atoms: C_9  and  C_10
REMARK    7  A    between atoms: N_12  and  C_13
REMARK                            x       y       z     vdW  Elec       q    Type
REMARK                         _______ _______ _______ _____ _____    ______ ____
ROOT
ATOM      1  C   UNL     1       3.966   5.370  19.484  0.00  0.00    +0.000 C 
ATOM      2  C   UNL     1       2.783   6.045  18.682  0.00  0.00    +0.000 C 
ATOM      3  C   UNL     1       1.648   4.972  18.794  0.00  0.00    +0.000 C 
ATOM      4  C   UNL     1       1.239   4.905  20.268  0.00  0.00    +0.000 C 
ATOM      5  C   UNL     1       2.262   4.346  20.943  0.00  0.00    +0.000 C 
ATOM      6  C   UNL     1       3.342   4.006  19.918  0.00  0.00    +0.000 C 
ATOM      7  C   UNL     1       2.474   3.715  18.718  0.00  0.00    +0.000 C 
ATOM      8  C   UNL     1       1.877   2.362  18.418  0.00  0.00    +0.000 C 
ATOM      9  C   UNL     1       2.892   2.973  17.476  0.00  0.00    +0.000 C 
ENDROOT
BRANCH   1  11
ATOM     10  N   UNL     1       5.141   5.834  17.389  0.00  0.00    +0.000 N 
ATOM     11  C   UNL     1       5.185   5.162  18.590  0.00  0.00    +0.000 C 
ATOM     12  O   UNL     1       6.116   4.422  18.889  0.00  0.00    +0.000 OA
ATOM     13  H   UNL     1       4.252   6.187  17.055  0.00  0.00    +0.000 HD
BRANCH  10  14
ATOM     14  C   UNL     1       6.243   5.747  16.446  0.00  0.00    +0.000 C 
BRANCH  14  15
ATOM     15  C   UNL     1       5.780   5.315  15.056  0.00  0.00    +0.000 C 
BRANCH  15  17
ATOM     16  C   UNL     1       6.141   3.720  13.133  0.00  0.00    +0.000 C 
ATOM     17  C   UNL     1       6.526   4.074  14.559  0.00  0.00    +0.000 C 
ENDBRANCH  15  17
ENDBRANCH  14  15
ENDBRANCH  10  14
ENDBRANCH   1  11
BRANCH   2  18
ATOM     18  C   UNL     1       2.287   7.397  19.180  0.00  0.00    +0.000 C 
ATOM     19  O   UNL     1       2.205   7.602  20.392  0.00  0.00    +0.000 OA
ATOM     20  N   UNL     1       1.846   8.271  18.206  0.00  0.00    +0.000 N 
ATOM     21  H   UNL     1       1.705   7.902  17.274  0.00  0.00    +0.000 HD
BRANCH  20  22
ATOM     22  C   UNL     1       1.371   9.585  18.440  0.00  0.00    +0.000 A 
ATOM     23  C   UNL     1       0.071   9.868  18.877  0.00  0.00    +0.000 A 
ATOM     24  C   UNL     1      -0.374  11.186  19.013  0.00  0.00    +0.000 A 
ATOM     25  C   UNL     1       0.490  12.236  18.729  0.00  0.00    +0.000 A 
ATOM     26 BR   UNL     1      -0.129  14.018  18.854  0.00  0.00    +0.000 Br
ATOM     27  C   UNL     1       1.804  11.977  18.345  0.00  0.00    +0.000 A 
ATOM     28  C   UNL     1       2.246  10.655  18.213  0.00  0.00    +0.000 A 
ENDBRANCH  20  22
ENDBRANCH   2  18
TORSDOF 6
ENDMDL
MODEL 5
REMARK VINA RESULT:      -8.1      1.883      2.063
REMARK  Name = 
REMARK  7 active torsions:
REMARK  status: ('A' for Active; 'I' for Inactive)
REMARK    1  A    between atoms: C_1  and  C_2
REMARK    2  A    between atoms: C_2  and  C_3
REMARK    3  A    between atoms: C_3  and  C_4
REMARK    4  A    between atoms: C_4  and  N_5
REMARK    5  A    between atoms: C_6  and  C_8
REMARK    6  A    between atoms: C_9  and  C_10
REMARK    7  A    between atoms: N_12  and  C_13
REMARK                            x       y       z     vdW  Elec       q    Type
REMARK                         _______ _______ _______ _____ _____    ______ ____
ROOT
ATOM      1  C   UNL     1       3.864   5.131  19.629  0.00  0.00    +0.000 C 
ATOM      2  C   UNL     1       2.773   5.821  18.718  0.00  0.00    +0.000 C 
ATOM      3  C   UNL     1       1.573   4.818  18.816  0.00  0.00    +0.000 C 
ATOM      4  C   UNL     1       1.073   4.859  20.261  0.00  0.00    +0.000 C 
ATOM      5  C   UNL     1       2.019   4.286  21.030  0.00  0.00    +0.000 C 
ATOM      6  C   UNL     1       3.138   3.830  20.096  0.00  0.00    +0.000 C 
ATOM      7  C   UNL     1       2.329   3.517  18.861  0.00  0.00    +0.000 C 
ATOM      8  C   UNL     1       1.675   2.183  18.597  0.00  0.00    +0.000 C 
ATOM      9  C   UNL     1       2.778   2.683  17.690  0.00  0.00    +0.000 C 
ENDROOT
BRANCH   1  11
ATOM     10  N   UNL     1       5.180   5.395  17.584  0.00  0.00    +0.000 N 
ATOM     11  C   UNL     1       5.121   4.807  18.828  0.00  0.00    +0.000 C 
ATOM     12  O   UNL     1       5.996   4.048  19.231  0.00  0.00    +0.000 OA
ATOM     13  H   UNL     1       4.331   5.764  17.174  0.00  0.00    +0.000 HD
BRANCH  10  14
ATOM     14  C   UNL     1       6.329   5.193  16.717  0.00  0.00    +0.000 C 
BRANCH  14  15
ATOM     15  C   UNL     1       7.468   6.159  17.034  0.00  0.00    +0.000 C 
BRANCH  15  17
ATOM     16  C   UNL     1       8.075   8.480  17.822  0.00  0.00    +0.000 C 
ATOM     17  C   UNL     1       6.961   7.574  17.324  0.00  0.00    +0.000 C 
ENDBRANCH  15  17
ENDBRANCH  14  15
ENDBRANCH  10  14
ENDBRANCH   1  11
BRANCH   2  18
ATOM     18  C   UNL     1       2.325   7.224  19.108  0.00  0.00    +0.000 C 
ATOM     19  O   UNL     1       2.319   7.548  20.298  0.00  0.00    +0.000 OA
ATOM     20  N   UNL     1       1.837   8.008  18.081  0.00  0.00    +0.000 N 
ATOM     21  H   UNL     1       1.635   7.552  17.200  0.00  0.00    +0.000 HD
BRANCH  20  22
ATOM     22  C   UNL     1       1.395   9.347  18.212  0.00  0.00    +0.000 A 
ATOM     23  C   UNL     1       2.256  10.450  18.174  0.00  0.00    +0.000 A 
ATOM     24  C   UNL     1       1.780  11.746  18.392  0.00  0.00    +0.000 A 
ATOM     25  C   UNL     1       0.426  11.949  18.634  0.00  0.00    +0.000 A 
ATOM     26 BR   UNL     1      -0.209  13.693  18.990  0.00  0.00    +0.000 Br
ATOM     27  C   UNL     1      -0.456  10.871  18.623  0.00  0.00    +0.000 A 
ATOM     28  C   UNL     1       0.025   9.575  18.401  0.00  0.00    +0.000 A 
ENDBRANCH  20  22
ENDBRANCH   2  18
TORSDOF 6
ENDMDL
MODEL 6
REMARK VINA RESULT:      -8.1      1.304      1.716
REMARK  Name = 
REMARK  7 active torsions:
REMARK  status: ('A' for Active; 'I' for Inactive)
REMARK    1  A    between atoms: C_1  and  C_2
REMARK    2  A    between atoms: C_2  and  C_3
REMARK    3  A    between atoms: C_3  and  C_4
REMARK    4  A    between atoms: C_4  and  N_5
REMARK    5  A    between atoms: C_6  and  C_8
REMARK    6  A    between atoms: C_9  and  C_10
REMARK    7  A    between atoms: N_12  and  C_13
REMARK                            x       y       z     vdW  Elec       q    Type
REMARK                         _______ _______ _______ _____ _____    ______ ____
ROOT
ATOM      1  C   UNL     1       4.141   5.308  19.557  0.00  0.00    +0.000 C 
ATOM      2  C   UNL     1       3.078   6.118  18.714  0.00  0.00    +0.000 C 
ATOM      3  C   UNL     1       2.017   5.019  18.369  0.00  0.00    +0.000 C 
ATOM      4  C   UNL     1       1.357   4.606  19.686  0.00  0.00    +0.000 C 
ATOM      5  C   UNL     1       2.277   3.932  20.403  0.00  0.00    +0.000 C 
ATOM      6  C   UNL     1       3.544   3.865  19.552  0.00  0.00    +0.000 C 
ATOM      7  C   UNL     1       2.927   3.835  18.175  0.00  0.00    +0.000 C 
ATOM      8  C   UNL     1       2.487   2.573  17.476  0.00  0.00    +0.000 C 
ATOM      9  C   UNL     1       3.610   3.410  16.902  0.00  0.00    +0.000 C 
ENDROOT
BRANCH   1  11
ATOM     10  N   UNL     1       5.716   6.413  18.046  0.00  0.00    +0.000 N 
ATOM     11  C   UNL     1       5.512   5.342  18.888  0.00  0.00    +0.000 C 
ATOM     12  O   UNL     1       6.357   4.467  19.044  0.00  0.00    +0.000 OA
ATOM     13  H   UNL     1       4.916   6.939  17.717  0.00  0.00    +0.000 HD
BRANCH  10  14
ATOM     14  C   UNL     1       6.983   6.588  17.356  0.00  0.00    +0.000 C 
BRANCH  14  15
ATOM     15  C   UNL     1       7.969   7.428  18.164  0.00  0.00    +0.000 C 
BRANCH  15  17
ATOM     16  C   UNL     1       8.857   9.745  18.628  0.00  0.00    +0.000 C 
ATOM     17  C   UNL     1       7.941   8.903  17.756  0.00  0.00    +0.000 C 
ENDBRANCH  15  17
ENDBRANCH  14  15
ENDBRANCH  10  14
ENDBRANCH   1  11
BRANCH   2  18
ATOM     18  C   UNL     1       2.410   7.306  19.395  0.00  0.00    +0.000 C 
ATOM     19  O   UNL     1       2.285   7.310  20.621  0.00  0.00    +0.000 OA
ATOM     20  N   UNL     1       1.877   8.262  18.551  0.00  0.00    +0.000 N 
ATOM     21  H   UNL     1       1.797   8.027  17.569  0.00  0.00    +0.000 HD
BRANCH  20  22
ATOM     22  C   UNL     1       1.239   9.456  18.966  0.00  0.00    +0.000 A 
ATOM     23  C   UNL     1       0.165   9.483  19.864  0.00  0.00    +0.000 A 
ATOM     24  C   UNL     1      -0.484  10.681  20.178  0.00  0.00    +0.000 A 
ATOM     25  C   UNL     1      -0.048  11.870  19.605  0.00  0.00    +0.000 A 
ATOM     26 BR   UNL     1      -0.963  13.480  19.980  0.00  0.00    +0.000 Br
ATOM     27  C   UNL     1       1.053  11.872  18.751  0.00  0.00    +0.000 A 
ATOM     28  C   UNL     1       1.701  10.670  18.442  0.00  0.00    +0.000 A 
ENDBRANCH  20  22
ENDBRANCH   2  18
TORSDOF 6
ENDMDL
MODEL 7
REMARK VINA RESULT:      -7.9      1.237      1.543
REMARK  Name = 
REMARK  7 active torsions:
REMARK  status: ('A' for Active; 'I' for Inactive)
REMARK    1  A    between atoms: C_1  and  C_2
REMARK    2  A    between atoms: C_2  and  C_3
REMARK    3  A    between atoms: C_3  and  C_4
REMARK    4  A    between atoms: C_4  and  N_5
REMARK    5  A    between atoms: C_6  and  C_8
REMARK    6  A    between atoms: C_9  and  C_10
REMARK    7  A    between atoms: N_12  and  C_13
REMARK                            x       y       z     vdW  Elec       q    Type
REMARK                         _______ _______ _______ _____ _____    ______ ____
ROOT
ATOM      1  C   UNL     1       3.945   5.060  19.681  0.00  0.00    +0.000 C 
ATOM      2  C   UNL     1       2.551   5.635  19.210  0.00  0.00    +0.000 C 
ATOM      3  C   UNL     1       1.721   4.332  18.954  0.00  0.00    +0.000 C 
ATOM      4  C   UNL     1       1.517   3.657  20.313  0.00  0.00    +0.000 C 
ATOM      5  C   UNL     1       2.715   3.188  20.712  0.00  0.00    +0.000 C 
ATOM      6  C   UNL     1       3.715   3.518  19.606  0.00  0.00    +0.000 C 
ATOM      7  C   UNL     1       2.804   3.441  18.405  0.00  0.00    +0.000 C 
ATOM      8  C   UNL     1       2.510   2.169  17.649  0.00  0.00    +0.000 C 
ATOM      9  C   UNL     1       3.234   3.310  16.968  0.00  0.00    +0.000 C 
ENDROOT
BRANCH   1  11
ATOM     10  N   UNL     1       6.327   5.106  19.125  0.00  0.00    +0.000 N 
ATOM     11  C   UNL     1       5.064   5.500  18.742  0.00  0.00    +0.000 C 
ATOM     12  O   UNL     1       4.871   6.190  17.746  0.00  0.00    +0.000 OA
ATOM     13  H   UNL     1       6.479   4.804  20.079  0.00  0.00    +0.000 HD
BRANCH  10  14
ATOM     14  C   UNL     1       7.488   5.435  18.315  0.00  0.00    +0.000 C 
BRANCH  14  15
ATOM     15  C   UNL     1       8.101   6.778  18.704  0.00  0.00    +0.000 C 
BRANCH  15  17
ATOM     16  C   UNL     1       8.362   9.215  18.100  0.00  0.00    +0.000 C 
ATOM     17  C   UNL     1       7.820   7.864  17.663  0.00  0.00    +0.000 C 
ENDBRANCH  15  17
ENDBRANCH  14  15
ENDBRANCH  10  14
ENDBRANCH   1  11
BRANCH   2  18
ATOM     18  C   UNL     1       1.813   6.552  20.178  0.00  0.00    +0.000 C 
ATOM     19  O   UNL     1       1.281   6.072  21.181  0.00  0.00    +0.000 OA
ATOM     20  N   UNL     1       1.696   7.872  19.786  0.00  0.00    +0.000 N 
ATOM     21  H   UNL     1       1.931   8.098  18.827  0.00  0.00    +0.000 HD
BRANCH  20  22
ATOM     22  C   UNL     1       1.077   8.898  20.541  0.00  0.00    +0.000 A 
ATOM     23  C   UNL     1       0.954   8.861  21.935  0.00  0.00    +0.000 A 
ATOM     24  C   UNL     1       0.261   9.859  22.625  0.00  0.00    +0.000 A 
ATOM     25  C   UNL     1      -0.302  10.918  21.922  0.00  0.00    +0.000 A 
ATOM     26 BR   UNL     1      -1.292  12.235  22.847  0.00  0.00    +0.000 Br
ATOM     27  C   UNL     1      -0.144  11.002  20.540  0.00  0.00    +0.000 A 
ATOM     28  C   UNL     1       0.554  10.001  19.853  0.00  0.00    +0.000 A 
ENDBRANCH  20  22
ENDBRANCH   2  18
TORSDOF 6
ENDMDL
MODEL 8
REMARK VINA RESULT:      -7.9      1.681      2.313
REMARK  Name = 
REMARK  7 active torsions:
REMARK  status: ('A' for Active; 'I' for Inactive)
REMARK    1  A    between atoms: C_1  and  C_2
REMARK    2  A    between atoms: C_2  and  C_3
REMARK    3  A    between atoms: C_3  and  C_4
REMARK    4  A    between atoms: C_4  and  N_5
REMARK    5  A    between atoms: C_6  and  C_8
REMARK    6  A    between atoms: C_9  and  C_10
REMARK    7  A    between atoms: N_12  and  C_13
REMARK                            x       y       z     vdW  Elec       q    Type
REMARK                         _______ _______ _______ _____ _____    ______ ____
ROOT
ATOM      1  C   UNL     1       4.001   5.043  19.693  0.00  0.00    +0.000 C 
ATOM      2  C   UNL     1       2.591   5.532  19.173  0.00  0.00    +0.000 C 
ATOM      3  C   UNL     1       1.848   4.181  18.901  0.00  0.00    +0.000 C 
ATOM      4  C   UNL     1       1.639   3.504  20.258  0.00  0.00    +0.000 C 
ATOM      5  C   UNL     1       2.848   3.108  20.699  0.00  0.00    +0.000 C 
ATOM      6  C   UNL     1       3.863   3.489  19.623  0.00  0.00    +0.000 C 
ATOM      7  C   UNL     1       2.998   3.352  18.394  0.00  0.00    +0.000 C 
ATOM      8  C   UNL     1       2.804   2.060  17.640  0.00  0.00    +0.000 C 
ATOM      9  C   UNL     1       3.482   3.237  16.973  0.00  0.00    +0.000 C 
ENDROOT
BRANCH   1  11
ATOM     10  N   UNL     1       6.298   4.832  18.881  0.00  0.00    +0.000 N 
ATOM     11  C   UNL     1       5.122   5.542  18.788  0.00  0.00    +0.000 C 
ATOM     12  O   UNL     1       5.011   6.525  18.062  0.00  0.00    +0.000 OA
ATOM     13  H   UNL     1       6.447   4.231  19.682  0.00  0.00    +0.000 HD
BRANCH  10  14
ATOM     14  C   UNL     1       7.446   5.180  18.061  0.00  0.00    +0.000 C 
BRANCH  14  15
ATOM     15  C   UNL     1       7.521   4.342  16.787  0.00  0.00    +0.000 C 
BRANCH  15  17
ATOM     16  C   UNL     1       6.283   4.064  14.605  0.00  0.00    +0.000 C 
ATOM     17  C   UNL     1       6.881   5.052  15.591  0.00  0.00    +0.000 C 
ENDBRANCH  15  17
ENDBRANCH  14  15
ENDBRANCH  10  14
ENDBRANCH   1  11
BRANCH   2  18
ATOM     18  C   UNL     1       1.770   6.411  20.109  0.00  0.00    +0.000 C 
ATOM     19  O   UNL     1       1.056   5.882  20.963  0.00  0.00    +0.000 OA
ATOM     20  N   UNL     1       1.802   7.766  19.844  0.00  0.00    +0.000 N 
ATOM     21  H   UNL     1       2.199   8.062  18.961  0.00  0.00    +0.000 HD
BRANCH  20  22
ATOM     22  C   UNL     1       1.138   8.764  20.600  0.00  0.00    +0.000 A 
ATOM     23  C   UNL     1       1.160   8.811  21.999  0.00  0.00    +0.000 A 
ATOM     24  C   UNL     1       0.420   9.768  22.700  0.00  0.00    +0.000 A 
ATOM     25  C   UNL     1      -0.338  10.699  22.001  0.00  0.00    +0.000 A 
ATOM     26 BR   UNL     1      -1.387  11.953  22.949  0.00  0.00    +0.000 Br
ATOM     27  C   UNL     1      -0.331  10.703  20.608  0.00  0.00    +0.000 A 
ATOM     28  C   UNL     1       0.414   9.745  19.910  0.00  0.00    +0.000 A 
ENDBRANCH  20  22
ENDBRANCH   2  18
TORSDOF 6
ENDMDL
MODEL 9
REMARK VINA RESULT:      -7.8      2.536      3.247
REMARK  Name = 
REMARK  7 active torsions:
REMARK  status: ('A' for Active; 'I' for Inactive)
REMARK    1  A    between atoms: C_1  and  C_2
REMARK    2  A    between atoms: C_2  and  C_3
REMARK    3  A    between atoms: C_3  and  C_4
REMARK    4  A    between atoms: C_4  and  N_5
REMARK    5  A    between atoms: C_6  and  C_8
REMARK    6  A    between atoms: C_9  and  C_10
REMARK    7  A    between atoms: N_12  and  C_13
REMARK                            x       y       z     vdW  Elec       q    Type
REMARK                         _______ _______ _______ _____ _____    ______ ____
ROOT
ATOM      1  C   UNL     1       4.098   5.852  18.648  0.00  0.00    +0.000 C 
ATOM      2  C   UNL     1       2.689   6.383  18.169  0.00  0.00    +0.000 C 
ATOM      3  C   UNL     1       1.740   5.193  18.536  0.00  0.00    +0.000 C 
ATOM      4  C   UNL     1       1.712   5.097  20.063  0.00  0.00    +0.000 C 
ATOM      5  C   UNL     1       2.923   4.661  20.460  0.00  0.00    +0.000 C 
ATOM      6  C   UNL     1       3.751   4.432  19.198  0.00  0.00    +0.000 C 
ATOM      7  C   UNL     1       2.655   4.034  18.240  0.00  0.00    +0.000 C 
ATOM      8  C   UNL     1       2.155   2.620  18.071  0.00  0.00    +0.000 C 
ATOM      9  C   UNL     1       2.836   3.330  16.921  0.00  0.00    +0.000 C 
ENDROOT
BRANCH   1  11
ATOM     10  N   UNL     1       5.955   4.710  17.539  0.00  0.00    +0.000 N 
ATOM     11  C   UNL     1       5.078   5.770  17.482  0.00  0.00    +0.000 C 
ATOM     12  O   UNL     1       5.121   6.603  16.583  0.00  0.00    +0.000 OA
ATOM     13  H   UNL     1       6.087   4.227  18.419  0.00  0.00    +0.000 HD
BRANCH  10  14
ATOM     14  C   UNL     1       6.932   4.493  16.485  0.00  0.00    +0.000 C 
BRANCH  14  15
ATOM     15  C   UNL     1       6.370   3.651  15.341  0.00  0.00    +0.000 C 
BRANCH  15  17
ATOM     16  C   UNL     1       6.200   3.586  12.824  0.00  0.00    +0.000 C 
ATOM     17  C   UNL     1       6.182   4.468  14.061  0.00  0.00    +0.000 C 
ENDBRANCH  15  17
ENDBRANCH  14  15
ENDBRANCH  10  14
ENDBRANCH   1  11
BRANCH   2  18
ATOM     18  C   UNL     1       2.184   7.677  18.795  0.00  0.00    +0.000 C 
ATOM     19  O   UNL     1       2.115   7.769  20.022  0.00  0.00    +0.000 OA
ATOM     20  N   UNL     1       1.721   8.632  17.911  0.00  0.00    +0.000 N 
ATOM     21  H   UNL     1       1.572   8.349  16.950  0.00  0.00    +0.000 HD
BRANCH  20  22
ATOM     22  C   UNL     1       1.234   9.913  18.271  0.00  0.00    +0.000 A 
ATOM     23  C   UNL     1      -0.097  10.158  18.631  0.00  0.00    +0.000 A 
ATOM     24  C   UNL     1      -0.545  11.455  18.897  0.00  0.00    +0.000 A 
ATOM     25  C   UNL     1       0.345  12.520  18.822  0.00  0.00    +0.000 A 
ATOM     26 BR   UNL     1      -0.274  14.280  19.121  0.00  0.00    +0.000 Br
ATOM     27  C   UNL     1       1.685  12.291  18.518  0.00  0.00    +0.000 A 
ATOM     28  C   UNL     1       2.131  10.990  18.255  0.00  0.00    +0.000 A 
ENDBRANCH  20  22
ENDBRANCH   2  18
TORSDOF 6
ENDMDL
