MODEL 1
REMARK VINA RESULT:      -8.1      0.000      0.000
REMARK  Name = 
REMARK  1 active torsions:
REMARK  status: ('A' for Active; 'I' for Inactive)
REMARK    1  A    between atoms: O_1  and  C_2
REMARK                            x       y       z     vdW  Elec       q    Type
REMARK                         _______ _______ _______ _____ _____    ______ ____
ROOT
ATOM      1  C   UNL     1       6.847   5.493  16.219  0.00  0.00    +0.000 A 
ATOM      2  C   UNL     1       7.125   4.695  17.323  0.00  0.00    +0.000 A 
ATOM      3  C   UNL     1       6.211   4.644  18.376  0.00  0.00    +0.000 A 
ATOM      4  C   UNL     1       5.008   5.372  18.321  0.00  0.00    +0.000 A 
ATOM      5  C   UNL     1       4.772   6.221  17.224  0.00  0.00    +0.000 A 
ATOM      6  C   UNL     1       5.696   6.269  16.171  0.00  0.00    +0.000 A 
ATOM      7  C   UNL     1       3.583   7.151  17.218  0.00  0.00    +0.000 C 
ATOM      8  C   UNL     1       2.559   6.875  18.328  0.00  0.00    +0.000 C 
ATOM      9  N   UNL     1       3.201   6.472  19.591  0.00  0.00    +0.000 NA
ATOM     10  C   UNL     1       2.244   6.318  20.694  0.00  0.00    +0.000 C 
ATOM     11  C   UNL     1       1.191   5.221  20.486  0.00  0.00    +0.000 C 
ATOM     12  C   UNL     1       1.704   4.012  19.740  0.00  0.00    +0.000 A 
ATOM     13  C   UNL     1       0.826   2.939  19.517  0.00  0.00    +0.000 A 
ATOM     14  C   UNL     1       1.225   1.845  18.755  0.00  0.00    +0.000 A 
ATOM     15  C   UNL     1       2.510   1.802  18.226  0.00  0.00    +0.000 A 
ATOM     16  C   UNL     1       3.393   2.863  18.449  0.00  0.00    +0.000 A 
ATOM     17  C   UNL     1       3.004   3.995  19.185  0.00  0.00    +0.000 A 
ATOM     18  C   UNL     1       3.945   5.197  19.404  0.00  0.00    +0.000 C 
ENDROOT
BRANCH   1  19
ATOM     19  O   UNL     1       7.697   5.549  15.154  0.00  0.00    +0.000 OA
ATOM     20  H   UNL     1       8.426   6.151  15.374  0.00  0.00    +0.000 HD
ENDBRANCH   1  19
TORSDOF 1
ENDMDL
MODEL 2
REMARK VINA RESULT:      -7.2      1.692      3.425
REMARK  Name = 
REMARK  1 active torsions:
REMARK  status: ('A' for Active; 'I' for Inactive)
REMARK    1  A    between atoms: O_1  and  C_2
REMARK                            x       y       z     vdW  Elec       q    Type
REMARK                         _______ _______ _______ _____ _____    ______ ____
ROOT
ATOM      1  C   UNL     1       6.899   5.130  15.021  0.00  0.00    +0.000 A 
ATOM      2  C   UNL     1       5.590   4.968  14.582  0.00  0.00    +0.000 A 
ATOM      3  C   UNL     1       4.580   4.739  15.516  0.00  0.00    +0.000 A 
ATOM      4  C   UNL     1       4.870   4.693  16.893  0.00  0.00    +0.000 A 
ATOM      5  C   UNL     1       6.208   4.799  17.314  0.00  0.00    +0.000 A 
ATOM      6  C   UNL     1       7.218   5.026  16.369  0.00  0.00    +0.000 A 
ATOM      7  C   UNL     1       6.575   4.572  18.760  0.00  0.00    +0.000 C 
ATOM      8  C   UNL     1       5.374   4.515  19.717  0.00  0.00    +0.000 C 
ATOM      9  N   UNL     1       4.213   3.839  19.113  0.00  0.00    +0.000 NA
ATOM     10  C   UNL     1       3.098   3.673  20.053  0.00  0.00    +0.000 C 
ATOM     11  C   UNL     1       2.492   4.982  20.573  0.00  0.00    +0.000 C 
ATOM     12  C   UNL     1       2.479   6.099  19.555  0.00  0.00    +0.000 A 
ATOM     13  C   UNL     1       1.923   7.335  19.922  0.00  0.00    +0.000 A 
ATOM     14  C   UNL     1       1.971   8.420  19.052  0.00  0.00    +0.000 A 
ATOM     15  C   UNL     1       2.556   8.274  17.799  0.00  0.00    +0.000 A 
ATOM     16  C   UNL     1       3.106   7.045  17.422  0.00  0.00    +0.000 A 
ATOM     17  C   UNL     1       3.102   5.945  18.296  0.00  0.00    +0.000 A 
ATOM     18  C   UNL     1       3.743   4.593  17.920  0.00  0.00    +0.000 C 
ENDROOT
BRANCH   1  19
ATOM     19  O   UNL     1       7.914   5.386  14.146  0.00  0.00    +0.000 OA
ATOM     20  H   UNL     1       8.437   4.575  14.037  0.00  0.00    +0.000 HD
ENDBRANCH   1  19
TORSDOF 1
ENDMDL
MODEL 3
REMARK VINA RESULT:      -7.0      2.840      5.569
REMARK  Name = 
REMARK  1 active torsions:
REMARK  status: ('A' for Active; 'I' for Inactive)
REMARK    1  A    between atoms: O_1  and  C_2
REMARK                            x       y       z     vdW  Elec       q    Type
REMARK                         _______ _______ _______ _____ _____    ______ ____
ROOT
ATOM      1  C   UNL     1       2.575   2.913  21.239  0.00  0.00    +0.000 A 
ATOM      2  C   UNL     1       3.702   2.162  20.928  0.00  0.00    +0.000 A 
ATOM      3  C   UNL     1       4.421   2.456  19.769  0.00  0.00    +0.000 A 
ATOM      4  C   UNL     1       4.028   3.515  18.929  0.00  0.00    +0.000 A 
ATOM      5  C   UNL     1       2.850   4.225  19.227  0.00  0.00    +0.000 A 
ATOM      6  C   UNL     1       2.133   3.922  20.392  0.00  0.00    +0.000 A 
ATOM      7  C   UNL     1       2.303   5.241  18.255  0.00  0.00    +0.000 C 
ATOM      8  C   UNL     1       3.265   5.612  17.118  0.00  0.00    +0.000 C 
ATOM      9  N   UNL     1       4.043   4.453  16.647  0.00  0.00    +0.000 NA
ATOM     10  C   UNL     1       4.883   4.765  15.483  0.00  0.00    +0.000 C 
ATOM     11  C   UNL     1       5.968   5.820  15.734  0.00  0.00    +0.000 C 
ATOM     12  C   UNL     1       6.566   5.766  17.121  0.00  0.00    +0.000 A 
ATOM     13  C   UNL     1       7.586   6.674  17.447  0.00  0.00    +0.000 A 
ATOM     14  C   UNL     1       8.103   6.725  18.738  0.00  0.00    +0.000 A 
ATOM     15  C   UNL     1       7.621   5.855  19.710  0.00  0.00    +0.000 A 
ATOM     16  C   UNL     1       6.611   4.942  19.392  0.00  0.00    +0.000 A 
ATOM     17  C   UNL     1       6.047   4.896  18.105  0.00  0.00    +0.000 A 
ATOM     18  C   UNL     1       4.900   3.930  17.744  0.00  0.00    +0.000 C 
ENDROOT
BRANCH   1  19
ATOM     19  O   UNL     1       1.860   2.680  22.378  0.00  0.00    +0.000 OA
ATOM     20  H   UNL     1       2.053   1.779  22.683  0.00  0.00    +0.000 HD
ENDBRANCH   1  19
TORSDOF 1
ENDMDL
MODEL 4
REMARK VINA RESULT:      -6.8      2.671      5.501
REMARK  Name = 
REMARK  1 active torsions:
REMARK  status: ('A' for Active; 'I' for Inactive)
REMARK    1  A    between atoms: O_1  and  C_2
REMARK                            x       y       z     vdW  Elec       q    Type
REMARK                         _______ _______ _______ _____ _____    ______ ____
ROOT
ATOM      1  C   UNL     1       1.149   2.824  18.452  0.00  0.00    +0.000 A 
ATOM      2  C   UNL     1       1.052   4.045  17.797  0.00  0.00    +0.000 A 
ATOM      3  C   UNL     1       2.174   4.870  17.718  0.00  0.00    +0.000 A 
ATOM      4  C   UNL     1       3.403   4.468  18.276  0.00  0.00    +0.000 A 
ATOM      5  C   UNL     1       3.468   3.256  18.988  0.00  0.00    +0.000 A 
ATOM      6  C   UNL     1       2.335   2.434  19.064  0.00  0.00    +0.000 A 
ATOM      7  C   UNL     1       4.715   2.882  19.750  0.00  0.00    +0.000 C 
ATOM      8  C   UNL     1       5.934   3.763  19.440  0.00  0.00    +0.000 C 
ATOM      9  N   UNL     1       5.563   5.175  19.236  0.00  0.00    +0.000 NA
ATOM     10  C   UNL     1       6.728   6.049  19.055  0.00  0.00    +0.000 C 
ATOM     11  C   UNL     1       7.580   5.742  17.816  0.00  0.00    +0.000 C 
ATOM     12  C   UNL     1       6.780   5.270  16.624  0.00  0.00    +0.000 A 
ATOM     13  C   UNL     1       7.462   4.984  15.430  0.00  0.00    +0.000 A 
ATOM     14  C   UNL     1       6.782   4.459  14.335  0.00  0.00    +0.000 A 
ATOM     15  C   UNL     1       5.412   4.235  14.415  0.00  0.00    +0.000 A 
ATOM     16  C   UNL     1       4.724   4.524  15.597  0.00  0.00    +0.000 A 
ATOM     17  C   UNL     1       5.393   5.021  16.729  0.00  0.00    +0.000 A 
ATOM     18  C   UNL     1       4.664   5.303  18.058  0.00  0.00    +0.000 C 
ENDROOT
BRANCH   1  19
ATOM     19  O   UNL     1       0.086   1.972  18.526  0.00  0.00    +0.000 OA
ATOM     20  H   UNL     1      -0.683   2.406  18.124  0.00  0.00    +0.000 HD
ENDBRANCH   1  19
TORSDOF 1
ENDMDL
MODEL 5
REMARK VINA RESULT:      -6.6      2.735      5.464
REMARK  Name = 
REMARK  1 active torsions:
REMARK  status: ('A' for Active; 'I' for Inactive)
REMARK    1  A    between atoms: O_1  and  C_2
REMARK                            x       y       z     vdW  Elec       q    Type
REMARK                         _______ _______ _______ _____ _____    ______ ____
ROOT
ATOM      1  C   UNL     1       2.410   3.344  21.219  0.00  0.00    +0.000 A 
ATOM      2  C   UNL     1       3.279   2.548  20.483  0.00  0.00    +0.000 A 
ATOM      3  C   UNL     1       3.918   3.086  19.365  0.00  0.00    +0.000 A 
ATOM      4  C   UNL     1       3.707   4.426  18.992  0.00  0.00    +0.000 A 
ATOM      5  C   UNL     1       2.778   5.200  19.713  0.00  0.00    +0.000 A 
ATOM      6  C   UNL     1       2.139   4.652  20.833  0.00  0.00    +0.000 A 
ATOM      7  C   UNL     1       2.393   6.577  19.232  0.00  0.00    +0.000 C 
ATOM      8  C   UNL     1       3.288   7.130  18.113  0.00  0.00    +0.000 C 
ATOM      9  N   UNL     1       3.704   6.083  17.164  0.00  0.00    +0.000 NA
ATOM     10  C   UNL     1       4.463   6.615  16.025  0.00  0.00    +0.000 C 
ATOM     11  C   UNL     1       5.793   7.284  16.392  0.00  0.00    +0.000 C 
ATOM     12  C   UNL     1       6.507   6.634  17.554  0.00  0.00    +0.000 A 
ATOM     13  C   UNL     1       7.747   7.154  17.956  0.00  0.00    +0.000 A 
ATOM     14  C   UNL     1       8.398   6.648  19.078  0.00  0.00    +0.000 A 
ATOM     15  C   UNL     1       7.826   5.603  19.795  0.00  0.00    +0.000 A 
ATOM     16  C   UNL     1       6.595   5.074  19.398  0.00  0.00    +0.000 A 
ATOM     17  C   UNL     1       5.901   5.591  18.290  0.00  0.00    +0.000 A 
ATOM     18  C   UNL     1       4.520   5.054  17.861  0.00  0.00    +0.000 C 
ENDROOT
BRANCH   1  19
ATOM     19  O   UNL     1       1.788   2.870  22.337  0.00  0.00    +0.000 OA
ATOM     20  H   UNL     1       1.272   2.086  22.091  0.00  0.00    +0.000 HD
ENDBRANCH   1  19
TORSDOF 1
ENDMDL
MODEL 6
REMARK VINA RESULT:      -6.6      1.392      3.331
REMARK  Name = 
REMARK  1 active torsions:
REMARK  status: ('A' for Active; 'I' for Inactive)
REMARK    1  A    between atoms: O_1  and  C_2
REMARK                            x       y       z     vdW  Elec       q    Type
REMARK                         _______ _______ _______ _____ _____    ______ ____
ROOT
ATOM      1  C   UNL     1       6.533   5.376  16.138  0.00  0.00    +0.000 A 
ATOM      2  C   UNL     1       5.309   5.650  15.539  0.00  0.00    +0.000 A 
ATOM      3  C   UNL     1       4.133   5.265  16.183  0.00  0.00    +0.000 A 
ATOM      4  C   UNL     1       4.174   4.625  17.435  0.00  0.00    +0.000 A 
ATOM      5  C   UNL     1       5.423   4.302  17.998  0.00  0.00    +0.000 A 
ATOM      6  C   UNL     1       6.601   4.689  17.344  0.00  0.00    +0.000 A 
ATOM      7  C   UNL     1       5.505   3.457  19.246  0.00  0.00    +0.000 C 
ATOM      8  C   UNL     1       4.161   3.254  19.961  0.00  0.00    +0.000 C 
ATOM      9  N   UNL     1       3.043   3.103  19.014  0.00  0.00    +0.000 NA
ATOM     10  C   UNL     1       1.772   2.791  19.678  0.00  0.00    +0.000 C 
ATOM     11  C   UNL     1       1.259   3.877  20.633  0.00  0.00    +0.000 C 
ATOM     12  C   UNL     1       1.565   5.286  20.180  0.00  0.00    +0.000 A 
ATOM     13  C   UNL     1       1.118   6.356  20.971  0.00  0.00    +0.000 A 
ATOM     14  C   UNL     1       1.454   7.667  20.644  0.00  0.00    +0.000 A 
ATOM     15  C   UNL     1       2.222   7.921  19.513  0.00  0.00    +0.000 A 
ATOM     16  C   UNL     1       2.664   6.862  18.715  0.00  0.00    +0.000 A 
ATOM     17  C   UNL     1       2.369   5.528  19.043  0.00  0.00    +0.000 A 
ATOM     18  C   UNL     1       2.885   4.341  18.205  0.00  0.00    +0.000 C 
ENDROOT
BRANCH   1  19
ATOM     19  O   UNL     1       7.707   5.762  15.560  0.00  0.00    +0.000 OA
ATOM     20  H   UNL     1       7.718   6.731  15.503  0.00  0.00    +0.000 HD
ENDBRANCH   1  19
TORSDOF 1
ENDMDL
MODEL 7
REMARK VINA RESULT:      -6.3      2.594      5.243
REMARK  Name = 
REMARK  1 active torsions:
REMARK  status: ('A' for Active; 'I' for Inactive)
REMARK    1  A    between atoms: O_1  and  C_2
REMARK                            x       y       z     vdW  Elec       q    Type
REMARK                         _______ _______ _______ _____ _____    ______ ____
ROOT
ATOM      1  C   UNL     1       1.763   2.674  21.169  0.00  0.00    +0.000 A 
ATOM      2  C   UNL     1       1.959   2.220  19.870  0.00  0.00    +0.000 A 
ATOM      3  C   UNL     1       2.239   3.140  18.859  0.00  0.00    +0.000 A 
ATOM      4  C   UNL     1       2.346   4.514  19.147  0.00  0.00    +0.000 A 
ATOM      5  C   UNL     1       2.086   4.962  20.455  0.00  0.00    +0.000 A 
ATOM      6  C   UNL     1       1.802   4.032  21.464  0.00  0.00    +0.000 A 
ATOM      7  C   UNL     1       2.013   6.439  20.758  0.00  0.00    +0.000 C 
ATOM      8  C   UNL     1       2.519   7.343  19.624  0.00  0.00    +0.000 C 
ATOM      9  N   UNL     1       2.159   6.822  18.294  0.00  0.00    +0.000 NA
ATOM     10  C   UNL     1       2.532   7.733  17.205  0.00  0.00    +0.000 C 
ATOM     11  C   UNL     1       4.038   7.993  17.068  0.00  0.00    +0.000 C 
ATOM     12  C   UNL     1       4.899   6.796  17.399  0.00  0.00    +0.000 A 
ATOM     13  C   UNL     1       6.293   6.920  17.283  0.00  0.00    +0.000 A 
ATOM     14  C   UNL     1       7.131   5.877  17.664  0.00  0.00    +0.000 A 
ATOM     15  C   UNL     1       6.584   4.692  18.144  0.00  0.00    +0.000 A 
ATOM     16  C   UNL     1       5.197   4.556  18.256  0.00  0.00    +0.000 A 
ATOM     17  C   UNL     1       4.331   5.608  17.912  0.00  0.00    +0.000 A 
ATOM     18  C   UNL     1       2.801   5.499  18.070  0.00  0.00    +0.000 C 
ENDROOT
BRANCH   1  19
ATOM     19  O   UNL     1       1.517   1.808  22.194  0.00  0.00    +0.000 OA
ATOM     20  H   UNL     1       2.196   1.114  22.178  0.00  0.00    +0.000 HD
ENDBRANCH   1  19
TORSDOF 1
ENDMDL
MODEL 8
REMARK VINA RESULT:      -6.3      5.543      8.155
REMARK  Name = 
REMARK  1 active torsions:
REMARK  status: ('A' for Active; 'I' for Inactive)
REMARK    1  A    between atoms: O_1  and  C_2
REMARK                            x       y       z     vdW  Elec       q    Type
REMARK                         _______ _______ _______ _____ _____    ______ ____
ROOT
ATOM      1  C   UNL     1       2.312   7.498  19.452  0.00  0.00    +0.000 A 
ATOM      2  C   UNL     1       2.160   7.966  18.152  0.00  0.00    +0.000 A 
ATOM      3  C   UNL     1       1.359   9.084  17.917  0.00  0.00    +0.000 A 
ATOM      4  C   UNL     1       0.725   9.751  18.981  0.00  0.00    +0.000 A 
ATOM      5  C   UNL     1       0.841   9.228  20.283  0.00  0.00    +0.000 A 
ATOM      6  C   UNL     1       1.645   8.103  20.511  0.00  0.00    +0.000 A 
ATOM      7  C   UNL     1       0.030   9.809  21.415  0.00  0.00    +0.000 C 
ATOM      8  C   UNL     1      -0.663  11.138  21.081  0.00  0.00    +0.000 C 
ATOM      9  N   UNL     1      -1.161  11.173  19.695  0.00  0.00    +0.000 NA
ATOM     10  C   UNL     1      -1.927  12.389  19.396  0.00  0.00    +0.000 C 
ATOM     11  C   UNL     1      -1.132  13.696  19.500  0.00  0.00    +0.000 C 
ATOM     12  C   UNL     1       0.311  13.572  19.070  0.00  0.00    +0.000 A 
ATOM     13  C   UNL     1       1.123  14.717  19.104  0.00  0.00    +0.000 A 
ATOM     14  C   UNL     1       2.479  14.633  18.806  0.00  0.00    +0.000 A 
ATOM     15  C   UNL     1       3.034  13.409  18.449  0.00  0.00    +0.000 A 
ATOM     16  C   UNL     1       2.232  12.265  18.405  0.00  0.00    +0.000 A 
ATOM     17  C   UNL     1       0.867  12.316  18.737  0.00  0.00    +0.000 A 
ATOM     18  C   UNL     1      -0.027  11.059  18.740  0.00  0.00    +0.000 C 
ENDROOT
BRANCH   1  19
ATOM     19  O   UNL     1       3.109   6.428  19.732  0.00  0.00    +0.000 OA
ATOM     20  H   UNL     1       3.785   6.707  20.371  0.00  0.00    +0.000 HD
ENDBRANCH   1  19
TORSDOF 1
ENDMDL
MODEL 9
REMARK VINA RESULT:      -6.3      8.006     10.631
REMARK  Name = 
REMARK  1 active torsions:
REMARK  status: ('A' for Active; 'I' for Inactive)
REMARK    1  A    between atoms: O_1  and  C_2
REMARK                            x       y       z     vdW  Elec       q    Type
REMARK                         _______ _______ _______ _____ _____    ______ ____
ROOT
ATOM      1  C   UNL     1      -3.907  13.382  23.518  0.00  0.00    +0.000 A 
ATOM      2  C   UNL     1      -3.745  14.240  22.437  0.00  0.00    +0.000 A 
ATOM      3  C   UNL     1      -2.777  13.950  21.475  0.00  0.00    +0.000 A 
ATOM      4  C   UNL     1      -1.984  12.792  21.578  0.00  0.00    +0.000 A 
ATOM      5  C   UNL     1      -2.121  11.967  22.711  0.00  0.00    +0.000 A 
ATOM      6  C   UNL     1      -3.093  12.267  23.674  0.00  0.00    +0.000 A 
ATOM      7  C   UNL     1      -1.165  10.823  22.944  0.00  0.00    +0.000 C 
ATOM      8  C   UNL     1      -0.273  10.488  21.740  0.00  0.00    +0.000 C 
ATOM      9  N   UNL     1       0.152  11.695  21.009  0.00  0.00    +0.000 NA
ATOM     10  C   UNL     1       1.099  11.402  19.926  0.00  0.00    +0.000 C 
ATOM     11  C   UNL     1       0.546  10.509  18.808  0.00  0.00    +0.000 C 
ATOM     12  C   UNL     1      -0.917  10.738  18.508  0.00  0.00    +0.000 A 
ATOM     13  C   UNL     1      -1.517   9.988  17.484  0.00  0.00    +0.000 A 
ATOM     14  C   UNL     1      -2.882  10.096  17.233  0.00  0.00    +0.000 A 
ATOM     15  C   UNL     1      -3.655  10.971  17.988  0.00  0.00    +0.000 A 
ATOM     16  C   UNL     1      -3.065  11.727  19.005  0.00  0.00    +0.000 A 
ATOM     17  C   UNL     1      -1.696  11.609  19.302  0.00  0.00    +0.000 A 
ATOM     18  C   UNL     1      -1.033  12.399  20.449  0.00  0.00    +0.000 C 
ENDROOT
BRANCH   1  19
ATOM     19  O   UNL     1      -4.861  13.610  24.467  0.00  0.00    +0.000 OA
ATOM     20  H   UNL     1      -5.108  12.759  24.864  0.00  0.00    +0.000 HD
ENDBRANCH   1  19
TORSDOF 1
ENDMDL
