MODEL 1
REMARK VINA RESULT:      -8.3      0.000      0.000
REMARK  Name = 
REMARK  7 active torsions:
REMARK  status: ('A' for Active; 'I' for Inactive)
REMARK    1  A    between atoms: C_2  and  C_18
REMARK    2  A    between atoms: N_3  and  CA_4
REMARK    3  A    between atoms: CA_4  and  CB_5
REMARK    4  A    between atoms: CA_4  and  C_15
REMARK    5  A    between atoms: CB_5  and  CG_6
REMARK    6  A    between atoms: C_15  and  OXT_17
REMARK    7  A    between atoms: C_24  and  O_25
REMARK                            x       y       z     vdW  Elec       q    Type
REMARK                         _______ _______ _______ _____ _____    ______ ____
ROOT
ATOM      1  CA  TRP A   1       4.928   5.692  18.210  0.00  0.00    +0.000 C 
ENDROOT
BRANCH   1   4
ATOM      2  O   UNK A   0       4.862   3.326  16.607  0.00  0.00    +0.000 OA
ATOM      3  C   UNK A   0       5.384   4.340  16.153  0.00  0.00    +0.000 C 
ATOM      4  N   TRP A   1       5.450   5.509  16.862  0.00  0.00    +0.000 N 
ATOM      5  H   TRP A   1       5.919   6.308  16.434  0.00  0.00    +0.000 HD
BRANCH   3   6
ATOM      6  C   UNK A   0       5.993   4.345  14.780  0.00  0.00    +0.000 A 
ATOM      7  C   UNK A   0       5.384   3.551  13.796  0.00  0.00    +0.000 A 
ATOM      8  C   UNK A   0       5.908   3.511  12.502  0.00  0.00    +0.000 A 
ATOM      9 BR   UNK A   0       5.082   2.439  11.182  0.00  0.00    +0.000 Br
ATOM     10  C   UNK A   0       7.039   4.253  12.170  0.00  0.00    +0.000 A 
ATOM     11  C   UNK A   0       7.653   5.048  13.136  0.00  0.00    +0.000 A 
ATOM     12  C   UNK A   0       7.131   5.096  14.433  0.00  0.00    +0.000 A 
BRANCH  12  13
ATOM     13  O   UNK A   0       7.750   5.888  15.356  0.00  0.00    +0.000 OA
ATOM     14  H   UNK A   0       7.392   5.709  16.245  0.00  0.00    +0.000 HD
ENDBRANCH  12  13
ENDBRANCH   3   6
ENDBRANCH   1   4
BRANCH   1  15
ATOM     15  C   TRP A   1       5.795   4.893  19.195  0.00  0.00    +0.000 C 
ATOM     16  O   TRP A   1       6.749   5.353  19.812  0.00  0.00    +0.000 OA
BRANCH  15  17
ATOM     17  OXT TRP A   1       5.398   3.608  19.374  0.00  0.00    +0.000 OA
ATOM     18  HXT TRP A   1       5.932   3.100  20.012  0.00  0.00    +0.000 HD
ENDBRANCH  15  17
ENDBRANCH   1  15
BRANCH   1  19
ATOM     19  CB  TRP A   1       3.441   5.331  18.321  0.00  0.00    +0.000 C 
BRANCH  19  20
ATOM     20  CG  TRP A   1       2.630   6.212  19.226  0.00  0.00    +0.000 A 
ATOM     21  CD1 TRP A   1       2.199   5.911  20.504  0.00  0.00    +0.000 A 
ATOM     22  NE1 TRP A   1       1.564   7.013  21.016  0.00  0.00    +0.000 N 
ATOM     23  CE2 TRP A   1       1.565   8.033  20.095  0.00  0.00    +0.000 A 
ATOM     24  CZ2 TRP A   1       1.067   9.338  20.191  0.00  0.00    +0.000 A 
ATOM     25  CH2 TRP A   1       1.207  10.169  19.075  0.00  0.00    +0.000 A 
ATOM     26  CZ3 TRP A   1       1.812   9.707  17.908  0.00  0.00    +0.000 A 
ATOM     27  CE3 TRP A   1       2.312   8.403  17.834  0.00  0.00    +0.000 A 
ATOM     28  CD2 TRP A   1       2.198   7.550  18.950  0.00  0.00    +0.000 A 
ATOM     29  HE1 TRP A   1       1.165   7.078  21.941  0.00  0.00    +0.000 HD
ENDBRANCH  19  20
ENDBRANCH   1  19
TORSDOF 7
ENDMDL
MODEL 2
REMARK VINA RESULT:      -8.1      3.816      7.606
REMARK  Name = 
REMARK  7 active torsions:
REMARK  status: ('A' for Active; 'I' for Inactive)
REMARK    1  A    between atoms: C_2  and  C_18
REMARK    2  A    between atoms: N_3  and  CA_4
REMARK    3  A    between atoms: CA_4  and  CB_5
REMARK    4  A    between atoms: CA_4  and  C_15
REMARK    5  A    between atoms: CB_5  and  CG_6
REMARK    6  A    between atoms: C_15  and  OXT_17
REMARK    7  A    between atoms: C_24  and  O_25
REMARK                            x       y       z     vdW  Elec       q    Type
REMARK                         _______ _______ _______ _____ _____    ______ ____
ROOT
ATOM      1  CA  TRP A   1       2.680   5.124  18.739  0.00  0.00    +0.000 C 
ENDROOT
BRANCH   1   4
ATOM      2  O   UNK A   0       3.183   7.769  17.779  0.00  0.00    +0.000 OA
ATOM      3  C   UNK A   0       2.373   7.609  18.687  0.00  0.00    +0.000 C 
ATOM      4  N   TRP A   1       2.080   6.371  19.196  0.00  0.00    +0.000 N 
ATOM      5  H   TRP A   1       1.414   6.310  19.967  0.00  0.00    +0.000 HD
BRANCH   3   6
ATOM      6  C   UNK A   0       1.658   8.779  19.300  0.00  0.00    +0.000 A 
ATOM      7  C   UNK A   0       1.207   8.644  20.622  0.00  0.00    +0.000 A 
ATOM      8  C   UNK A   0       0.530   9.696  21.244  0.00  0.00    +0.000 A 
ATOM      9 BR   UNK A   0      -0.073   9.507  23.026  0.00  0.00    +0.000 Br
ATOM     10  C   UNK A   0       0.291  10.888  20.565  0.00  0.00    +0.000 A 
ATOM     11  C   UNK A   0       0.735  11.036  19.252  0.00  0.00    +0.000 A 
ATOM     12  C   UNK A   0       1.417   9.989  18.624  0.00  0.00    +0.000 A 
BRANCH  12  13
ATOM     13  O   UNK A   0       1.845  10.165  17.340  0.00  0.00    +0.000 OA
ATOM     14  H   UNK A   0       2.815  10.262  17.321  0.00  0.00    +0.000 HD
ENDBRANCH  12  13
ENDBRANCH   3   6
ENDBRANCH   1   4
BRANCH   1  15
ATOM     15  C   TRP A   1       1.604   4.027  18.728  0.00  0.00    +0.000 C 
ATOM     16  O   TRP A   1       1.276   3.386  17.736  0.00  0.00    +0.000 OA
BRANCH  15  17
ATOM     17  OXT TRP A   1       1.048   3.777  19.940  0.00  0.00    +0.000 OA
ATOM     18  HXT TRP A   1       0.084   3.915  19.984  0.00  0.00    +0.000 HD
ENDBRANCH  15  17
ENDBRANCH   1  15
BRANCH   1  19
ATOM     19  CB  TRP A   1       3.909   4.723  19.564  0.00  0.00    +0.000 C 
BRANCH  19  20
ATOM     20  CG  TRP A   1       5.232   4.895  18.875  0.00  0.00    +0.000 A 
ATOM     21  CD1 TRP A   1       6.439   5.214  19.467  0.00  0.00    +0.000 A 
ATOM     22  NE1 TRP A   1       7.413   5.190  18.503  0.00  0.00    +0.000 N 
ATOM     23  CE2 TRP A   1       6.867   4.867  17.284  0.00  0.00    +0.000 A 
ATOM     24  CZ2 TRP A   1       7.479   4.696  16.037  0.00  0.00    +0.000 A 
ATOM     25  CH2 TRP A   1       6.660   4.366  14.952  0.00  0.00    +0.000 A 
ATOM     26  CZ3 TRP A   1       5.283   4.225  15.110  0.00  0.00    +0.000 A 
ATOM     27  CE3 TRP A   1       4.690   4.391  16.365  0.00  0.00    +0.000 A 
ATOM     28  CD2 TRP A   1       5.495   4.708  17.479  0.00  0.00    +0.000 A 
ATOM     29  HE1 TRP A   1       8.394   5.369  18.662  0.00  0.00    +0.000 HD
ENDBRANCH  19  20
ENDBRANCH   1  19
TORSDOF 7
ENDMDL
MODEL 3
REMARK VINA RESULT:      -8.1      2.775      3.463
REMARK  Name = 
REMARK  7 active torsions:
REMARK  status: ('A' for Active; 'I' for Inactive)
REMARK    1  A    between atoms: C_2  and  C_18
REMARK    2  A    between atoms: N_3  and  CA_4
REMARK    3  A    between atoms: CA_4  and  CB_5
REMARK    4  A    between atoms: CA_4  and  C_15
REMARK    5  A    between atoms: CB_5  and  CG_6
REMARK    6  A    between atoms: C_15  and  OXT_17
REMARK    7  A    between atoms: C_24  and  O_25
REMARK                            x       y       z     vdW  Elec       q    Type
REMARK                         _______ _______ _______ _____ _____    ______ ____
ROOT
ATOM      1  CA  TRP A   1       6.039   6.203  17.481  0.00  0.00    +0.000 C 
ENDROOT
BRANCH   1   4
ATOM      2  O   UNK A   0       7.892   4.432  16.218  0.00  0.00    +0.000 OA
ATOM      3  C   UNK A   0       7.042   4.992  15.533  0.00  0.00    +0.000 C 
ATOM      4  N   TRP A   1       6.121   5.851  16.070  0.00  0.00    +0.000 N 
ATOM      5  H   TRP A   1       5.456   6.302  15.440  0.00  0.00    +0.000 HD
BRANCH   3   6
ATOM      6  C   UNK A   0       6.973   4.766  14.050  0.00  0.00    +0.000 A 
ATOM      7  C   UNK A   0       5.907   3.996  13.559  0.00  0.00    +0.000 A 
ATOM      8  C   UNK A   0       5.793   3.746  12.190  0.00  0.00    +0.000 A 
ATOM      9 BR   UNK A   0       4.354   2.710  11.536  0.00  0.00    +0.000 Br
ATOM     10  C   UNK A   0       6.733   4.253  11.294  0.00  0.00    +0.000 A 
ATOM     11  C   UNK A   0       7.795   5.020  11.768  0.00  0.00    +0.000 A 
ATOM     12  C   UNK A   0       7.913   5.277  13.137  0.00  0.00    +0.000 A 
BRANCH  12  13
ATOM     13  O   UNK A   0       8.962   6.037  13.570  0.00  0.00    +0.000 OA
ATOM     14  H   UNK A   0       9.479   5.546  14.235  0.00  0.00    +0.000 HD
ENDBRANCH  12  13
ENDBRANCH   3   6
ENDBRANCH   1   4
BRANCH   1  15
ATOM     15  C   TRP A   1       7.294   7.000  17.871  0.00  0.00    +0.000 C 
ATOM     16  O   TRP A   1       8.075   6.675  18.759  0.00  0.00    +0.000 OA
BRANCH  15  17
ATOM     17  OXT TRP A   1       7.511   8.105  17.116  0.00  0.00    +0.000 OA
ATOM     18  HXT TRP A   1       6.824   8.793  17.189  0.00  0.00    +0.000 HD
ENDBRANCH  15  17
ENDBRANCH   1  15
BRANCH   1  19
ATOM     19  CB  TRP A   1       5.823   4.982  18.383  0.00  0.00    +0.000 C 
BRANCH  19  20
ATOM     20  CG  TRP A   1       4.520   4.261  18.191  0.00  0.00    +0.000 A 
ATOM     21  CD1 TRP A   1       4.229   3.322  17.220  0.00  0.00    +0.000 A 
ATOM     22  NE1 TRP A   1       2.963   2.847  17.445  0.00  0.00    +0.000 N 
ATOM     23  CE2 TRP A   1       2.413   3.462  18.544  0.00  0.00    +0.000 A 
ATOM     24  CZ2 TRP A   1       1.169   3.272  19.157  0.00  0.00    +0.000 A 
ATOM     25  CH2 TRP A   1       0.872   4.054  20.278  0.00  0.00    +0.000 A 
ATOM     26  CZ3 TRP A   1       1.781   4.995  20.757  0.00  0.00    +0.000 A 
ATOM     27  CE3 TRP A   1       3.023   5.165  20.136  0.00  0.00    +0.000 A 
ATOM     28  CD2 TRP A   1       3.354   4.378  19.014  0.00  0.00    +0.000 A 
ATOM     29  HE1 TRP A   1       2.501   2.137  16.895  0.00  0.00    +0.000 HD
ENDBRANCH  19  20
ENDBRANCH   1  19
TORSDOF 7
ENDMDL
MODEL 4
REMARK VINA RESULT:      -8.0      3.301      7.351
REMARK  Name = 
REMARK  7 active torsions:
REMARK  status: ('A' for Active; 'I' for Inactive)
REMARK    1  A    between atoms: C_2  and  C_18
REMARK    2  A    between atoms: N_3  and  CA_4
REMARK    3  A    between atoms: CA_4  and  CB_5
REMARK    4  A    between atoms: CA_4  and  C_15
REMARK    5  A    between atoms: CB_5  and  CG_6
REMARK    6  A    between atoms: C_15  and  OXT_17
REMARK    7  A    between atoms: C_24  and  O_25
REMARK                            x       y       z     vdW  Elec       q    Type
REMARK                         _______ _______ _______ _____ _____    ______ ____
ROOT
ATOM      1  CA  TRP A   1       6.968   5.270  18.164  0.00  0.00    +0.000 C 
ENDROOT
BRANCH   1   4
ATOM      2  O   UNK A   0       5.480   3.159  19.388  0.00  0.00    +0.000 OA
ATOM      3  C   UNK A   0       4.946   4.253  19.235  0.00  0.00    +0.000 C 
ATOM      4  N   TRP A   1       5.598   5.311  18.659  0.00  0.00    +0.000 N 
ATOM      5  H   TRP A   1       5.088   6.187  18.541  0.00  0.00    +0.000 HD
BRANCH   3   6
ATOM      6  C   UNK A   0       3.528   4.488  19.672  0.00  0.00    +0.000 A 
ATOM      7  C   UNK A   0       3.160   5.801  20.003  0.00  0.00    +0.000 A 
ATOM      8  C   UNK A   0       1.858   6.081  20.422  0.00  0.00    +0.000 A 
ATOM      9 BR   UNK A   0       1.369   7.853  20.866  0.00  0.00    +0.000 Br
ATOM     10  C   UNK A   0       0.909   5.066  20.519  0.00  0.00    +0.000 A 
ATOM     11  C   UNK A   0       1.260   3.758  20.191  0.00  0.00    +0.000 A 
ATOM     12  C   UNK A   0       2.561   3.471  19.767  0.00  0.00    +0.000 A 
BRANCH  12  13
ATOM     13  O   UNK A   0       2.874   2.181  19.447  0.00  0.00    +0.000 OA
ATOM     14  H   UNK A   0       3.100   2.117  18.501  0.00  0.00    +0.000 HD
ENDBRANCH  12  13
ENDBRANCH   3   6
ENDBRANCH   1   4
BRANCH   1  15
ATOM     15  C   TRP A   1       7.868   6.067  19.120  0.00  0.00    +0.000 C 
ATOM     16  O   TRP A   1       8.359   7.161  18.864  0.00  0.00    +0.000 OA
BRANCH  15  17
ATOM     17  OXT TRP A   1       8.061   5.479  20.328  0.00  0.00    +0.000 OA
ATOM     18  HXT TRP A   1       8.183   4.512  20.297  0.00  0.00    +0.000 HD
ENDBRANCH  15  17
ENDBRANCH   1  15
BRANCH   1  19
ATOM     19  CB  TRP A   1       7.087   5.756  16.715  0.00  0.00    +0.000 C 
BRANCH  19  20
ATOM     20  CG  TRP A   1       6.668   4.766  15.667  0.00  0.00    +0.000 A 
ATOM     21  CD1 TRP A   1       5.831   3.681  15.841  0.00  0.00    +0.000 A 
ATOM     22  NE1 TRP A   1       5.638   3.085  14.621  0.00  0.00    +0.000 N 
ATOM     23  CE2 TRP A   1       6.338   3.755  13.648  0.00  0.00    +0.000 A 
ATOM     24  CZ2 TRP A   1       6.412   3.528  12.269  0.00  0.00    +0.000 A 
ATOM     25  CH2 TRP A   1       7.221   4.382  11.513  0.00  0.00    +0.000 A 
ATOM     26  CZ3 TRP A   1       7.935   5.415  12.117  0.00  0.00    +0.000 A 
ATOM     27  CE3 TRP A   1       7.842   5.633  13.495  0.00  0.00    +0.000 A 
ATOM     28  CD2 TRP A   1       7.021   4.795  14.278  0.00  0.00    +0.000 A 
ATOM     29  HE1 TRP A   1       5.054   2.278  14.454  0.00  0.00    +0.000 HD
ENDBRANCH  19  20
ENDBRANCH   1  19
TORSDOF 7
ENDMDL
MODEL 5
REMARK VINA RESULT:      -8.0      3.801      6.956
REMARK  Name = 
REMARK  7 active torsions:
REMARK  status: ('A' for Active; 'I' for Inactive)
REMARK    1  A    between atoms: C_2  and  C_18
REMARK    2  A    between atoms: N_3  and  CA_4
REMARK    3  A    between atoms: CA_4  and  CB_5
REMARK    4  A    between atoms: CA_4  and  C_15
REMARK    5  A    between atoms: CB_5  and  CG_6
REMARK    6  A    between atoms: C_15  and  OXT_17
REMARK    7  A    between atoms: C_24  and  O_25
REMARK                            x       y       z     vdW  Elec       q    Type
REMARK                         _______ _______ _______ _____ _____    ______ ____
ROOT
ATOM      1  CA  TRP A   1       2.658   3.883  17.607  0.00  0.00    +0.000 C 
ENDROOT
BRANCH   1   4
ATOM      2  O   UNK A   0       3.200   5.266  20.049  0.00  0.00    +0.000 OA
ATOM      3  C   UNK A   0       2.578   5.843  19.163  0.00  0.00    +0.000 C 
ATOM      4  N   TRP A   1       2.284   5.245  17.967  0.00  0.00    +0.000 N 
ATOM      5  H   TRP A   1       1.743   5.773  17.281  0.00  0.00    +0.000 HD
BRANCH   3   6
ATOM      6  C   UNK A   0       2.094   7.253  19.351  0.00  0.00    +0.000 A 
ATOM      7  C   UNK A   0       1.502   7.577  20.581  0.00  0.00    +0.000 A 
ATOM      8  C   UNK A   0       1.027   8.870  20.813  0.00  0.00    +0.000 A 
ATOM      9 BR   UNK A   0       0.231   9.300  22.474  0.00  0.00    +0.000 Br
ATOM     10  C   UNK A   0       1.132   9.852  19.831  0.00  0.00    +0.000 A 
ATOM     11  C   UNK A   0       1.720   9.544  18.605  0.00  0.00    +0.000 A 
ATOM     12  C   UNK A   0       2.200   8.253  18.368  0.00  0.00    +0.000 A 
BRANCH  12  13
ATOM     13  O   UNK A   0       2.777   7.984  17.160  0.00  0.00    +0.000 OA
ATOM     14  H   UNK A   0       2.088   7.857  16.481  0.00  0.00    +0.000 HD
ENDBRANCH  12  13
ENDBRANCH   3   6
ENDBRANCH   1   4
BRANCH   1  15
ATOM     15  C   TRP A   1       1.890   2.900  18.504  0.00  0.00    +0.000 C 
ATOM     16  O   TRP A   1       0.728   2.555  18.322  0.00  0.00    +0.000 OA
BRANCH  15  17
ATOM     17  OXT TRP A   1       2.621   2.390  19.527  0.00  0.00    +0.000 OA
ATOM     18  HXT TRP A   1       2.370   1.487  19.799  0.00  0.00    +0.000 HD
ENDBRANCH  15  17
ENDBRANCH   1  15
BRANCH   1  19
ATOM     19  CB  TRP A   1       4.173   3.654  17.658  0.00  0.00    +0.000 C 
BRANCH  19  20
ATOM     20  CG  TRP A   1       5.013   4.766  17.099  0.00  0.00    +0.000 A 
ATOM     21  CD1 TRP A   1       4.852   5.389  15.876  0.00  0.00    +0.000 A 
ATOM     22  NE1 TRP A   1       5.769   6.405  15.786  0.00  0.00    +0.000 N 
ATOM     23  CE2 TRP A   1       6.533   6.458  16.926  0.00  0.00    +0.000 A 
ATOM     24  CZ2 TRP A   1       7.557   7.342  17.288  0.00  0.00    +0.000 A 
ATOM     25  CH2 TRP A   1       8.171   7.150  18.530  0.00  0.00    +0.000 A 
ATOM     26  CZ3 TRP A   1       7.782   6.109  19.369  0.00  0.00    +0.000 A 
ATOM     27  CE3 TRP A   1       6.751   5.240  18.995  0.00  0.00    +0.000 A 
ATOM     28  CD2 TRP A   1       6.105   5.421  17.755  0.00  0.00    +0.000 A 
ATOM     29  HE1 TRP A   1       5.863   7.036  15.004  0.00  0.00    +0.000 HD
ENDBRANCH  19  20
ENDBRANCH   1  19
TORSDOF 7
ENDMDL
MODEL 6
REMARK VINA RESULT:      -7.9      3.366      6.537
REMARK  Name = 
REMARK  7 active torsions:
REMARK  status: ('A' for Active; 'I' for Inactive)
REMARK    1  A    between atoms: C_2  and  C_18
REMARK    2  A    between atoms: N_3  and  CA_4
REMARK    3  A    between atoms: CA_4  and  CB_5
REMARK    4  A    between atoms: CA_4  and  C_15
REMARK    5  A    between atoms: CB_5  and  CG_6
REMARK    6  A    between atoms: C_15  and  OXT_17
REMARK    7  A    between atoms: C_24  and  O_25
REMARK                            x       y       z     vdW  Elec       q    Type
REMARK                         _______ _______ _______ _____ _____    ______ ____
ROOT
ATOM      1  CA  TRP A   1       3.900   2.970  17.790  0.00  0.00    +0.000 C 
ENDROOT
BRANCH   1   4
ATOM      2  O   UNK A   0       1.462   4.412  17.403  0.00  0.00    +0.000 OA
ATOM      3  C   UNK A   0       2.293   4.848  18.193  0.00  0.00    +0.000 C 
ATOM      4  N   TRP A   1       3.482   4.210  18.431  0.00  0.00    +0.000 N 
ATOM      5  H   TRP A   1       4.139   4.639  19.083  0.00  0.00    +0.000 HD
BRANCH   3   6
ATOM      6  C   UNK A   0       2.049   6.126  18.944  0.00  0.00    +0.000 A 
ATOM      7  C   UNK A   0       2.070   7.323  18.213  0.00  0.00    +0.000 A 
ATOM      8  C   UNK A   0       1.856   8.543  18.857  0.00  0.00    +0.000 A 
ATOM      9 BR   UNK A   0       1.884  10.153  17.864  0.00  0.00    +0.000 Br
ATOM     10  C   UNK A   0       1.622   8.591  20.229  0.00  0.00    +0.000 A 
ATOM     11  C   UNK A   0       1.597   7.410  20.968  0.00  0.00    +0.000 A 
ATOM     12  C   UNK A   0       1.806   6.184  20.329  0.00  0.00    +0.000 A 
BRANCH  12  13
ATOM     13  O   UNK A   0       1.770   5.043  21.077  0.00  0.00    +0.000 OA
ATOM     14  H   UNK A   0       0.846   4.800  21.273  0.00  0.00    +0.000 HD
ENDBRANCH  12  13
ENDBRANCH   3   6
ENDBRANCH   1   4
BRANCH   1  15
ATOM     15  C   TRP A   1       4.408   1.998  18.866  0.00  0.00    +0.000 C 
ATOM     16  O   TRP A   1       4.828   2.337  19.966  0.00  0.00    +0.000 OA
BRANCH  15  17
ATOM     17  OXT TRP A   1       4.323   0.688  18.522  0.00  0.00    +0.000 OA
ATOM     18  HXT TRP A   1       4.516   0.498  17.585  0.00  0.00    +0.000 HD
ENDBRANCH  15  17
ENDBRANCH   1  15
BRANCH   1  19
ATOM     19  CB  TRP A   1       4.932   3.198  16.679  0.00  0.00    +0.000 C 
BRANCH  19  20
ATOM     20  CG  TRP A   1       5.425   4.609  16.537  0.00  0.00    +0.000 A 
ATOM     21  CD1 TRP A   1       4.988   5.551  15.626  0.00  0.00    +0.000 A 
ATOM     22  NE1 TRP A   1       5.631   6.733  15.886  0.00  0.00    +0.000 N 
ATOM     23  CE2 TRP A   1       6.489   6.584  16.949  0.00  0.00    +0.000 A 
ATOM     24  CZ2 TRP A   1       7.318   7.520  17.579  0.00  0.00    +0.000 A 
ATOM     25  CH2 TRP A   1       8.098   7.077  18.652  0.00  0.00    +0.000 A 
ATOM     26  CZ3 TRP A   1       8.055   5.748  19.068  0.00  0.00    +0.000 A 
ATOM     27  CE3 TRP A   1       7.215   4.829  18.433  0.00  0.00    +0.000 A 
ATOM     28  CD2 TRP A   1       6.406   5.254  17.358  0.00  0.00    +0.000 A 
ATOM     29  HE1 TRP A   1       5.489   7.597  15.382  0.00  0.00    +0.000 HD
ENDBRANCH  19  20
ENDBRANCH   1  19
TORSDOF 7
ENDMDL
MODEL 7
REMARK VINA RESULT:      -7.9      1.264      1.535
REMARK  Name = 
REMARK  7 active torsions:
REMARK  status: ('A' for Active; 'I' for Inactive)
REMARK    1  A    between atoms: C_2  and  C_18
REMARK    2  A    between atoms: N_3  and  CA_4
REMARK    3  A    between atoms: CA_4  and  CB_5
REMARK    4  A    between atoms: CA_4  and  C_15
REMARK    5  A    between atoms: CB_5  and  CG_6
REMARK    6  A    between atoms: C_15  and  OXT_17
REMARK    7  A    between atoms: C_24  and  O_25
REMARK                            x       y       z     vdW  Elec       q    Type
REMARK                         _______ _______ _______ _____ _____    ______ ____
ROOT
ATOM      1  CA  TRP A   1       4.042   3.963  18.041  0.00  0.00    +0.000 C 
ENDROOT
BRANCH   1   4
ATOM      2  O   UNK A   0       5.280   6.083  16.578  0.00  0.00    +0.000 OA
ATOM      3  C   UNK A   0       5.244   4.960  16.084  0.00  0.00    +0.000 C 
ATOM      4  N   TRP A   1       4.669   3.897  16.728  0.00  0.00    +0.000 N 
ATOM      5  H   TRP A   1       4.653   2.995  16.251  0.00  0.00    +0.000 HD
BRANCH   3   6
ATOM      6  C   UNK A   0       5.829   4.694  14.727  0.00  0.00    +0.000 A 
ATOM      7  C   UNK A   0       5.045   3.977  13.811  0.00  0.00    +0.000 A 
ATOM      8  C   UNK A   0       5.538   3.693  12.535  0.00  0.00    +0.000 A 
ATOM      9 BR   UNK A   0       4.475   2.727  11.306  0.00  0.00    +0.000 Br
ATOM     10  C   UNK A   0       6.810   4.114  12.155  0.00  0.00    +0.000 A 
ATOM     11  C   UNK A   0       7.599   4.829  13.054  0.00  0.00    +0.000 A 
ATOM     12  C   UNK A   0       7.111   5.120  14.331  0.00  0.00    +0.000 A 
BRANCH  12  13
ATOM     13  O   UNK A   0       7.904   5.828  15.188  0.00  0.00    +0.000 OA
ATOM     14  H   UNK A   0       8.841   5.597  15.046  0.00  0.00    +0.000 HD
ENDBRANCH  12  13
ENDBRANCH   3   6
ENDBRANCH   1   4
BRANCH   1  15
ATOM     15  C   TRP A   1       4.145   2.586  18.714  0.00  0.00    +0.000 C 
ATOM     16  O   TRP A   1       3.447   1.619  18.429  0.00  0.00    +0.000 OA
BRANCH  15  17
ATOM     17  OXT TRP A   1       5.121   2.493  19.652  0.00  0.00    +0.000 OA
ATOM     18  HXT TRP A   1       6.019   2.696  19.329  0.00  0.00    +0.000 HD
ENDBRANCH  15  17
ENDBRANCH   1  15
BRANCH   1  19
ATOM     19  CB  TRP A   1       2.597   4.473  17.980  0.00  0.00    +0.000 C 
BRANCH  19  20
ATOM     20  CG  TRP A   1       2.225   5.483  19.026  0.00  0.00    +0.000 A 
ATOM     21  CD1 TRP A   1       2.064   5.253  20.379  0.00  0.00    +0.000 A 
ATOM     22  NE1 TRP A   1       1.809   6.451  20.994  0.00  0.00    +0.000 N 
ATOM     23  CE2 TRP A   1       1.793   7.466  20.068  0.00  0.00    +0.000 A 
ATOM     24  CZ2 TRP A   1       1.606   8.843  20.240  0.00  0.00    +0.000 A 
ATOM     25  CH2 TRP A   1       1.636   9.649  19.097  0.00  0.00    +0.000 A 
ATOM     26  CZ3 TRP A   1       1.835   9.096  17.835  0.00  0.00    +0.000 A 
ATOM     27  CE3 TRP A   1       2.028   7.719  17.683  0.00  0.00    +0.000 A 
ATOM     28  CD2 TRP A   1       2.018   6.886  18.820  0.00  0.00    +0.000 A 
ATOM     29  HE1 TRP A   1       1.667   6.578  21.986  0.00  0.00    +0.000 HD
ENDBRANCH  19  20
ENDBRANCH   1  19
TORSDOF 7
ENDMDL
MODEL 8
REMARK VINA RESULT:      -7.9      2.282      3.673
REMARK  Name = 
REMARK  7 active torsions:
REMARK  status: ('A' for Active; 'I' for Inactive)
REMARK    1  A    between atoms: C_2  and  C_18
REMARK    2  A    between atoms: N_3  and  CA_4
REMARK    3  A    between atoms: CA_4  and  CB_5
REMARK    4  A    between atoms: CA_4  and  C_15
REMARK    5  A    between atoms: CB_5  and  CG_6
REMARK    6  A    between atoms: C_15  and  OXT_17
REMARK    7  A    between atoms: C_24  and  O_25
REMARK                            x       y       z     vdW  Elec       q    Type
REMARK                         _______ _______ _______ _____ _____    ______ ____
ROOT
ATOM      1  CA  TRP A   1       6.212   6.711  17.367  0.00  0.00    +0.000 C 
ENDROOT
BRANCH   1   4
ATOM      2  O   UNK A   0       7.700   4.495  16.345  0.00  0.00    +0.000 OA
ATOM      3  C   UNK A   0       7.035   5.174  15.569  0.00  0.00    +0.000 C 
ATOM      4  N   TRP A   1       6.296   6.249  15.987  0.00  0.00    +0.000 N 
ATOM      5  H   TRP A   1       5.784   6.785  15.286  0.00  0.00    +0.000 HD
BRANCH   3   6
ATOM      6  C   UNK A   0       7.003   4.861  14.101  0.00  0.00    +0.000 A 
ATOM      7  C   UNK A   0       5.951   4.062  13.629  0.00  0.00    +0.000 A 
ATOM      8  C   UNK A   0       5.872   3.732  12.274  0.00  0.00    +0.000 A 
ATOM      9 BR   UNK A   0       4.450   2.655  11.646  0.00  0.00    +0.000 Br
ATOM     10  C   UNK A   0       6.833   4.187  11.375  0.00  0.00    +0.000 A 
ATOM     11  C   UNK A   0       7.883   4.983  11.829  0.00  0.00    +0.000 A 
ATOM     12  C   UNK A   0       7.966   5.320  13.183  0.00  0.00    +0.000 A 
BRANCH  12  13
ATOM     13  O   UNK A   0       9.002   6.107  13.597  0.00  0.00    +0.000 OA
ATOM     14  H   UNK A   0       8.669   6.831  14.160  0.00  0.00    +0.000 HD
ENDBRANCH  12  13
ENDBRANCH   3   6
ENDBRANCH   1   4
BRANCH   1  15
ATOM     15  C   TRP A   1       7.576   7.283  17.785  0.00  0.00    +0.000 C 
ATOM     16  O   TRP A   1       8.096   8.275  17.288  0.00  0.00    +0.000 OA
BRANCH  15  17
ATOM     17  OXT TRP A   1       8.171   6.616  18.806  0.00  0.00    +0.000 OA
ATOM     18  HXT TRP A   1       8.579   7.186  19.484  0.00  0.00    +0.000 HD
ENDBRANCH  15  17
ENDBRANCH   1  15
BRANCH   1  19
ATOM     19  CB  TRP A   1       5.720   5.621  18.326  0.00  0.00    +0.000 C 
BRANCH  19  20
ATOM     20  CG  TRP A   1       4.235   5.404  18.347  0.00  0.00    +0.000 A 
ATOM     21  CD1 TRP A   1       3.255   6.367  18.195  0.00  0.00    +0.000 A 
ATOM     22  NE1 TRP A   1       2.034   5.743  18.191  0.00  0.00    +0.000 N 
ATOM     23  CE2 TRP A   1       2.193   4.387  18.344  0.00  0.00    +0.000 A 
ATOM     24  CZ2 TRP A   1       1.239   3.363  18.366  0.00  0.00    +0.000 A 
ATOM     25  CH2 TRP A   1       1.697   2.053  18.544  0.00  0.00    +0.000 A 
ATOM     26  CZ3 TRP A   1       3.054   1.784  18.705  0.00  0.00    +0.000 A 
ATOM     27  CE3 TRP A   1       3.994   2.819  18.672  0.00  0.00    +0.000 A 
ATOM     28  CD2 TRP A   1       3.560   4.147  18.478  0.00  0.00    +0.000 A 
ATOM     29  HE1 TRP A   1       1.144   6.206  18.077  0.00  0.00    +0.000 HD
ENDBRANCH  19  20
ENDBRANCH   1  19
TORSDOF 7
ENDMDL
MODEL 9
REMARK VINA RESULT:      -7.9      2.843      3.436
REMARK  Name = 
REMARK  7 active torsions:
REMARK  status: ('A' for Active; 'I' for Inactive)
REMARK    1  A    between atoms: C_2  and  C_18
REMARK    2  A    between atoms: N_3  and  CA_4
REMARK    3  A    between atoms: CA_4  and  CB_5
REMARK    4  A    between atoms: CA_4  and  C_15
REMARK    5  A    between atoms: CB_5  and  CG_6
REMARK    6  A    between atoms: C_15  and  OXT_17
REMARK    7  A    between atoms: C_24  and  O_25
REMARK                            x       y       z     vdW  Elec       q    Type
REMARK                         _______ _______ _______ _____ _____    ______ ____
ROOT
ATOM      1  CA  TRP A   1       6.270   5.343  18.196  0.00  0.00    +0.000 C 
ENDROOT
BRANCH   1   4
ATOM      2  O   UNK A   0       4.745   6.094  15.898  0.00  0.00    +0.000 OA
ATOM      3  C   UNK A   0       5.731   5.379  15.751  0.00  0.00    +0.000 C 
ATOM      4  N   TRP A   1       6.510   4.982  16.804  0.00  0.00    +0.000 N 
ATOM      5  H   TRP A   1       7.303   4.368  16.615  0.00  0.00    +0.000 HD
BRANCH   3   6
ATOM      6  C   UNK A   0       6.134   4.891  14.389  0.00  0.00    +0.000 A 
ATOM      7  C   UNK A   0       5.175   4.195  13.638  0.00  0.00    +0.000 A 
ATOM      8  C   UNK A   0       5.493   3.711  12.367  0.00  0.00    +0.000 A 
ATOM      9 BR   UNK A   0       4.194   2.774  11.361  0.00  0.00    +0.000 Br
ATOM     10  C   UNK A   0       6.762   3.909  11.828  0.00  0.00    +0.000 A 
ATOM     11  C   UNK A   0       7.724   4.600  12.562  0.00  0.00    +0.000 A 
ATOM     12  C   UNK A   0       7.411   5.091  13.833  0.00  0.00    +0.000 A 
BRANCH  12  13
ATOM     13  O   UNK A   0       8.372   5.770  14.525  0.00  0.00    +0.000 OA
ATOM     14  H   UNK A   0       9.067   5.154  14.825  0.00  0.00    +0.000 HD
ENDBRANCH  12  13
ENDBRANCH   3   6
ENDBRANCH   1   4
BRANCH   1  15
ATOM     15  C   TRP A   1       7.521   6.039  18.753  0.00  0.00    +0.000 C 
ATOM     16  O   TRP A   1       8.015   7.060  18.287  0.00  0.00    +0.000 OA
BRANCH  15  17
ATOM     17  OXT TRP A   1       8.041   5.452  19.861  0.00  0.00    +0.000 OA
ATOM     18  HXT TRP A   1       7.384   5.040  20.452  0.00  0.00    +0.000 HD
ENDBRANCH  15  17
ENDBRANCH   1  15
BRANCH   1  19
ATOM     19  CB  TRP A   1       5.842   4.145  19.051  0.00  0.00    +0.000 C 
BRANCH  19  20
ATOM     20  CG  TRP A   1       4.510   3.546  18.701  0.00  0.00    +0.000 A 
ATOM     21  CD1 TRP A   1       4.264   2.576  17.749  0.00  0.00    +0.000 A 
ATOM     22  NE1 TRP A   1       2.935   2.246  17.802  0.00  0.00    +0.000 N 
ATOM     23  CE2 TRP A   1       2.300   2.986  18.770  0.00  0.00    +0.000 A 
ATOM     24  CZ2 TRP A   1       0.966   2.964  19.195  0.00  0.00    +0.000 A 
ATOM     25  CH2 TRP A   1       0.596   3.847  20.215  0.00  0.00    +0.000 A 
ATOM     26  CZ3 TRP A   1       1.521   4.723  20.776  0.00  0.00    +0.000 A 
ATOM     27  CE3 TRP A   1       2.851   4.726  20.344  0.00  0.00    +0.000 A 
ATOM     28  CD2 TRP A   1       3.255   3.835  19.329  0.00  0.00    +0.000 A 
ATOM     29  HE1 TRP A   1       2.484   1.550  17.226  0.00  0.00    +0.000 HD
ENDBRANCH  19  20
ENDBRANCH   1  19
TORSDOF 7
ENDMDL
