MODEL 1
REMARK VINA RESULT:      -7.0      0.000      0.000
REMARK  Name = 
REMARK  7 active torsions:
REMARK  status: ('A' for Active; 'I' for Inactive)
REMARK    1  A    between atoms: C_1  and  S_2
REMARK    2  A    between atoms: S_2  and  C_3
REMARK    3  A    between atoms: C_6  and  C_7
REMARK    4  A    between atoms: N_10  and  C_11
REMARK    5  A    between atoms: C_14  and  C_15
REMARK    6  A    between atoms: C_18  and  S_19
REMARK    7  A    between atoms: S_19  and  C_20
REMARK                            x       y       z     vdW  Elec       q    Type
REMARK                         _______ _______ _______ _____ _____    ______ ____
ROOT
ATOM      1  C   UNL     1      -1.132  11.764  23.099  0.00  0.00    +0.000 C 
ATOM      2  C   UNL     1      -0.729  10.975  22.077  0.00  0.00    +0.000 C 
ATOM      3  C   UNL     1      -1.318  11.072  20.687  0.00  0.00    +0.000 C 
ATOM      4  N   UNL     1      -0.276  10.769  19.691  0.00  0.00    +0.000 NA
ATOM      5  C   UNL     1      -0.748  11.065  18.330  0.00  0.00    +0.000 C 
ATOM      6  C   UNL     1       0.197   9.369  19.783  0.00  0.00    +0.000 C 
ATOM      7  C   UNL     1       0.658   9.013  21.189  0.00  0.00    +0.000 C 
ATOM      8  C   UNL     1       1.388   7.900  21.437  0.00  0.00    +0.000 C 
ATOM      9  C   UNL     1       0.278   9.912  22.311  0.00  0.00    +0.000 C 
ATOM     10  O   UNL     1       0.738   9.732  23.432  0.00  0.00    +0.000 OA
ENDROOT
BRANCH   1  14
ATOM     11  C   UNL     1      -4.234  14.670  22.695  0.00  0.00    +0.000 A 
ATOM     12  C   UNL     1      -2.923  14.969  22.312  0.00  0.00    +0.000 A 
ATOM     13  C   UNL     1      -1.917  14.015  22.449  0.00  0.00    +0.000 A 
ATOM     14  C   UNL     1      -2.213  12.754  22.986  0.00  0.00    +0.000 A 
ATOM     15  C   UNL     1      -3.522  12.452  23.382  0.00  0.00    +0.000 A 
ATOM     16  C   UNL     1      -4.534  13.410  23.235  0.00  0.00    +0.000 A 
BRANCH  11  18
ATOM     17  C   UNL     1      -6.650  15.149  23.721  0.00  0.00    +0.000 C 
ATOM     18  S   UNL     1      -5.520  15.907  22.504  0.00  0.00    +0.000 S 
ENDBRANCH  11  18
ENDBRANCH   1  14
BRANCH   8  19
ATOM     19  C   UNL     1       1.814   6.944  20.401  0.00  0.00    +0.000 A 
ATOM     20  C   UNL     1       1.554   5.576  20.573  0.00  0.00    +0.000 A 
ATOM     21  C   UNL     1       1.938   4.660  19.589  0.00  0.00    +0.000 A 
ATOM     22  C   UNL     1       2.570   5.102  18.422  0.00  0.00    +0.000 A 
ATOM     23  C   UNL     1       2.825   6.469  18.244  0.00  0.00    +0.000 A 
ATOM     24  C   UNL     1       2.448   7.389  19.231  0.00  0.00    +0.000 A 
BRANCH  22  25
ATOM     25  S   UNL     1       3.089   3.919  17.171  0.00  0.00    +0.000 S 
ATOM     26  C   UNL     1       2.382   2.461  18.003  0.00  0.00    +0.000 C 
ENDBRANCH  22  25
ENDBRANCH   8  19
TORSDOF 4
ENDMDL
MODEL 2
REMARK VINA RESULT:      -6.9      0.538      1.091
REMARK  Name = 
REMARK  7 active torsions:
REMARK  status: ('A' for Active; 'I' for Inactive)
REMARK    1  A    between atoms: C_1  and  S_2
REMARK    2  A    between atoms: S_2  and  C_3
REMARK    3  A    between atoms: C_6  and  C_7
REMARK    4  A    between atoms: N_10  and  C_11
REMARK    5  A    between atoms: C_14  and  C_15
REMARK    6  A    between atoms: C_18  and  S_19
REMARK    7  A    between atoms: S_19  and  C_20
REMARK                            x       y       z     vdW  Elec       q    Type
REMARK                         _______ _______ _______ _____ _____    ______ ____
ROOT
ATOM      1  C   UNL     1      -1.117  11.811  23.100  0.00  0.00    +0.000 C 
ATOM      2  C   UNL     1      -0.719  11.018  22.080  0.00  0.00    +0.000 C 
ATOM      3  C   UNL     1      -1.317  11.108  20.692  0.00  0.00    +0.000 C 
ATOM      4  N   UNL     1      -0.282  10.802  19.691  0.00  0.00    +0.000 NA
ATOM      5  C   UNL     1      -0.764  11.090  18.332  0.00  0.00    +0.000 C 
ATOM      6  C   UNL     1       0.196   9.404  19.787  0.00  0.00    +0.000 C 
ATOM      7  C   UNL     1       0.667   9.055  21.191  0.00  0.00    +0.000 C 
ATOM      8  C   UNL     1       1.401   7.946  21.440  0.00  0.00    +0.000 C 
ATOM      9  C   UNL     1       0.292   9.958  22.312  0.00  0.00    +0.000 C 
ATOM     10  O   UNL     1       0.760   9.785  23.430  0.00  0.00    +0.000 OA
ENDROOT
BRANCH   1  14
ATOM     11  C   UNL     1      -4.304  14.641  22.850  0.00  0.00    +0.000 A 
ATOM     12  C   UNL     1      -4.551  13.323  23.249  0.00  0.00    +0.000 A 
ATOM     13  C   UNL     1      -3.505  12.407  23.325  0.00  0.00    +0.000 A 
ATOM     14  C   UNL     1      -2.201  12.798  22.989  0.00  0.00    +0.000 A 
ATOM     15  C   UNL     1      -1.950  14.113  22.578  0.00  0.00    +0.000 A 
ATOM     16  C   UNL     1      -3.001  15.036  22.510  0.00  0.00    +0.000 A 
BRANCH  11  18
ATOM     17  C   UNL     1      -5.170  16.733  24.262  0.00  0.00    +0.000 C 
ATOM     18  S   UNL     1      -5.661  15.812  22.764  0.00  0.00    +0.000 S 
ENDBRANCH  11  18
ENDBRANCH   1  14
BRANCH   8  19
ATOM     19  C   UNL     1       1.822   6.985  20.405  0.00  0.00    +0.000 A 
ATOM     20  C   UNL     1       1.607   5.613  20.605  0.00  0.00    +0.000 A 
ATOM     21  C   UNL     1       1.986   4.693  19.623  0.00  0.00    +0.000 A 
ATOM     22  C   UNL     1       2.570   5.134  18.431  0.00  0.00    +0.000 A 
ATOM     23  C   UNL     1       2.781   6.505  18.225  0.00  0.00    +0.000 A 
ATOM     24  C   UNL     1       2.408   7.429  19.210  0.00  0.00    +0.000 A 
BRANCH  22  25
ATOM     25  S   UNL     1       3.084   3.947  17.183  0.00  0.00    +0.000 S 
ATOM     26  C   UNL     1       3.818   2.763  18.356  0.00  0.00    +0.000 C 
ENDBRANCH  22  25
ENDBRANCH   8  19
TORSDOF 4
ENDMDL
MODEL 3
REMARK VINA RESULT:      -6.8      0.718      1.589
REMARK  Name = 
REMARK  7 active torsions:
REMARK  status: ('A' for Active; 'I' for Inactive)
REMARK    1  A    between atoms: C_1  and  S_2
REMARK    2  A    between atoms: S_2  and  C_3
REMARK    3  A    between atoms: C_6  and  C_7
REMARK    4  A    between atoms: N_10  and  C_11
REMARK    5  A    between atoms: C_14  and  C_15
REMARK    6  A    between atoms: C_18  and  S_19
REMARK    7  A    between atoms: S_19  and  C_20
REMARK                            x       y       z     vdW  Elec       q    Type
REMARK                         _______ _______ _______ _____ _____    ______ ____
ROOT
ATOM      1  C   UNL     1      -1.156  11.924  23.093  0.00  0.00    +0.000 C 
ATOM      2  C   UNL     1      -0.718  11.141  22.081  0.00  0.00    +0.000 C 
ATOM      3  C   UNL     1      -1.199  11.302  20.655  0.00  0.00    +0.000 C 
ATOM      4  N   UNL     1      -0.103  10.973  19.728  0.00  0.00    +0.000 NA
ATOM      5  C   UNL     1      -0.461  11.325  18.346  0.00  0.00    +0.000 C 
ATOM      6  C   UNL     1       0.297   9.550  19.814  0.00  0.00    +0.000 C 
ATOM      7  C   UNL     1       0.637   9.137  21.239  0.00  0.00    +0.000 C 
ATOM      8  C   UNL     1       1.295   7.985  21.507  0.00  0.00    +0.000 C 
ATOM      9  C   UNL     1       0.219  10.025  22.356  0.00  0.00    +0.000 C 
ATOM     10  O   UNL     1       0.589   9.796  23.501  0.00  0.00    +0.000 OA
ENDROOT
BRANCH   1  14
ATOM     11  C   UNL     1      -4.173  14.918  22.689  0.00  0.00    +0.000 A 
ATOM     12  C   UNL     1      -4.514  13.601  23.010  0.00  0.00    +0.000 A 
ATOM     13  C   UNL     1      -3.524  12.631  23.138  0.00  0.00    +0.000 A 
ATOM     14  C   UNL     1      -2.179  12.968  22.931  0.00  0.00    +0.000 A 
ATOM     15  C   UNL     1      -1.831  14.283  22.597  0.00  0.00    +0.000 A 
ATOM     16  C   UNL     1      -2.828  15.259  22.478  0.00  0.00    +0.000 A 
BRANCH  11  18
ATOM     17  C   UNL     1      -5.435  16.631  24.300  0.00  0.00    +0.000 C 
ATOM     18  S   UNL     1      -5.460  16.159  22.536  0.00  0.00    +0.000 S 
ENDBRANCH  11  18
ENDBRANCH   1  14
BRANCH   8  19
ATOM     19  C   UNL     1       1.750   7.035  20.477  0.00  0.00    +0.000 A 
ATOM     20  C   UNL     1       2.469   7.507  19.369  0.00  0.00    +0.000 A 
ATOM     21  C   UNL     1       2.922   6.613  18.394  0.00  0.00    +0.000 A 
ATOM     22  C   UNL     1       2.671   5.243  18.522  0.00  0.00    +0.000 A 
ATOM     23  C   UNL     1       1.958   4.767  19.631  0.00  0.00    +0.000 A 
ATOM     24  C   UNL     1       1.498   5.660  20.607  0.00  0.00    +0.000 A 
BRANCH  22  25
ATOM     25  S   UNL     1       3.228   4.100  17.252  0.00  0.00    +0.000 S 
ATOM     26  C   UNL     1       4.690   5.073  16.767  0.00  0.00    +0.000 C 
ENDBRANCH  22  25
ENDBRANCH   8  19
TORSDOF 4
ENDMDL
MODEL 4
REMARK VINA RESULT:      -6.7      0.658      1.259
REMARK  Name = 
REMARK  7 active torsions:
REMARK  status: ('A' for Active; 'I' for Inactive)
REMARK    1  A    between atoms: C_1  and  S_2
REMARK    2  A    between atoms: S_2  and  C_3
REMARK    3  A    between atoms: C_6  and  C_7
REMARK    4  A    between atoms: N_10  and  C_11
REMARK    5  A    between atoms: C_14  and  C_15
REMARK    6  A    between atoms: C_18  and  S_19
REMARK    7  A    between atoms: S_19  and  C_20
REMARK                            x       y       z     vdW  Elec       q    Type
REMARK                         _______ _______ _______ _____ _____    ______ ____
ROOT
ATOM      1  C   UNL     1      -1.323  11.891  23.109  0.00  0.00    +0.000 C 
ATOM      2  C   UNL     1      -0.834  11.134  22.099  0.00  0.00    +0.000 C 
ATOM      3  C   UNL     1      -1.256  11.323  20.658  0.00  0.00    +0.000 C 
ATOM      4  N   UNL     1      -0.119  11.023  19.772  0.00  0.00    +0.000 NA
ATOM      5  C   UNL     1      -0.421  11.403  18.384  0.00  0.00    +0.000 C 
ATOM      6  C   UNL     1       0.290   9.601  19.844  0.00  0.00    +0.000 C 
ATOM      7  C   UNL     1       0.573   9.160  21.272  0.00  0.00    +0.000 C 
ATOM      8  C   UNL     1       1.228   8.007  21.543  0.00  0.00    +0.000 C 
ATOM      9  C   UNL     1       0.100  10.020  22.390  0.00  0.00    +0.000 C 
ATOM     10  O   UNL     1       0.422   9.768  23.545  0.00  0.00    +0.000 OA
ENDROOT
BRANCH   1  14
ATOM     11  C   UNL     1      -4.242  14.950  22.520  0.00  0.00    +0.000 A 
ATOM     12  C   UNL     1      -2.878  15.254  22.506  0.00  0.00    +0.000 A 
ATOM     13  C   UNL     1      -1.933  14.250  22.701  0.00  0.00    +0.000 A 
ATOM     14  C   UNL     1      -2.346  12.930  22.926  0.00  0.00    +0.000 A 
ATOM     15  C   UNL     1      -3.712  12.620  22.953  0.00  0.00    +0.000 A 
ATOM     16  C   UNL     1      -4.661  13.629  22.749  0.00  0.00    +0.000 A 
BRANCH  11  18
ATOM     17  C   UNL     1      -4.207  17.547  21.909  0.00  0.00    +0.000 C 
ATOM     18  S   UNL     1      -5.447  16.254  22.260  0.00  0.00    +0.000 S 
ENDBRANCH  11  18
ENDBRANCH   1  14
BRANCH   8  19
ATOM     19  C   UNL     1       1.735   7.084  20.513  0.00  0.00    +0.000 A 
ATOM     20  C   UNL     1       2.338   7.601  19.357  0.00  0.00    +0.000 A 
ATOM     21  C   UNL     1       2.839   6.735  18.380  0.00  0.00    +0.000 A 
ATOM     22  C   UNL     1       2.753   5.350  18.554  0.00  0.00    +0.000 A 
ATOM     23  C   UNL     1       2.157   4.830  19.711  0.00  0.00    +0.000 A 
ATOM     24  C   UNL     1       1.648   5.694  20.689  0.00  0.00    +0.000 A 
BRANCH  22  25
ATOM     25  S   UNL     1       3.371   4.238  17.283  0.00  0.00    +0.000 S 
ATOM     26  C   UNL     1       2.295   2.839  17.734  0.00  0.00    +0.000 C 
ENDBRANCH  22  25
ENDBRANCH   8  19
TORSDOF 4
ENDMDL
MODEL 5
REMARK VINA RESULT:      -6.7      0.626      1.555
REMARK  Name = 
REMARK  7 active torsions:
REMARK  status: ('A' for Active; 'I' for Inactive)
REMARK    1  A    between atoms: C_1  and  S_2
REMARK    2  A    between atoms: S_2  and  C_3
REMARK    3  A    between atoms: C_6  and  C_7
REMARK    4  A    between atoms: N_10  and  C_11
REMARK    5  A    between atoms: C_14  and  C_15
REMARK    6  A    between atoms: C_18  and  S_19
REMARK    7  A    between atoms: S_19  and  C_20
REMARK                            x       y       z     vdW  Elec       q    Type
REMARK                         _______ _______ _______ _____ _____    ______ ____
ROOT
ATOM      1  C   UNL     1      -0.951  11.881  22.903  0.00  0.00    +0.000 C 
ATOM      2  C   UNL     1      -0.593  11.033  21.913  0.00  0.00    +0.000 C 
ATOM      3  C   UNL     1      -1.201  11.088  20.528  0.00  0.00    +0.000 C 
ATOM      4  N   UNL     1      -0.187  10.704  19.532  0.00  0.00    +0.000 NA
ATOM      5  C   UNL     1      -0.672  10.955  18.166  0.00  0.00    +0.000 C 
ATOM      6  C   UNL     1       0.238   9.293  19.681  0.00  0.00    +0.000 C 
ATOM      7  C   UNL     1       0.709   8.984  21.094  0.00  0.00    +0.000 C 
ATOM      8  C   UNL     1       1.404   7.859  21.382  0.00  0.00    +0.000 C 
ATOM      9  C   UNL     1       0.380   9.946  22.180  0.00  0.00    +0.000 C 
ATOM     10  O   UNL     1       0.852   9.800  23.301  0.00  0.00    +0.000 OA
ENDROOT
BRANCH   1  14
ATOM     11  C   UNL     1      -4.034  14.816  22.563  0.00  0.00    +0.000 A 
ATOM     12  C   UNL     1      -4.329  13.517  22.989  0.00  0.00    +0.000 A 
ATOM     13  C   UNL     1      -3.318  12.566  23.095  0.00  0.00    +0.000 A 
ATOM     14  C   UNL     1      -1.998  12.903  22.762  0.00  0.00    +0.000 A 
ATOM     15  C   UNL     1      -1.697  14.199  22.323  0.00  0.00    +0.000 A 
ATOM     16  C   UNL     1      -2.714  15.156  22.225  0.00  0.00    +0.000 A 
BRANCH  11  18
ATOM     17  C   UNL     1      -4.839  16.647  20.798  0.00  0.00    +0.000 C 
ATOM     18  S   UNL     1      -5.347  16.032  22.440  0.00  0.00    +0.000 S 
ENDBRANCH  11  18
ENDBRANCH   1  14
BRANCH   8  19
ATOM     19  C   UNL     1       1.779   6.842  20.384  0.00  0.00    +0.000 A 
ATOM     20  C   UNL     1       2.521   7.221  19.255  0.00  0.00    +0.000 A 
ATOM     21  C   UNL     1       2.898   6.262  18.309  0.00  0.00    +0.000 A 
ATOM     22  C   UNL     1       2.549   4.920  18.489  0.00  0.00    +0.000 A 
ATOM     23  C   UNL     1       1.814   4.537  19.619  0.00  0.00    +0.000 A 
ATOM     24  C   UNL     1       1.429   5.495  20.565  0.00  0.00    +0.000 A 
BRANCH  22  25
ATOM     25  S   UNL     1       3.010   3.694  17.257  0.00  0.00    +0.000 S 
ATOM     26  C   UNL     1       3.026   2.283  18.409  0.00  0.00    +0.000 C 
ENDBRANCH  22  25
ENDBRANCH   8  19
TORSDOF 4
ENDMDL
MODEL 6
REMARK VINA RESULT:      -6.6      2.193      9.916
REMARK  Name = 
REMARK  7 active torsions:
REMARK  status: ('A' for Active; 'I' for Inactive)
REMARK    1  A    between atoms: C_1  and  S_2
REMARK    2  A    between atoms: S_2  and  C_3
REMARK    3  A    between atoms: C_6  and  C_7
REMARK    4  A    between atoms: N_10  and  C_11
REMARK    5  A    between atoms: C_14  and  C_15
REMARK    6  A    between atoms: C_18  and  S_19
REMARK    7  A    between atoms: S_19  and  C_20
REMARK                            x       y       z     vdW  Elec       q    Type
REMARK                         _______ _______ _______ _____ _____    ______ ____
ROOT
ATOM      1  C   UNL     1       2.625   7.811  18.154  0.00  0.00    +0.000 C 
ATOM      2  C   UNL     1       1.876   8.618  18.939  0.00  0.00    +0.000 C 
ATOM      3  C   UNL     1       1.395   8.206  20.314  0.00  0.00    +0.000 C 
ATOM      4  N   UNL     1       1.350   9.387  21.192  0.00  0.00    +0.000 NA
ATOM      5  C   UNL     1       1.100   8.995  22.587  0.00  0.00    +0.000 C 
ATOM      6  C   UNL     1       0.347  10.380  20.744  0.00  0.00    +0.000 C 
ATOM      7  C   UNL     1       0.550  10.782  19.291  0.00  0.00    +0.000 C 
ATOM      8  C   UNL     1      -0.056  11.871  18.763  0.00  0.00    +0.000 C 
ATOM      9  C   UNL     1       1.428   9.939  18.436  0.00  0.00    +0.000 C 
ATOM     10  O   UNL     1       1.721  10.300  17.302  0.00  0.00    +0.000 OA
ENDROOT
BRANCH   1  14
ATOM     11  C   UNL     1       3.774   3.860  19.294  0.00  0.00    +0.000 A 
ATOM     12  C   UNL     1       4.656   4.933  19.454  0.00  0.00    +0.000 A 
ATOM     13  C   UNL     1       4.274   6.218  19.077  0.00  0.00    +0.000 A 
ATOM     14  C   UNL     1       3.005   6.440  18.523  0.00  0.00    +0.000 A 
ATOM     15  C   UNL     1       2.121   5.367  18.350  0.00  0.00    +0.000 A 
ATOM     16  C   UNL     1       2.504   4.077  18.737  0.00  0.00    +0.000 A 
BRANCH  11  18
ATOM     17  C   UNL     1       3.530   1.375  18.353  0.00  0.00    +0.000 C 
ATOM     18  S   UNL     1       4.279   2.212  19.792  0.00  0.00    +0.000 S 
ENDBRANCH  11  18
ENDBRANCH   1  14
BRANCH   8  19
ATOM     19  C   UNL     1      -0.946  12.769  19.519  0.00  0.00    +0.000 A 
ATOM     20  C   UNL     1      -0.472  14.022  19.936  0.00  0.00    +0.000 A 
ATOM     21  C   UNL     1      -1.312  14.891  20.639  0.00  0.00    +0.000 A 
ATOM     22  C   UNL     1      -2.631  14.522  20.921  0.00  0.00    +0.000 A 
ATOM     23  C   UNL     1      -3.110  13.273  20.501  0.00  0.00    +0.000 A 
ATOM     24  C   UNL     1      -2.269  12.397  19.802  0.00  0.00    +0.000 A 
BRANCH  22  25
ATOM     25  S   UNL     1      -3.700  15.628  21.852  0.00  0.00    +0.000 S 
ATOM     26  C   UNL     1      -4.888  14.342  22.357  0.00  0.00    +0.000 C 
ENDBRANCH  22  25
ENDBRANCH   8  19
TORSDOF 4
ENDMDL
MODEL 7
REMARK VINA RESULT:      -6.5      1.148      9.578
REMARK  Name = 
REMARK  7 active torsions:
REMARK  status: ('A' for Active; 'I' for Inactive)
REMARK    1  A    between atoms: C_1  and  S_2
REMARK    2  A    between atoms: S_2  and  C_3
REMARK    3  A    between atoms: C_6  and  C_7
REMARK    4  A    between atoms: N_10  and  C_11
REMARK    5  A    between atoms: C_14  and  C_15
REMARK    6  A    between atoms: C_18  and  S_19
REMARK    7  A    between atoms: S_19  and  C_20
REMARK                            x       y       z     vdW  Elec       q    Type
REMARK                         _______ _______ _______ _____ _____    ______ ____
ROOT
ATOM      1  C   UNL     1       1.108   8.166  21.436  0.00  0.00    +0.000 C 
ATOM      2  C   UNL     1       0.444   9.300  21.118  0.00  0.00    +0.000 C 
ATOM      3  C   UNL     1       0.214   9.740  19.688  0.00  0.00    +0.000 C 
ATOM      4  N   UNL     1      -1.082  10.430  19.590  0.00  0.00    +0.000 NA
ATOM      5  C   UNL     1      -1.440  10.679  18.185  0.00  0.00    +0.000 C 
ATOM      6  C   UNL     1      -1.105  11.694  20.361  0.00  0.00    +0.000 C 
ATOM      7  C   UNL     1      -0.701  11.484  21.813  0.00  0.00    +0.000 C 
ATOM      8  C   UNL     1      -0.926  12.427  22.758  0.00  0.00    +0.000 C 
ATOM      9  C   UNL     1      -0.031  10.210  22.188  0.00  0.00    +0.000 C 
ATOM     10  O   UNL     1       0.189   9.949  23.365  0.00  0.00    +0.000 OA
ENDROOT
BRANCH   1  14
ATOM     11  C   UNL     1       2.828   5.516  18.565  0.00  0.00    +0.000 A 
ATOM     12  C   UNL     1       2.267   5.021  19.746  0.00  0.00    +0.000 A 
ATOM     13  C   UNL     1       1.710   5.893  20.678  0.00  0.00    +0.000 A 
ATOM     14  C   UNL     1       1.721   7.275  20.442  0.00  0.00    +0.000 A 
ATOM     15  C   UNL     1       2.292   7.778  19.266  0.00  0.00    +0.000 A 
ATOM     16  C   UNL     1       2.844   6.899  18.326  0.00  0.00    +0.000 A 
BRANCH  11  18
ATOM     17  C   UNL     1       2.334   3.041  17.698  0.00  0.00    +0.000 C 
ATOM     18  S   UNL     1       3.534   4.378  17.371  0.00  0.00    +0.000 S 
ENDBRANCH  11  18
ENDBRANCH   1  14
BRANCH   8  19
ATOM     19  C   UNL     1      -1.578  13.722  22.493  0.00  0.00    +0.000 A 
ATOM     20  C   UNL     1      -2.974  13.825  22.585  0.00  0.00    +0.000 A 
ATOM     21  C   UNL     1      -3.604  15.052  22.353  0.00  0.00    +0.000 A 
ATOM     22  C   UNL     1      -2.846  16.185  22.041  0.00  0.00    +0.000 A 
ATOM     23  C   UNL     1      -1.450  16.087  21.954  0.00  0.00    +0.000 A 
ATOM     24  C   UNL     1      -0.817  14.858  22.180  0.00  0.00    +0.000 A 
BRANCH  22  25
ATOM     25  S   UNL     1      -3.660  17.755  21.714  0.00  0.00    +0.000 S 
ATOM     26  C   UNL     1      -4.542  17.189  20.224  0.00  0.00    +0.000 C 
ENDBRANCH  22  25
ENDBRANCH   8  19
TORSDOF 4
ENDMDL
MODEL 8
REMARK VINA RESULT:      -6.5      1.181      9.675
REMARK  Name = 
REMARK  7 active torsions:
REMARK  status: ('A' for Active; 'I' for Inactive)
REMARK    1  A    between atoms: C_1  and  S_2
REMARK    2  A    between atoms: S_2  and  C_3
REMARK    3  A    between atoms: C_6  and  C_7
REMARK    4  A    between atoms: N_10  and  C_11
REMARK    5  A    between atoms: C_14  and  C_15
REMARK    6  A    between atoms: C_18  and  S_19
REMARK    7  A    between atoms: S_19  and  C_20
REMARK                            x       y       z     vdW  Elec       q    Type
REMARK                         _______ _______ _______ _____ _____    ______ ____
ROOT
ATOM      1  C   UNL     1       1.298   7.886  20.932  0.00  0.00    +0.000 C 
ATOM      2  C   UNL     1       0.601   9.044  20.874  0.00  0.00    +0.000 C 
ATOM      3  C   UNL     1       0.604   9.940  19.655  0.00  0.00    +0.000 C 
ATOM      4  N   UNL     1      -0.711  10.590  19.521  0.00  0.00    +0.000 NA
ATOM      5  C   UNL     1      -0.820  11.294  18.235  0.00  0.00    +0.000 C 
ATOM      6  C   UNL     1      -0.997  11.512  20.644  0.00  0.00    +0.000 C 
ATOM      7  C   UNL     1      -0.855  10.828  21.996  0.00  0.00    +0.000 C 
ATOM      8  C   UNL     1      -1.341  11.386  23.130  0.00  0.00    +0.000 C 
ATOM      9  C   UNL     1      -0.149   9.521  22.061  0.00  0.00    +0.000 C 
ATOM     10  O   UNL     1      -0.130   8.878  23.104  0.00  0.00    +0.000 OA
ENDROOT
BRANCH   1  14
ATOM     11  C   UNL     1       3.804   6.403  17.810  0.00  0.00    +0.000 A 
ATOM     12  C   UNL     1       3.661   5.694  19.007  0.00  0.00    +0.000 A 
ATOM     13  C   UNL     1       2.843   6.187  20.020  0.00  0.00    +0.000 A 
ATOM     14  C   UNL     1       2.169   7.405  19.851  0.00  0.00    +0.000 A 
ATOM     15  C   UNL     1       2.317   8.125  18.659  0.00  0.00    +0.000 A 
ATOM     16  C   UNL     1       3.133   7.624  17.637  0.00  0.00    +0.000 A 
BRANCH  11  18
ATOM     17  C   UNL     1       4.372   4.010  16.775  0.00  0.00    +0.000 C 
ATOM     18  S   UNL     1       4.855   5.751  16.510  0.00  0.00    +0.000 S 
ENDBRANCH  11  18
ENDBRANCH   1  14
BRANCH   8  19
ATOM     19  C   UNL     1      -2.051  12.676  23.176  0.00  0.00    +0.000 A 
ATOM     20  C   UNL     1      -3.443  12.706  23.007  0.00  0.00    +0.000 A 
ATOM     21  C   UNL     1      -4.131  13.922  23.067  0.00  0.00    +0.000 A 
ATOM     22  C   UNL     1      -3.438  15.113  23.308  0.00  0.00    +0.000 A 
ATOM     23  C   UNL     1      -2.048  15.086  23.483  0.00  0.00    +0.000 A 
ATOM     24  C   UNL     1      -1.354  13.870  23.418  0.00  0.00    +0.000 A 
BRANCH  22  25
ATOM     25  S   UNL     1      -4.320  16.679  23.354  0.00  0.00    +0.000 S 
ATOM     26  C   UNL     1      -5.913  15.968  23.879  0.00  0.00    +0.000 C 
ENDBRANCH  22  25
ENDBRANCH   8  19
TORSDOF 4
ENDMDL
MODEL 9
REMARK VINA RESULT:      -6.5      1.336      9.649
REMARK  Name = 
REMARK  7 active torsions:
REMARK  status: ('A' for Active; 'I' for Inactive)
REMARK    1  A    between atoms: C_1  and  S_2
REMARK    2  A    between atoms: S_2  and  C_3
REMARK    3  A    between atoms: C_6  and  C_7
REMARK    4  A    between atoms: N_10  and  C_11
REMARK    5  A    between atoms: C_14  and  C_15
REMARK    6  A    between atoms: C_18  and  S_19
REMARK    7  A    between atoms: S_19  and  C_20
REMARK                            x       y       z     vdW  Elec       q    Type
REMARK                         _______ _______ _______ _____ _____    ______ ____
ROOT
ATOM      1  C   UNL     1       1.095   8.185  21.431  0.00  0.00    +0.000 C 
ATOM      2  C   UNL     1       0.435   9.316  21.094  0.00  0.00    +0.000 C 
ATOM      3  C   UNL     1       0.209   9.734  19.658  0.00  0.00    +0.000 C 
ATOM      4  N   UNL     1      -1.085  10.428  19.547  0.00  0.00    +0.000 NA
ATOM      5  C   UNL     1      -1.440  10.656  18.138  0.00  0.00    +0.000 C 
ATOM      6  C   UNL     1      -1.103  11.704  20.300  0.00  0.00    +0.000 C 
ATOM      7  C   UNL     1      -0.701  11.515  21.755  0.00  0.00    +0.000 C 
ATOM      8  C   UNL     1      -0.923  12.473  22.684  0.00  0.00    +0.000 C 
ATOM      9  C   UNL     1      -0.037  10.244  22.150  0.00  0.00    +0.000 C 
ATOM     10  O   UNL     1       0.181  10.000  23.331  0.00  0.00    +0.000 OA
ENDROOT
BRANCH   1  14
ATOM     11  C   UNL     1       2.805   5.484  18.600  0.00  0.00    +0.000 A 
ATOM     12  C   UNL     1       2.205   5.006  19.770  0.00  0.00    +0.000 A 
ATOM     13  C   UNL     1       1.652   5.894  20.688  0.00  0.00    +0.000 A 
ATOM     14  C   UNL     1       1.706   7.275  20.451  0.00  0.00    +0.000 A 
ATOM     15  C   UNL     1       2.315   7.761  19.287  0.00  0.00    +0.000 A 
ATOM     16  C   UNL     1       2.864   6.866  18.360  0.00  0.00    +0.000 A 
BRANCH  11  18
ATOM     17  C   UNL     1       5.073   4.103  18.333  0.00  0.00    +0.000 C 
ATOM     18  S   UNL     1       3.506   4.326  17.423  0.00  0.00    +0.000 S 
ENDBRANCH  11  18
ENDBRANCH   1  14
BRANCH   8  19
ATOM     19  C   UNL     1      -1.570  13.766  22.398  0.00  0.00    +0.000 A 
ATOM     20  C   UNL     1      -0.784  14.863  22.013  0.00  0.00    +0.000 A 
ATOM     21  C   UNL     1      -1.388  16.090  21.722  0.00  0.00    +0.000 A 
ATOM     22  C   UNL     1      -2.777  16.229  21.801  0.00  0.00    +0.000 A 
ATOM     23  C   UNL     1      -3.566  15.134  22.179  0.00  0.00    +0.000 A 
ATOM     24  C   UNL     1      -2.964  13.904  22.477  0.00  0.00    +0.000 A 
BRANCH  22  25
ATOM     25  S   UNL     1      -3.548  17.816  21.455  0.00  0.00    +0.000 S 
ATOM     26  C   UNL     1      -3.257  17.765  19.657  0.00  0.00    +0.000 C 
ENDBRANCH  22  25
ENDBRANCH   8  19
TORSDOF 4
ENDMDL
