MODEL 1
REMARK VINA RESULT:      -8.2      0.000      0.000
REMARK  Name = 
REMARK  2 active torsions:
REMARK  status: ('A' for Active; 'I' for Inactive)
REMARK    1  A    between atoms: C_2  and  C_3
REMARK    2  A    between atoms: C_11  and  C_12
REMARK                            x       y       z     vdW  Elec       q    Type
REMARK                         _______ _______ _______ _____ _____    ______ ____
ROOT
ATOM      1  C   UNL     1       2.356   6.733  18.856  0.00  0.00    +0.000 A 
ATOM      2  C   UNL     1       2.054   6.304  20.130  0.00  0.00    +0.000 A 
ATOM      3  C   UNL     1       1.524   7.249  20.960  0.00  0.00    +0.000 A 
ATOM      4  N   UNL     1       1.294   8.509  20.581  0.00  0.00    +0.000 NA
ATOM      5  C   UNL     1       1.571   8.855  19.315  0.00  0.00    +0.000 A 
ATOM      6  N   UNL     1       1.239  10.136  18.871  0.00  0.00    +0.000 N 
ATOM      7  C   UNL     1       0.258  10.971  19.403  0.00  0.00    +0.000 A 
ATOM      8  C   UNL     1      -0.151  10.937  20.747  0.00  0.00    +0.000 A 
ATOM      9  N   UNL     1      -1.186  11.653  21.252  0.00  0.00    +0.000 NA
ATOM     10  C   UNL     1      -1.801  12.454  20.365  0.00  0.00    +0.000 A 
ATOM     11  C   UNL     1      -1.374  12.557  19.054  0.00  0.00    +0.000 A 
ATOM     12  N   UNL     1      -0.344  11.831  18.549  0.00  0.00    +0.000 NA
ATOM     13  N   UNL     1       2.115   8.008  18.436  0.00  0.00    +0.000 NA
ATOM     14  H   UNL     1       1.339  10.234  17.875  0.00  0.00    +0.000 HD
ENDROOT
BRANCH   1  21
ATOM     15  O   UNL     1       5.434   6.692  14.930  0.00  0.00    +0.000 OA
ATOM     16  C   UNL     1       5.531   5.540  15.374  0.00  0.00    +0.000 C 
ATOM     17  N   UNL     1       5.088   5.245  16.666  0.00  0.00    +0.000 N 
ATOM     18  C   UNL     1       5.200   3.947  17.320  0.00  0.00    +0.000 C 
ATOM     19  C   UNL     1       3.809   3.383  17.582  0.00  0.00    +0.000 C 
ATOM     20  C   UNL     1       2.998   4.346  18.449  0.00  0.00    +0.000 C 
ATOM     21  C   UNL     1       2.985   5.775  17.869  0.00  0.00    +0.000 C 
ATOM     22  C   UNL     1       4.389   6.262  17.456  0.00  0.00    +0.000 C 
BRANCH  16  23
ATOM     23  C   UNL     1       6.065   4.369  14.500  0.00  0.00    +0.000 C 
ATOM     24  C   UNL     1       5.152   3.899  13.325  0.00  0.00    +0.000 C 
ATOM     25  C   UNL     1       6.433   3.576  12.539  0.00  0.00    +0.000 C 
ATOM     26  C   UNL     1       7.141   4.637  13.407  0.00  0.00    +0.000 C 
ENDBRANCH  16  23
ENDBRANCH   1  21
TORSDOF 2
ENDMDL
MODEL 2
REMARK VINA RESULT:      -8.0      3.720      9.868
REMARK  Name = 
REMARK  2 active torsions:
REMARK  status: ('A' for Active; 'I' for Inactive)
REMARK    1  A    between atoms: C_2  and  C_3
REMARK    2  A    between atoms: C_11  and  C_12
REMARK                            x       y       z     vdW  Elec       q    Type
REMARK                         _______ _______ _______ _____ _____    ______ ____
ROOT
ATOM      1  C   UNL     1       1.096   9.186  19.238  0.00  0.00    +0.000 A 
ATOM      2  C   UNL     1       1.666   9.313  17.990  0.00  0.00    +0.000 A 
ATOM      3  C   UNL     1       2.588   8.360  17.664  0.00  0.00    +0.000 A 
ATOM      4  N   UNL     1       2.921   7.355  18.478  0.00  0.00    +0.000 NA
ATOM      5  C   UNL     1       2.300   7.263  19.664  0.00  0.00    +0.000 A 
ATOM      6  N   UNL     1       2.557   6.162  20.483  0.00  0.00    +0.000 N 
ATOM      7  C   UNL     1       3.020   4.913  20.074  0.00  0.00    +0.000 A 
ATOM      8  C   UNL     1       3.820   4.711  18.936  0.00  0.00    +0.000 A 
ATOM      9  N   UNL     1       4.175   3.494  18.454  0.00  0.00    +0.000 NA
ATOM     10  C   UNL     1       3.729   2.452  19.177  0.00  0.00    +0.000 A 
ATOM     11  C   UNL     1       3.000   2.626  20.340  0.00  0.00    +0.000 A 
ATOM     12  N   UNL     1       2.637   3.846  20.812  0.00  0.00    +0.000 NA
ATOM     13  N   UNL     1       1.404   8.161  20.083  0.00  0.00    +0.000 NA
ATOM     14  H   UNL     1       1.925   6.110  21.264  0.00  0.00    +0.000 HD
ENDROOT
BRANCH   1  21
ATOM     15  O   UNL     1      -0.937  10.947  23.439  0.00  0.00    +0.000 OA
ATOM     16  C   UNL     1      -1.077  11.887  22.645  0.00  0.00    +0.000 C 
ATOM     17  N   UNL     1      -0.338  11.922  21.459  0.00  0.00    +0.000 N 
ATOM     18  C   UNL     1      -0.370  12.997  20.475  0.00  0.00    +0.000 C 
ATOM     19  C   UNL     1      -0.937  12.474  19.162  0.00  0.00    +0.000 C 
ATOM     20  C   UNL     1      -0.096  11.308  18.645  0.00  0.00    +0.000 C 
ATOM     21  C   UNL     1       0.092  10.212  19.714  0.00  0.00    +0.000 C 
ATOM     22  C   UNL     1       0.508  10.786  21.084  0.00  0.00    +0.000 C 
BRANCH  16  23
ATOM     23  C   UNL     1      -2.123  13.013  22.885  0.00  0.00    +0.000 C 
ATOM     24  C   UNL     1      -3.341  12.655  23.793  0.00  0.00    +0.000 C 
ATOM     25  C   UNL     1      -3.331  14.114  24.277  0.00  0.00    +0.000 C 
ATOM     26  C   UNL     1      -1.832  14.144  23.916  0.00  0.00    +0.000 C 
ENDBRANCH  16  23
ENDBRANCH   1  21
TORSDOF 2
ENDMDL
MODEL 3
REMARK VINA RESULT:      -7.6      3.191      9.547
REMARK  Name = 
REMARK  2 active torsions:
REMARK  status: ('A' for Active; 'I' for Inactive)
REMARK    1  A    between atoms: C_2  and  C_3
REMARK    2  A    between atoms: C_11  and  C_12
REMARK                            x       y       z     vdW  Elec       q    Type
REMARK                         _______ _______ _______ _____ _____    ______ ____
ROOT
ATOM      1  C   UNL     1       1.481   8.031  19.907  0.00  0.00    +0.000 A 
ATOM      2  C   UNL     1       1.420   7.000  20.819  0.00  0.00    +0.000 A 
ATOM      3  C   UNL     1       2.204   5.918  20.538  0.00  0.00    +0.000 A 
ATOM      4  N   UNL     1       2.995   5.847  19.463  0.00  0.00    +0.000 NA
ATOM      5  C   UNL     1       3.041   6.902  18.635  0.00  0.00    +0.000 A 
ATOM      6  N   UNL     1       3.940   6.889  17.567  0.00  0.00    +0.000 N 
ATOM      7  C   UNL     1       5.115   6.146  17.480  0.00  0.00    +0.000 A 
ATOM      8  C   UNL     1       5.311   4.916  18.131  0.00  0.00    +0.000 A 
ATOM      9  N   UNL     1       6.487   4.241  18.159  0.00  0.00    +0.000 NA
ATOM     10  C   UNL     1       7.485   4.823  17.470  0.00  0.00    +0.000 A 
ATOM     11  C   UNL     1       7.298   5.996  16.763  0.00  0.00    +0.000 A 
ATOM     12  N   UNL     1       6.123   6.675  16.747  0.00  0.00    +0.000 NA
ATOM     13  N   UNL     1       2.292   7.994  18.812  0.00  0.00    +0.000 NA
ATOM     14  H   UNL     1       4.008   7.784  17.113  0.00  0.00    +0.000 HD
ENDROOT
BRANCH   1  21
ATOM     15  O   UNL     1      -0.955  10.515  23.483  0.00  0.00    +0.000 OA
ATOM     16  C   UNL     1      -0.752  11.386  22.626  0.00  0.00    +0.000 C 
ATOM     17  N   UNL     1       0.197  11.176  21.621  0.00  0.00    +0.000 N 
ATOM     18  C   UNL     1       0.566  12.142  20.594  0.00  0.00    +0.000 C 
ATOM     19  C   UNL     1       0.176  11.607  19.222  0.00  0.00    +0.000 C 
ATOM     20  C   UNL     1       0.861  10.266  18.959  0.00  0.00    +0.000 C 
ATOM     21  C   UNL     1       0.621   9.260  20.104  0.00  0.00    +0.000 C 
ATOM     22  C   UNL     1       0.864   9.877  21.497  0.00  0.00    +0.000 C 
BRANCH  16  23
ATOM     23  C   UNL     1      -1.587  12.697  22.578  0.00  0.00    +0.000 C 
ATOM     24  C   UNL     1      -2.963  12.679  23.314  0.00  0.00    +0.000 C 
ATOM     25  C   UNL     1      -2.740  14.165  23.638  0.00  0.00    +0.000 C 
ATOM     26  C   UNL     1      -1.228  13.887  23.517  0.00  0.00    +0.000 C 
ENDBRANCH  16  23
ENDBRANCH   1  21
TORSDOF 2
ENDMDL
MODEL 4
REMARK VINA RESULT:      -7.5      3.784      9.232
REMARK  Name = 
REMARK  2 active torsions:
REMARK  status: ('A' for Active; 'I' for Inactive)
REMARK    1  A    between atoms: C_2  and  C_3
REMARK    2  A    between atoms: C_11  and  C_12
REMARK                            x       y       z     vdW  Elec       q    Type
REMARK                         _______ _______ _______ _____ _____    ______ ____
ROOT
ATOM      1  C   UNL     1       1.425   9.296  19.078  0.00  0.00    +0.000 A 
ATOM      2  C   UNL     1       2.058   9.151  17.863  0.00  0.00    +0.000 A 
ATOM      3  C   UNL     1       2.780   8.003  17.707  0.00  0.00    +0.000 A 
ATOM      4  N   UNL     1       2.870   7.062  18.652  0.00  0.00    +0.000 NA
ATOM      5  C   UNL     1       2.197   7.242  19.797  0.00  0.00    +0.000 A 
ATOM      6  N   UNL     1       2.192   6.224  20.752  0.00  0.00    +0.000 N 
ATOM      7  C   UNL     1       2.409   4.867  20.519  0.00  0.00    +0.000 A 
ATOM      8  C   UNL     1       3.195   4.371  19.466  0.00  0.00    +0.000 A 
ATOM      9  N   UNL     1       3.316   3.058  19.150  0.00  0.00    +0.000 NA
ATOM     10  C   UNL     1       2.640   2.222  19.958  0.00  0.00    +0.000 A 
ATOM     11  C   UNL     1       1.915   2.680  21.043  0.00  0.00    +0.000 A 
ATOM     12  N   UNL     1       1.788   3.996  21.349  0.00  0.00    +0.000 NA
ATOM     13  N   UNL     1       1.485   8.344  20.053  0.00  0.00    +0.000 NA
ATOM     14  H   UNL     1       1.532   6.395  21.492  0.00  0.00    +0.000 HD
ENDROOT
BRANCH   1  21
ATOM     15  O   UNL     1       2.037  14.215  19.634  0.00  0.00    +0.000 OA
ATOM     16  C   UNL     1       0.845  14.116  19.311  0.00  0.00    +0.000 C 
ATOM     17  N   UNL     1       0.369  12.935  18.736  0.00  0.00    +0.000 N 
ATOM     18  C   UNL     1      -0.992  12.716  18.262  0.00  0.00    +0.000 C 
ATOM     19  C   UNL     1      -1.658  11.630  19.097  0.00  0.00    +0.000 C 
ATOM     20  C   UNL     1      -0.855  10.332  19.021  0.00  0.00    +0.000 C 
ATOM     21  C   UNL     1       0.632  10.550  19.368  0.00  0.00    +0.000 C 
ATOM     22  C   UNL     1       1.241  11.762  18.632  0.00  0.00    +0.000 C 
BRANCH  16  23
ATOM     23  C   UNL     1      -0.178  15.251  19.599  0.00  0.00    +0.000 C 
ATOM     24  C   UNL     1       0.277  16.371  20.586  0.00  0.00    +0.000 C 
ATOM     25  C   UNL     1      -0.570  17.356  19.764  0.00  0.00    +0.000 C 
ATOM     26  C   UNL     1      -0.381  16.401  18.568  0.00  0.00    +0.000 C 
ENDBRANCH  16  23
ENDBRANCH   1  21
TORSDOF 2
ENDMDL
MODEL 5
REMARK VINA RESULT:      -7.5      1.299      1.438
REMARK  Name = 
REMARK  2 active torsions:
REMARK  status: ('A' for Active; 'I' for Inactive)
REMARK    1  A    between atoms: C_2  and  C_3
REMARK    2  A    between atoms: C_11  and  C_12
REMARK                            x       y       z     vdW  Elec       q    Type
REMARK                         _______ _______ _______ _____ _____    ______ ____
ROOT
ATOM      1  C   UNL     1       1.860   7.782  18.676  0.00  0.00    +0.000 A 
ATOM      2  C   UNL     1       2.026   7.882  20.040  0.00  0.00    +0.000 A 
ATOM      3  C   UNL     1       1.390   8.933  20.635  0.00  0.00    +0.000 A 
ATOM      4  N   UNL     1       0.640   9.811  19.963  0.00  0.00    +0.000 NA
ATOM      5  C   UNL     1       0.483   9.635  18.642  0.00  0.00    +0.000 A 
ATOM      6  N   UNL     1      -0.381  10.478  17.941  0.00  0.00    +0.000 N 
ATOM      7  C   UNL     1      -1.452  11.195  18.470  0.00  0.00    +0.000 A 
ATOM      8  C   UNL     1      -1.509  11.644  19.800  0.00  0.00    +0.000 A 
ATOM      9  N   UNL     1      -2.592  12.233  20.365  0.00  0.00    +0.000 NA
ATOM     10  C   UNL     1      -3.638  12.400  19.536  0.00  0.00    +0.000 A 
ATOM     11  C   UNL     1      -3.581  12.030  18.204  0.00  0.00    +0.000 A 
ATOM     12  N   UNL     1      -2.499  11.430  17.646  0.00  0.00    +0.000 NA
ATOM     13  N   UNL     1       1.086   8.652  17.967  0.00  0.00    +0.000 NA
ATOM     14  H   UNL     1      -0.547  10.159  17.001  0.00  0.00    +0.000 HD
ENDROOT
BRANCH   1  21
ATOM     15  O   UNL     1       5.200   7.105  15.033  0.00  0.00    +0.000 OA
ATOM     16  C   UNL     1       5.267   6.048  15.674  0.00  0.00    +0.000 C 
ATOM     17  N   UNL     1       4.737   5.973  16.965  0.00  0.00    +0.000 N 
ATOM     18  C   UNL     1       4.804   4.808  17.839  0.00  0.00    +0.000 C 
ATOM     19  C   UNL     1       3.399   4.281  18.100  0.00  0.00    +0.000 C 
ATOM     20  C   UNL     1       2.530   5.368  18.731  0.00  0.00    +0.000 C 
ATOM     21  C   UNL     1       2.555   6.676  17.914  0.00  0.00    +0.000 C 
ATOM     22  C   UNL     1       3.985   7.102  17.519  0.00  0.00    +0.000 C 
BRANCH  16  23
ATOM     23  C   UNL     1       5.860   4.751  15.054  0.00  0.00    +0.000 C 
ATOM     24  C   UNL     1       5.161   4.206  13.769  0.00  0.00    +0.000 C 
ATOM     25  C   UNL     1       6.540   3.712  13.302  0.00  0.00    +0.000 C 
ATOM     26  C   UNL     1       7.151   4.819  14.185  0.00  0.00    +0.000 C 
ENDBRANCH  16  23
ENDBRANCH   1  21
TORSDOF 2
ENDMDL
MODEL 6
REMARK VINA RESULT:      -7.4      3.565      9.832
REMARK  Name = 
REMARK  2 active torsions:
REMARK  status: ('A' for Active; 'I' for Inactive)
REMARK    1  A    between atoms: C_2  and  C_3
REMARK    2  A    between atoms: C_11  and  C_12
REMARK                            x       y       z     vdW  Elec       q    Type
REMARK                         _______ _______ _______ _____ _____    ______ ____
ROOT
ATOM      1  C   UNL     1       1.334   9.059  20.204  0.00  0.00    +0.000 A 
ATOM      2  C   UNL     1       1.321   9.424  18.875  0.00  0.00    +0.000 A 
ATOM      3  C   UNL     1       1.845   8.510  18.008  0.00  0.00    +0.000 A 
ATOM      4  N   UNL     1       2.332   7.328  18.396  0.00  0.00    +0.000 NA
ATOM      5  C   UNL     1       2.279   7.013  19.699  0.00  0.00    +0.000 A 
ATOM      6  N   UNL     1       2.684   5.742  20.110  0.00  0.00    +0.000 N 
ATOM      7  C   UNL     1       2.718   4.589  19.329  0.00  0.00    +0.000 A 
ATOM      8  C   UNL     1       2.904   4.595  17.936  0.00  0.00    +0.000 A 
ATOM      9  N   UNL     1       2.816   3.496  17.145  0.00  0.00    +0.000 NA
ATOM     10  C   UNL     1       2.565   2.350  17.802  0.00  0.00    +0.000 A 
ATOM     11  C   UNL     1       2.449   2.307  19.180  0.00  0.00    +0.000 A 
ATOM     12  N   UNL     1       2.526   3.411  19.966  0.00  0.00    +0.000 NA
ATOM     13  N   UNL     1       1.808   7.852  20.627  0.00  0.00    +0.000 NA
ATOM     14  H   UNL     1       2.452   5.558  21.071  0.00  0.00    +0.000 HD
ENDROOT
BRANCH   1  21
ATOM     15  O   UNL     1       0.575  13.932  20.953  0.00  0.00    +0.000 OA
ATOM     16  C   UNL     1      -0.226  13.400  21.734  0.00  0.00    +0.000 C 
ATOM     17  N   UNL     1      -0.564  12.052  21.586  0.00  0.00    +0.000 N 
ATOM     18  C   UNL     1      -1.533  11.330  22.401  0.00  0.00    +0.000 C 
ATOM     19  C   UNL     1      -0.825  10.235  23.188  0.00  0.00    +0.000 C 
ATOM     20  C   UNL     1      -0.110   9.274  22.240  0.00  0.00    +0.000 C 
ATOM     21  C   UNL     1       0.813  10.016  21.252  0.00  0.00    +0.000 C 
ATOM     22  C   UNL     1       0.122  11.226  20.589  0.00  0.00    +0.000 C 
BRANCH  16  23
ATOM     23  C   UNL     1      -0.821  14.172  22.947  0.00  0.00    +0.000 C 
ATOM     24  C   UNL     1      -0.248  15.598  23.219  0.00  0.00    +0.000 C 
ATOM     25  C   UNL     1      -1.645  15.996  23.721  0.00  0.00    +0.000 C 
ATOM     26  C   UNL     1      -2.205  14.875  22.823  0.00  0.00    +0.000 C 
ENDBRANCH  16  23
ENDBRANCH   1  21
TORSDOF 2
ENDMDL
MODEL 7
REMARK VINA RESULT:      -7.3      3.882      9.550
REMARK  Name = 
REMARK  2 active torsions:
REMARK  status: ('A' for Active; 'I' for Inactive)
REMARK    1  A    between atoms: C_2  and  C_3
REMARK    2  A    between atoms: C_11  and  C_12
REMARK                            x       y       z     vdW  Elec       q    Type
REMARK                         _______ _______ _______ _____ _____    ______ ____
ROOT
ATOM      1  C   UNL     1       1.211   9.371  19.108  0.00  0.00    +0.000 A 
ATOM      2  C   UNL     1       1.800   9.269  17.866  0.00  0.00    +0.000 A 
ATOM      3  C   UNL     1       2.594   8.174  17.679  0.00  0.00    +0.000 A 
ATOM      4  N   UNL     1       2.791   7.244  18.617  0.00  0.00    +0.000 NA
ATOM      5  C   UNL     1       2.156   7.378  19.791  0.00  0.00    +0.000 A 
ATOM      6  N   UNL     1       2.265   6.364  20.744  0.00  0.00    +0.000 N 
ATOM      7  C   UNL     1       2.566   5.026  20.501  0.00  0.00    +0.000 A 
ATOM      8  C   UNL     1       3.341   4.585  19.414  0.00  0.00    +0.000 A 
ATOM      9  N   UNL     1       3.540   3.282  19.093  0.00  0.00    +0.000 NA
ATOM     10  C   UNL     1       2.960   2.402  19.927  0.00  0.00    +0.000 A 
ATOM     11  C   UNL     1       2.252   2.810  21.043  0.00  0.00    +0.000 A 
ATOM     12  N   UNL     1       2.045   4.115  21.355  0.00  0.00    +0.000 NA
ATOM     13  N   UNL     1       1.379   8.427  20.078  0.00  0.00    +0.000 NA
ATOM     14  H   UNL     1       1.626   6.489  21.512  0.00  0.00    +0.000 HD
ENDROOT
BRANCH   1  21
ATOM     15  O   UNL     1       1.327  13.650  21.668  0.00  0.00    +0.000 OA
ATOM     16  C   UNL     1       0.458  13.860  20.812  0.00  0.00    +0.000 C 
ATOM     17  N   UNL     1       0.363  13.034  19.689  0.00  0.00    +0.000 N 
ATOM     18  C   UNL     1      -0.576  13.211  18.588  0.00  0.00    +0.000 C 
ATOM     19  C   UNL     1      -1.538  12.031  18.539  0.00  0.00    +0.000 C 
ATOM     20  C   UNL     1      -0.768  10.721  18.374  0.00  0.00    +0.000 C 
ATOM     21  C   UNL     1       0.344  10.566  19.432  0.00  0.00    +0.000 C 
ATOM     22  C   UNL     1       1.204  11.838  19.580  0.00  0.00    +0.000 C 
BRANCH  16  23
ATOM     23  C   UNL     1      -0.605  14.983  20.983  0.00  0.00    +0.000 C 
ATOM     24  C   UNL     1      -1.185  15.187  22.417  0.00  0.00    +0.000 C 
ATOM     25  C   UNL     1      -1.298  16.685  22.093  0.00  0.00    +0.000 C 
ATOM     26  C   UNL     1      -0.160  16.473  21.074  0.00  0.00    +0.000 C 
ENDBRANCH  16  23
ENDBRANCH   1  21
TORSDOF 2
ENDMDL
MODEL 8
REMARK VINA RESULT:      -7.1      2.575      4.701
REMARK  Name = 
REMARK  2 active torsions:
REMARK  status: ('A' for Active; 'I' for Inactive)
REMARK    1  A    between atoms: C_2  and  C_3
REMARK    2  A    between atoms: C_11  and  C_12
REMARK                            x       y       z     vdW  Elec       q    Type
REMARK                         _______ _______ _______ _____ _____    ______ ____
ROOT
ATOM      1  C   UNL     1       0.711   9.753  21.314  0.00  0.00    +0.000 A 
ATOM      2  C   UNL     1       0.711   9.095  22.524  0.00  0.00    +0.000 A 
ATOM      3  C   UNL     1      -0.124   9.610  23.474  0.00  0.00    +0.000 A 
ATOM      4  N   UNL     1      -0.906  10.672  23.263  0.00  0.00    +0.000 NA
ATOM      5  C   UNL     1      -0.891  11.244  22.050  0.00  0.00    +0.000 A 
ATOM      6  N   UNL     1      -1.778  12.287  21.778  0.00  0.00    +0.000 N 
ATOM      7  C   UNL     1      -2.988  12.537  22.422  0.00  0.00    +0.000 A 
ATOM      8  C   UNL     1      -3.252  12.176  23.755  0.00  0.00    +0.000 A 
ATOM      9  N   UNL     1      -4.461  12.299  24.358  0.00  0.00    +0.000 NA
ATOM     10  C   UNL     1      -5.421  12.839  23.587  0.00  0.00    +0.000 A 
ATOM     11  C   UNL     1      -5.168  13.267  22.296  0.00  0.00    +0.000 A 
ATOM     12  N   UNL     1      -3.960  13.131  21.692  0.00  0.00    +0.000 NA
ATOM     13  N   UNL     1      -0.090  10.828  21.064  0.00  0.00    +0.000 NA
ATOM     14  H   UNL     1      -1.796  12.530  20.802  0.00  0.00    +0.000 HD
ENDROOT
BRANCH   1  21
ATOM     15  O   UNL     1       3.510   5.840  19.998  0.00  0.00    +0.000 OA
ATOM     16  C   UNL     1       3.274   6.391  18.915  0.00  0.00    +0.000 C 
ATOM     17  N   UNL     1       2.242   7.329  18.813  0.00  0.00    +0.000 N 
ATOM     18  C   UNL     1       1.830   8.001  17.587  0.00  0.00    +0.000 C 
ATOM     19  C   UNL     1       2.091   9.497  17.710  0.00  0.00    +0.000 C 
ATOM     20  C   UNL     1       1.338  10.072  18.910  0.00  0.00    +0.000 C 
ATOM     21  C   UNL     1       1.629   9.288  20.205  0.00  0.00    +0.000 C 
ATOM     22  C   UNL     1       1.519   7.762  20.012  0.00  0.00    +0.000 C 
BRANCH  16  23
ATOM     23  C   UNL     1       4.151   6.134  17.656  0.00  0.00    +0.000 C 
ATOM     24  C   UNL     1       5.686   5.977  17.892  0.00  0.00    +0.000 C 
ATOM     25  C   UNL     1       5.703   4.985  16.719  0.00  0.00    +0.000 C 
ATOM     26  C   UNL     1       4.217   4.710  17.028  0.00  0.00    +0.000 C 
ENDBRANCH  16  23
ENDBRANCH   1  21
TORSDOF 2
ENDMDL
MODEL 9
REMARK VINA RESULT:      -7.1      3.881      9.643
REMARK  Name = 
REMARK  2 active torsions:
REMARK  status: ('A' for Active; 'I' for Inactive)
REMARK    1  A    between atoms: C_2  and  C_3
REMARK    2  A    between atoms: C_11  and  C_12
REMARK                            x       y       z     vdW  Elec       q    Type
REMARK                         _______ _______ _______ _____ _____    ______ ____
ROOT
ATOM      1  C   UNL     1       1.216   9.498  19.897  0.00  0.00    +0.000 A 
ATOM      2  C   UNL     1       1.486   9.519  18.546  0.00  0.00    +0.000 A 
ATOM      3  C   UNL     1       2.039   8.379  18.038  0.00  0.00    +0.000 A 
ATOM      4  N   UNL     1       2.299   7.298  18.779  0.00  0.00    +0.000 NA
ATOM      5  C   UNL     1       1.976   7.325  20.080  0.00  0.00    +0.000 A 
ATOM      6  N   UNL     1       2.141   6.170  20.847  0.00  0.00    +0.000 N 
ATOM      7  C   UNL     1       2.172   4.859  20.377  0.00  0.00    +0.000 A 
ATOM      8  C   UNL     1       2.602   4.502  19.088  0.00  0.00    +0.000 A 
ATOM      9  N   UNL     1       2.522   3.250  18.571  0.00  0.00    +0.000 NA
ATOM     10  C   UNL     1       2.018   2.328  19.410  0.00  0.00    +0.000 A 
ATOM     11  C   UNL     1       1.653   2.640  20.707  0.00  0.00    +0.000 A 
ATOM     12  N   UNL     1       1.725   3.896  21.216  0.00  0.00    +0.000 NA
ATOM     13  N   UNL     1       1.454   8.403  20.674  0.00  0.00    +0.000 NA
ATOM     14  H   UNL     1       1.721   6.251  21.757  0.00  0.00    +0.000 HD
ENDROOT
BRANCH   1  21
ATOM     15  O   UNL     1      -0.324  14.122  18.834  0.00  0.00    +0.000 OA
ATOM     16  C   UNL     1      -0.936  13.856  19.878  0.00  0.00    +0.000 C 
ATOM     17  N   UNL     1      -1.040  12.532  20.314  0.00  0.00    +0.000 N 
ATOM     18  C   UNL     1      -1.779  12.087  21.489  0.00  0.00    +0.000 C 
ATOM     19  C   UNL     1      -0.813  11.500  22.510  0.00  0.00    +0.000 C 
ATOM     20  C   UNL     1      -0.034  10.335  21.899  0.00  0.00    +0.000 C 
ATOM     21  C   UNL     1       0.639  10.724  20.568  0.00  0.00    +0.000 C 
ATOM     22  C   UNL     1      -0.319  11.466  19.613  0.00  0.00    +0.000 C 
BRANCH  16  23
ATOM     23  C   UNL     1      -1.536  14.971  20.781  0.00  0.00    +0.000 C 
ATOM     24  C   UNL     1      -0.562  15.655  21.791  0.00  0.00    +0.000 C 
ATOM     25  C   UNL     1      -1.364  16.951  21.593  0.00  0.00    +0.000 C 
ATOM     26  C   UNL     1      -1.766  16.401  20.210  0.00  0.00    +0.000 C 
ENDBRANCH  16  23
ENDBRANCH   1  21
TORSDOF 2
ENDMDL
