MODEL 1
REMARK VINA RESULT:      -8.5      0.000      0.000
REMARK  Name = 
REMARK  4 active torsions:
REMARK  status: ('A' for Active; 'I' for Inactive)
REMARK    1  A    between atoms: C_1  and  C_2
REMARK    2  A    between atoms: C_3  and  C_4
REMARK    3  A    between atoms: C_7  and  C_8
REMARK    4  A    between atoms: C_8  and  C_9
REMARK                            x       y       z     vdW  Elec       q    Type
REMARK                         _______ _______ _______ _____ _____    ______ ____
ROOT
ATOM      1  C   UNL     1       1.392   9.264  22.582  0.00  0.00    +0.000 C 
ATOM      2  C   UNL     1       0.459   9.928  21.617  0.00  0.00    +0.000 A 
ATOM      3  C   UNL     1       0.403   9.760  20.278  0.00  0.00    +0.000 A 
ATOM      4  N   UNL     1      -0.494  10.414  19.463  0.00  0.00    +0.000 N 
ATOM      5  C   UNL     1      -1.468  11.275  19.973  0.00  0.00    +0.000 A 
ATOM      6  C   UNL     1      -2.380  11.917  19.132  0.00  0.00    +0.000 A 
ATOM      7  C   UNL     1      -3.322  12.807  19.657  0.00  0.00    +0.000 A 
ATOM      8  C   UNL     1      -3.354  13.072  21.027  0.00  0.00    +0.000 A 
ATOM      9  C   UNL     1      -2.441  12.447  21.875  0.00  0.00    +0.000 A 
ATOM     10  C   UNL     1      -1.502  11.556  21.346  0.00  0.00    +0.000 A 
ATOM     11  C   UNL     1      -0.522  10.881  22.229  0.00  0.00    +0.000 A 
ATOM     12  O   UNL     1      -0.529  11.095  23.440  0.00  0.00    +0.000 OA
ATOM     13  H   UNL     1      -0.548  10.122  18.495  0.00  0.00    +0.000 HD
ENDROOT
BRANCH   3  14
ATOM     14  C   UNL     1       1.311   8.836  19.576  0.00  0.00    +0.000 A 
ATOM     15  C   UNL     1       1.694   7.632  20.177  0.00  0.00    +0.000 A 
ATOM     16  C   UNL     1       2.522   6.736  19.495  0.00  0.00    +0.000 A 
ATOM     17  C   UNL     1       2.979   7.027  18.202  0.00  0.00    +0.000 A 
ATOM     18  C   UNL     1       2.588   8.233  17.602  0.00  0.00    +0.000 A 
ATOM     19  C   UNL     1       1.766   9.134  18.286  0.00  0.00    +0.000 A 
BRANCH  17  20
ATOM     20  C   UNL     1       3.898   6.066  17.484  0.00  0.00    +0.000 C 
BRANCH  20  21
ATOM     21  C   UNL     1       5.358   6.156  17.861  0.00  0.00    +0.000 A 
ATOM     22  C   UNL     1       6.213   7.049  17.199  0.00  0.00    +0.000 A 
ATOM     23  C   UNL     1       7.544   7.192  17.602  0.00  0.00    +0.000 A 
ATOM     24  C   UNL     1       8.036   6.439  18.666  0.00  0.00    +0.000 A 
ATOM     25  C   UNL     1       7.204   5.530  19.316  0.00  0.00    +0.000 A 
ATOM     26  C   UNL     1       5.876   5.382  18.911  0.00  0.00    +0.000 A 
ENDBRANCH  20  21
ENDBRANCH  17  20
ENDBRANCH   3  14
TORSDOF 3
ENDMDL
MODEL 2
REMARK VINA RESULT:      -8.5      2.200      3.444
REMARK  Name = 
REMARK  4 active torsions:
REMARK  status: ('A' for Active; 'I' for Inactive)
REMARK    1  A    between atoms: C_1  and  C_2
REMARK    2  A    between atoms: C_3  and  C_4
REMARK    3  A    between atoms: C_7  and  C_8
REMARK    4  A    between atoms: C_8  and  C_9
REMARK                            x       y       z     vdW  Elec       q    Type
REMARK                         _______ _______ _______ _____ _____    ______ ____
ROOT
ATOM      1  C   UNL     1      -1.536   9.963  17.440  0.00  0.00    +0.000 C 
ATOM      2  C   UNL     1      -1.247  10.615  18.758  0.00  0.00    +0.000 A 
ATOM      3  C   UNL     1      -0.205  10.377  19.583  0.00  0.00    +0.000 A 
ATOM      4  N   UNL     1      -0.016  11.028  20.782  0.00  0.00    +0.000 N 
ATOM      5  C   UNL     1      -0.873  12.040  21.219  0.00  0.00    +0.000 A 
ATOM      6  C   UNL     1      -0.655  12.700  22.430  0.00  0.00    +0.000 A 
ATOM      7  C   UNL     1      -1.546  13.683  22.871  0.00  0.00    +0.000 A 
ATOM      8  C   UNL     1      -2.670  14.009  22.109  0.00  0.00    +0.000 A 
ATOM      9  C   UNL     1      -2.904  13.348  20.904  0.00  0.00    +0.000 A 
ATOM     10  C   UNL     1      -2.009  12.367  20.466  0.00  0.00    +0.000 A 
ATOM     11  C   UNL     1      -2.239  11.653  19.188  0.00  0.00    +0.000 A 
ATOM     12  O   UNL     1      -3.220  11.920  18.497  0.00  0.00    +0.000 OA
ATOM     13  H   UNL     1       0.862  10.878  21.263  0.00  0.00    +0.000 HD
ENDROOT
BRANCH   3  14
ATOM     14  C   UNL     1       0.835   9.389  19.249  0.00  0.00    +0.000 A 
ATOM     15  C   UNL     1       1.199   8.408  20.177  0.00  0.00    +0.000 A 
ATOM     16  C   UNL     1       2.158   7.445  19.847  0.00  0.00    +0.000 A 
ATOM     17  C   UNL     1       2.766   7.446  18.583  0.00  0.00    +0.000 A 
ATOM     18  C   UNL     1       2.393   8.428  17.654  0.00  0.00    +0.000 A 
ATOM     19  C   UNL     1       1.441   9.396  17.986  0.00  0.00    +0.000 A 
BRANCH  17  20
ATOM     20  C   UNL     1       3.821   6.419  18.244  0.00  0.00    +0.000 C 
BRANCH  20  21
ATOM     21  C   UNL     1       3.315   5.011  18.031  0.00  0.00    +0.000 A 
ATOM     22  C   UNL     1       4.213   3.950  17.846  0.00  0.00    +0.000 A 
ATOM     23  C   UNL     1       3.749   2.636  17.731  0.00  0.00    +0.000 A 
ATOM     24  C   UNL     1       2.382   2.371  17.794  0.00  0.00    +0.000 A 
ATOM     25  C   UNL     1       1.478   3.418  17.953  0.00  0.00    +0.000 A 
ATOM     26  C   UNL     1       1.940   4.732  18.062  0.00  0.00    +0.000 A 
ENDBRANCH  20  21
ENDBRANCH  17  20
ENDBRANCH   3  14
TORSDOF 3
ENDMDL
MODEL 3
REMARK VINA RESULT:      -8.4      3.171      4.449
REMARK  Name = 
REMARK  4 active torsions:
REMARK  status: ('A' for Active; 'I' for Inactive)
REMARK    1  A    between atoms: C_1  and  C_2
REMARK    2  A    between atoms: C_3  and  C_4
REMARK    3  A    between atoms: C_7  and  C_8
REMARK    4  A    between atoms: C_8  and  C_9
REMARK                            x       y       z     vdW  Elec       q    Type
REMARK                         _______ _______ _______ _____ _____    ______ ____
ROOT
ATOM      1  C   UNL     1      -1.540  10.279  19.036  0.00  0.00    +0.000 C 
ATOM      2  C   UNL     1      -0.451  11.305  18.960  0.00  0.00    +0.000 A 
ATOM      3  C   UNL     1       0.879  11.089  18.883  0.00  0.00    +0.000 A 
ATOM      4  N   UNL     1       1.814  12.099  18.815  0.00  0.00    +0.000 N 
ATOM      5  C   UNL     1       1.449  13.445  18.764  0.00  0.00    +0.000 A 
ATOM      6  C   UNL     1       2.410  14.455  18.678  0.00  0.00    +0.000 A 
ATOM      7  C   UNL     1       2.028  15.799  18.670  0.00  0.00    +0.000 A 
ATOM      8  C   UNL     1       0.678  16.148  18.758  0.00  0.00    +0.000 A 
ATOM      9  C   UNL     1      -0.290  15.150  18.856  0.00  0.00    +0.000 A 
ATOM     10  C   UNL     1       0.097  13.806  18.862  0.00  0.00    +0.000 A 
ATOM     11  C   UNL     1      -0.915  12.730  18.966  0.00  0.00    +0.000 A 
ATOM     12  O   UNL     1      -2.110  13.009  19.044  0.00  0.00    +0.000 OA
ATOM     13  H   UNL     1       2.774  11.837  18.624  0.00  0.00    +0.000 HD
ENDROOT
BRANCH   3  14
ATOM     14  C   UNL     1       1.442   9.728  18.854  0.00  0.00    +0.000 A 
ATOM     15  C   UNL     1       2.073   9.250  17.701  0.00  0.00    +0.000 A 
ATOM     16  C   UNL     1       2.643   7.974  17.686  0.00  0.00    +0.000 A 
ATOM     17  C   UNL     1       2.593   7.155  18.824  0.00  0.00    +0.000 A 
ATOM     18  C   UNL     1       1.964   7.641  19.979  0.00  0.00    +0.000 A 
ATOM     19  C   UNL     1       1.386   8.914  19.993  0.00  0.00    +0.000 A 
BRANCH  17  20
ATOM     20  C   UNL     1       3.187   5.766  18.789  0.00  0.00    +0.000 C 
BRANCH  20  21
ATOM     21  C   UNL     1       2.429   4.715  19.567  0.00  0.00    +0.000 A 
ATOM     22  C   UNL     1       1.438   3.942  18.946  0.00  0.00    +0.000 A 
ATOM     23  C   UNL     1       0.795   2.915  19.643  0.00  0.00    +0.000 A 
ATOM     24  C   UNL     1       1.132   2.654  20.970  0.00  0.00    +0.000 A 
ATOM     25  C   UNL     1       2.097   3.431  21.606  0.00  0.00    +0.000 A 
ATOM     26  C   UNL     1       2.736   4.461  20.913  0.00  0.00    +0.000 A 
ENDBRANCH  20  21
ENDBRANCH  17  20
ENDBRANCH   3  14
TORSDOF 3
ENDMDL
MODEL 4
REMARK VINA RESULT:      -8.4      3.124      4.459
REMARK  Name = 
REMARK  4 active torsions:
REMARK  status: ('A' for Active; 'I' for Inactive)
REMARK    1  A    between atoms: C_1  and  C_2
REMARK    2  A    between atoms: C_3  and  C_4
REMARK    3  A    between atoms: C_7  and  C_8
REMARK    4  A    between atoms: C_8  and  C_9
REMARK                            x       y       z     vdW  Elec       q    Type
REMARK                         _______ _______ _______ _____ _____    ______ ____
ROOT
ATOM      1  C   UNL     1      -1.534   9.991  18.551  0.00  0.00    +0.000 C 
ATOM      2  C   UNL     1      -0.485  11.054  18.674  0.00  0.00    +0.000 A 
ATOM      3  C   UNL     1       0.849  10.885  18.784  0.00  0.00    +0.000 A 
ATOM      4  N   UNL     1       1.745  11.926  18.891  0.00  0.00    +0.000 N 
ATOM      5  C   UNL     1       1.339  13.261  18.837  0.00  0.00    +0.000 A 
ATOM      6  C   UNL     1       2.264  14.304  18.931  0.00  0.00    +0.000 A 
ATOM      7  C   UNL     1       1.836  15.634  18.915  0.00  0.00    +0.000 A 
ATOM      8  C   UNL     1       0.476  15.935  18.817  0.00  0.00    +0.000 A 
ATOM      9  C   UNL     1      -0.457  14.904  18.736  0.00  0.00    +0.000 A 
ATOM     10  C   UNL     1      -0.024  13.574  18.749  0.00  0.00    +0.000 A 
ATOM     11  C   UNL     1      -0.999  12.462  18.663  0.00  0.00    +0.000 A 
ATOM     12  O   UNL     1      -2.203  12.698  18.575  0.00  0.00    +0.000 OA
ATOM     13  H   UNL     1       2.731  11.704  18.834  0.00  0.00    +0.000 HD
ENDROOT
BRANCH   3  14
ATOM     14  C   UNL     1       1.461   9.545  18.789  0.00  0.00    +0.000 A 
ATOM     15  C   UNL     1       2.116   9.066  17.649  0.00  0.00    +0.000 A 
ATOM     16  C   UNL     1       2.732   7.811  17.665  0.00  0.00    +0.000 A 
ATOM     17  C   UNL     1       2.707   7.017  18.820  0.00  0.00    +0.000 A 
ATOM     18  C   UNL     1       2.054   7.504  19.962  0.00  0.00    +0.000 A 
ATOM     19  C   UNL     1       1.430   8.755  19.945  0.00  0.00    +0.000 A 
BRANCH  17  20
ATOM     20  C   UNL     1       3.351   5.650  18.820  0.00  0.00    +0.000 C 
BRANCH  20  21
ATOM     21  C   UNL     1       2.592   4.572  19.558  0.00  0.00    +0.000 A 
ATOM     22  C   UNL     1       2.940   4.225  20.871  0.00  0.00    +0.000 A 
ATOM     23  C   UNL     1       2.187   3.286  21.583  0.00  0.00    +0.000 A 
ATOM     24  C   UNL     1       1.082   2.681  20.987  0.00  0.00    +0.000 A 
ATOM     25  C   UNL     1       0.740   2.999  19.675  0.00  0.00    +0.000 A 
ATOM     26  C   UNL     1       1.495   3.932  18.960  0.00  0.00    +0.000 A 
ENDBRANCH  20  21
ENDBRANCH  17  20
ENDBRANCH   3  14
TORSDOF 3
ENDMDL
MODEL 5
REMARK VINA RESULT:      -8.4      3.351      8.661
REMARK  Name = 
REMARK  4 active torsions:
REMARK  status: ('A' for Active; 'I' for Inactive)
REMARK    1  A    between atoms: C_1  and  C_2
REMARK    2  A    between atoms: C_3  and  C_4
REMARK    3  A    between atoms: C_7  and  C_8
REMARK    4  A    between atoms: C_8  and  C_9
REMARK                            x       y       z     vdW  Elec       q    Type
REMARK                         _______ _______ _______ _____ _____    ______ ____
ROOT
ATOM      1  C   UNL     1       1.499   4.495  18.934  0.00  0.00    +0.000 C 
ATOM      2  C   UNL     1       2.664   5.001  18.138  0.00  0.00    +0.000 A 
ATOM      3  C   UNL     1       3.068   6.280  17.993  0.00  0.00    +0.000 A 
ATOM      4  N   UNL     1       4.158   6.656  17.240  0.00  0.00    +0.000 N 
ATOM      5  C   UNL     1       4.976   5.721  16.602  0.00  0.00    +0.000 A 
ATOM      6  C   UNL     1       6.087   6.120  15.855  0.00  0.00    +0.000 A 
ATOM      7  C   UNL     1       6.871   5.173  15.190  0.00  0.00    +0.000 A 
ATOM      8  C   UNL     1       6.544   3.817  15.256  0.00  0.00    +0.000 A 
ATOM      9  C   UNL     1       5.431   3.408  15.987  0.00  0.00    +0.000 A 
ATOM     10  C   UNL     1       4.651   4.358  16.653  0.00  0.00    +0.000 A 
ATOM     11  C   UNL     1       3.463   3.945  17.436  0.00  0.00    +0.000 A 
ATOM     12  O   UNL     1       3.153   2.758  17.512  0.00  0.00    +0.000 OA
ATOM     13  H   UNL     1       4.461   7.620  17.301  0.00  0.00    +0.000 HD
ENDROOT
BRANCH   3  14
ATOM     14  C   UNL     1       2.364   7.394  18.653  0.00  0.00    +0.000 A 
ATOM     15  C   UNL     1       1.917   8.487  17.904  0.00  0.00    +0.000 A 
ATOM     16  C   UNL     1       1.213   9.525  18.522  0.00  0.00    +0.000 A 
ATOM     17  C   UNL     1       0.942   9.485  19.897  0.00  0.00    +0.000 A 
ATOM     18  C   UNL     1       1.387   8.384  20.642  0.00  0.00    +0.000 A 
ATOM     19  C   UNL     1       2.099   7.350  20.027  0.00  0.00    +0.000 A 
BRANCH  17  20
ATOM     20  C   UNL     1       0.206  10.625  20.562  0.00  0.00    +0.000 C 
BRANCH  20  21
ATOM     21  C   UNL     1       0.443  11.992  19.962  0.00  0.00    +0.000 A 
ATOM     22  C   UNL     1      -0.509  12.573  19.112  0.00  0.00    +0.000 A 
ATOM     23  C   UNL     1      -0.328  13.870  18.622  0.00  0.00    +0.000 A 
ATOM     24  C   UNL     1       0.809  14.597  18.973  0.00  0.00    +0.000 A 
ATOM     25  C   UNL     1       1.773  14.021  19.796  0.00  0.00    +0.000 A 
ATOM     26  C   UNL     1       1.597  12.723  20.282  0.00  0.00    +0.000 A 
ENDBRANCH  20  21
ENDBRANCH  17  20
ENDBRANCH   3  14
TORSDOF 3
ENDMDL
MODEL 6
REMARK VINA RESULT:      -8.4      3.335      8.577
REMARK  Name = 
REMARK  4 active torsions:
REMARK  status: ('A' for Active; 'I' for Inactive)
REMARK    1  A    between atoms: C_1  and  C_2
REMARK    2  A    between atoms: C_3  and  C_4
REMARK    3  A    between atoms: C_7  and  C_8
REMARK    4  A    between atoms: C_8  and  C_9
REMARK                            x       y       z     vdW  Elec       q    Type
REMARK                         _______ _______ _______ _____ _____    ______ ____
ROOT
ATOM      1  C   UNL     1       1.429   4.500  18.876  0.00  0.00    +0.000 C 
ATOM      2  C   UNL     1       2.614   5.031  18.129  0.00  0.00    +0.000 A 
ATOM      3  C   UNL     1       3.004   6.319  18.013  0.00  0.00    +0.000 A 
ATOM      4  N   UNL     1       4.115   6.719  17.304  0.00  0.00    +0.000 N 
ATOM      5  C   UNL     1       4.970   5.804  16.686  0.00  0.00    +0.000 A 
ATOM      6  C   UNL     1       6.101   6.229  15.986  0.00  0.00    +0.000 A 
ATOM      7  C   UNL     1       6.923   5.301  15.339  0.00  0.00    +0.000 A 
ATOM      8  C   UNL     1       6.615   3.940  15.378  0.00  0.00    +0.000 A 
ATOM      9  C   UNL     1       5.482   3.505  16.063  0.00  0.00    +0.000 A 
ATOM     10  C   UNL     1       4.664   4.437  16.711  0.00  0.00    +0.000 A 
ATOM     11  C   UNL     1       3.455   3.996  17.445  0.00  0.00    +0.000 A 
ATOM     12  O   UNL     1       3.161   2.804  17.496  0.00  0.00    +0.000 OA
ATOM     13  H   UNL     1       4.400   7.687  17.387  0.00  0.00    +0.000 HD
ENDROOT
BRANCH   3  14
ATOM     14  C   UNL     1       2.259   7.413  18.659  0.00  0.00    +0.000 A 
ATOM     15  C   UNL     1       2.068   7.415  20.045  0.00  0.00    +0.000 A 
ATOM     16  C   UNL     1       1.396   8.473  20.663  0.00  0.00    +0.000 A 
ATOM     17  C   UNL     1       0.908   9.549  19.908  0.00  0.00    +0.000 A 
ATOM     18  C   UNL     1       1.107   9.546  18.520  0.00  0.00    +0.000 A 
ATOM     19  C   UNL     1       1.771   8.483  17.899  0.00  0.00    +0.000 A 
BRANCH  17  20
ATOM     20  C   UNL     1       0.158  10.675  20.582  0.00  0.00    +0.000 C 
BRANCH  20  21
ATOM     21  C   UNL     1       0.434  12.057  20.038  0.00  0.00    +0.000 A 
ATOM     22  C   UNL     1       1.672  12.679  20.261  0.00  0.00    +0.000 A 
ATOM     23  C   UNL     1       1.957  13.922  19.690  0.00  0.00    +0.000 A 
ATOM     24  C   UNL     1       1.006  14.560  18.895  0.00  0.00    +0.000 A 
ATOM     25  C   UNL     1      -0.236  13.965  18.686  0.00  0.00    +0.000 A 
ATOM     26  C   UNL     1      -0.524  12.725  19.261  0.00  0.00    +0.000 A 
ENDBRANCH  20  21
ENDBRANCH  17  20
ENDBRANCH   3  14
TORSDOF 3
ENDMDL
MODEL 7
REMARK VINA RESULT:      -8.3      2.495      3.722
REMARK  Name = 
REMARK  4 active torsions:
REMARK  status: ('A' for Active; 'I' for Inactive)
REMARK    1  A    between atoms: C_1  and  C_2
REMARK    2  A    between atoms: C_3  and  C_4
REMARK    3  A    between atoms: C_7  and  C_8
REMARK    4  A    between atoms: C_8  and  C_9
REMARK                            x       y       z     vdW  Elec       q    Type
REMARK                         _______ _______ _______ _____ _____    ______ ____
ROOT
ATOM      1  C   UNL     1      -1.793   9.989  18.276  0.00  0.00    +0.000 C 
ATOM      2  C   UNL     1      -1.053  10.946  19.161  0.00  0.00    +0.000 A 
ATOM      3  C   UNL     1       0.211  10.832  19.621  0.00  0.00    +0.000 A 
ATOM      4  N   UNL     1       0.814  11.766  20.433  0.00  0.00    +0.000 N 
ATOM      5  C   UNL     1       0.173  12.949  20.807  0.00  0.00    +0.000 A 
ATOM      6  C   UNL     1       0.808  13.892  21.618  0.00  0.00    +0.000 A 
ATOM      7  C   UNL     1       0.136  15.052  22.015  0.00  0.00    +0.000 A 
ATOM      8  C   UNL     1      -1.182  15.275  21.612  0.00  0.00    +0.000 A 
ATOM      9  C   UNL     1      -1.830  14.335  20.812  0.00  0.00    +0.000 A 
ATOM     10  C   UNL     1      -1.153  13.177  20.416  0.00  0.00    +0.000 A 
ATOM     11  C   UNL     1      -1.823  12.166  19.566  0.00  0.00    +0.000 A 
ATOM     12  O   UNL     1      -2.983  12.337  19.196  0.00  0.00    +0.000 OA
ATOM     13  H   UNL     1       1.805  11.660  20.615  0.00  0.00    +0.000 HD
ENDROOT
BRANCH   3  14
ATOM     14  C   UNL     1       1.061   9.681  19.271  0.00  0.00    +0.000 A 
ATOM     15  C   UNL     1       1.269   8.652  20.195  0.00  0.00    +0.000 A 
ATOM     16  C   UNL     1       2.042   7.540  19.850  0.00  0.00    +0.000 A 
ATOM     17  C   UNL     1       2.617   7.436  18.575  0.00  0.00    +0.000 A 
ATOM     18  C   UNL     1       2.401   8.467  17.650  0.00  0.00    +0.000 A 
ATOM     19  C   UNL     1       1.634   9.585  17.997  0.00  0.00    +0.000 A 
BRANCH  17  20
ATOM     20  C   UNL     1       3.475   6.244  18.220  0.00  0.00    +0.000 C 
BRANCH  20  21
ATOM     21  C   UNL     1       2.902   4.895  18.592  0.00  0.00    +0.000 A 
ATOM     22  C   UNL     1       3.446   4.156  19.652  0.00  0.00    +0.000 A 
ATOM     23  C   UNL     1       2.865   2.947  20.048  0.00  0.00    +0.000 A 
ATOM     24  C   UNL     1       1.738   2.463  19.385  0.00  0.00    +0.000 A 
ATOM     25  C   UNL     1       1.203   3.176  18.315  0.00  0.00    +0.000 A 
ATOM     26  C   UNL     1       1.786   4.381  17.914  0.00  0.00    +0.000 A 
ENDBRANCH  20  21
ENDBRANCH  17  20
ENDBRANCH   3  14
TORSDOF 3
ENDMDL
MODEL 8
REMARK VINA RESULT:      -8.3      1.588      2.500
REMARK  Name = 
REMARK  4 active torsions:
REMARK  status: ('A' for Active; 'I' for Inactive)
REMARK    1  A    between atoms: C_1  and  C_2
REMARK    2  A    between atoms: C_3  and  C_4
REMARK    3  A    between atoms: C_7  and  C_8
REMARK    4  A    between atoms: C_8  and  C_9
REMARK                            x       y       z     vdW  Elec       q    Type
REMARK                         _______ _______ _______ _____ _____    ______ ____
ROOT
ATOM      1  C   UNL     1       1.419   9.242  22.566  0.00  0.00    +0.000 C 
ATOM      2  C   UNL     1       0.507   9.880  21.563  0.00  0.00    +0.000 A 
ATOM      3  C   UNL     1       0.473   9.668  20.230  0.00  0.00    +0.000 A 
ATOM      4  N   UNL     1      -0.406  10.301  19.379  0.00  0.00    +0.000 N 
ATOM      5  C   UNL     1      -1.382  11.185  19.843  0.00  0.00    +0.000 A 
ATOM      6  C   UNL     1      -2.275  11.805  18.966  0.00  0.00    +0.000 A 
ATOM      7  C   UNL     1      -3.220  12.717  19.445  0.00  0.00    +0.000 A 
ATOM      8  C   UNL     1      -3.273  13.027  20.805  0.00  0.00    +0.000 A 
ATOM      9  C   UNL     1      -2.379  12.424  21.689  0.00  0.00    +0.000 A 
ATOM     10  C   UNL     1      -1.437  11.510  21.206  0.00  0.00    +0.000 A 
ATOM     11  C   UNL     1      -0.478  10.858  22.127  0.00  0.00    +0.000 A 
ATOM     12  O   UNL     1      -0.503  11.112  23.330  0.00  0.00    +0.000 OA
ATOM     13  H   UNL     1      -0.445   9.978  18.420  0.00  0.00    +0.000 HD
ENDROOT
BRANCH   3  14
ATOM     14  C   UNL     1       1.386   8.716  19.574  0.00  0.00    +0.000 A 
ATOM     15  C   UNL     1       1.729   7.518  20.209  0.00  0.00    +0.000 A 
ATOM     16  C   UNL     1       2.563   6.595  19.571  0.00  0.00    +0.000 A 
ATOM     17  C   UNL     1       3.065   6.853  18.287  0.00  0.00    +0.000 A 
ATOM     18  C   UNL     1       2.713   8.053  17.652  0.00  0.00    +0.000 A 
ATOM     19  C   UNL     1       1.886   8.981  18.293  0.00  0.00    +0.000 A 
BRANCH  17  20
ATOM     20  C   UNL     1       3.988   5.863  17.616  0.00  0.00    +0.000 C 
BRANCH  20  21
ATOM     21  C   UNL     1       3.733   4.410  17.943  0.00  0.00    +0.000 A 
ATOM     22  C   UNL     1       4.522   3.742  18.890  0.00  0.00    +0.000 A 
ATOM     23  C   UNL     1       4.234   2.422  19.253  0.00  0.00    +0.000 A 
ATOM     24  C   UNL     1       3.160   1.756  18.666  0.00  0.00    +0.000 A 
ATOM     25  C   UNL     1       2.384   2.400  17.706  0.00  0.00    +0.000 A 
ATOM     26  C   UNL     1       2.673   3.716  17.339  0.00  0.00    +0.000 A 
ENDBRANCH  20  21
ENDBRANCH  17  20
ENDBRANCH   3  14
TORSDOF 3
ENDMDL
MODEL 9
REMARK VINA RESULT:      -8.3      3.108      4.318
REMARK  Name = 
REMARK  4 active torsions:
REMARK  status: ('A' for Active; 'I' for Inactive)
REMARK    1  A    between atoms: C_1  and  C_2
REMARK    2  A    between atoms: C_3  and  C_4
REMARK    3  A    between atoms: C_7  and  C_8
REMARK    4  A    between atoms: C_8  and  C_9
REMARK                            x       y       z     vdW  Elec       q    Type
REMARK                         _______ _______ _______ _____ _____    ______ ____
ROOT
ATOM      1  C   UNL     1      -1.479  10.163  19.138  0.00  0.00    +0.000 C 
ATOM      2  C   UNL     1      -0.426  11.225  19.048  0.00  0.00    +0.000 A 
ATOM      3  C   UNL     1       0.907  11.054  18.925  0.00  0.00    +0.000 A 
ATOM      4  N   UNL     1       1.807  12.094  18.847  0.00  0.00    +0.000 N 
ATOM      5  C   UNL     1       1.398  13.429  18.834  0.00  0.00    +0.000 A 
ATOM      6  C   UNL     1       2.324  14.470  18.737  0.00  0.00    +0.000 A 
ATOM      7  C   UNL     1       1.898  15.801  18.767  0.00  0.00    +0.000 A 
ATOM      8  C   UNL     1       0.542  16.104  18.904  0.00  0.00    +0.000 A 
ATOM      9  C   UNL     1      -0.390  15.075  19.014  0.00  0.00    +0.000 A 
ATOM     10  C   UNL     1       0.040  13.744  18.981  0.00  0.00    +0.000 A 
ATOM     11  C   UNL     1      -0.935  12.634  19.096  0.00  0.00    +0.000 A 
ATOM     12  O   UNL     1      -2.135  12.872  19.217  0.00  0.00    +0.000 OA
ATOM     13  H   UNL     1       2.768  11.867  18.621  0.00  0.00    +0.000 HD
ENDROOT
BRANCH   3  14
ATOM     14  C   UNL     1       1.511   9.712  18.852  0.00  0.00    +0.000 A 
ATOM     15  C   UNL     1       1.469   8.859  19.960  0.00  0.00    +0.000 A 
ATOM     16  C   UNL     1       2.006   7.571  19.880  0.00  0.00    +0.000 A 
ATOM     17  C   UNL     1       2.591   7.113  18.690  0.00  0.00    +0.000 A 
ATOM     18  C   UNL     1       2.626   7.970  17.581  0.00  0.00    +0.000 A 
ATOM     19  C   UNL     1       2.097   9.262  17.663  0.00  0.00    +0.000 A 
BRANCH  17  20
ATOM     20  C   UNL     1       3.194   5.729  18.621  0.00  0.00    +0.000 C 
BRANCH  20  21
ATOM     21  C   UNL     1       2.489   4.670  19.435  0.00  0.00    +0.000 A 
ATOM     22  C   UNL     1       2.822   4.464  20.781  0.00  0.00    +0.000 A 
ATOM     23  C   UNL     1       2.114   3.541  21.556  0.00  0.00    +0.000 A 
ATOM     24  C   UNL     1       1.069   2.810  20.992  0.00  0.00    +0.000 A 
ATOM     25  C   UNL     1       0.745   2.988  19.649  0.00  0.00    +0.000 A 
ATOM     26  C   UNL     1       1.455   3.905  18.872  0.00  0.00    +0.000 A 
ENDBRANCH  20  21
ENDBRANCH  17  20
ENDBRANCH   3  14
TORSDOF 3
ENDMDL
