MODEL 1
REMARK VINA RESULT:      -7.7      0.000      0.000
REMARK  Name = 
REMARK  12 active torsions:
REMARK  status: ('A' for Active; 'I' for Inactive)
REMARK    1  A    between atoms: C_1  and  C_2
REMARK    2  A    between atoms: C_2  and  C_3
REMARK    3  A    between atoms: C_4  and  C_5
REMARK    4  A    between atoms: C_5  and  C_6
REMARK    5  A    between atoms: C_6  and  C_7
REMARK    6  A    between atoms: C_7  and  C_8
REMARK    7  A    between atoms: C_9  and  C_10
REMARK    8  A    between atoms: C_10  and  N_11
REMARK    9  A    between atoms: N_11  and  C_12
REMARK   10  A    between atoms: C_12  and  C_13
REMARK   11  A    between atoms: C_13  and  N_14
REMARK   12  A    between atoms: N_14  and  C_15
REMARK                            x       y       z     vdW  Elec       q    Type
REMARK                         _______ _______ _______ _____ _____    ______ ____
ROOT
ATOM      1  C   UNL     1       2.927   2.729  17.902  0.00  0.00    +0.000 C 
ENDROOT
BRANCH   1   2
ATOM      2  N   UNL     1       1.753   1.856  17.970  0.00  0.00    +0.000 NA
ATOM      3  H   UNL     1       1.400   1.692  16.996  0.00  0.00    +0.000 HD
BRANCH   2   4
ATOM      4  C   UNL     1       0.712   2.517  18.749  0.00  0.00    +0.000 C 
BRANCH   4   7
ATOM      5  C   UNL     1       1.534   3.948  20.614  0.00  0.00    +0.000 C 
ATOM      6  C   UNL     1       1.395   2.737  21.533  0.00  0.00    +0.000 C 
ATOM      7  C   UNL     1       1.202   3.823  19.312  0.00  0.00    +0.000 C 
BRANCH   5   8
ATOM      8  C   UNL     1       2.054   5.299  21.087  0.00  0.00    +0.000 C 
BRANCH   8   9
ATOM      9  C   UNL     1       2.071   6.355  19.983  0.00  0.00    +0.000 C 
BRANCH   9  13
ATOM     10  C   UNL     1       0.903  10.053  20.224  0.00  0.00    +0.000 C 
ATOM     11  C   UNL     1       1.402   8.763  19.635  0.00  0.00    +0.000 C 
ATOM     12  C   UNL     1       1.744   8.708  18.161  0.00  0.00    +0.000 C 
ATOM     13  C   UNL     1       1.539   7.687  20.445  0.00  0.00    +0.000 C 
ENDBRANCH   9  13
ENDBRANCH   8   9
ENDBRANCH   5   8
ENDBRANCH   4   7
ENDBRANCH   2   4
ENDBRANCH   1   2
BRANCH   1  14
ATOM     14  C   UNL     1       4.080   2.079  18.642  0.00  0.00    +0.000 C 
BRANCH  14  15
ATOM     15  N   UNL     1       5.171   3.042  18.820  0.00  0.00    +0.000 NA
ATOM     16  H   UNL     1       6.078   2.545  18.702  0.00  0.00    +0.000 HD
BRANCH  15  17
ATOM     17  C   UNL     1       5.045   4.209  17.925  0.00  0.00    +0.000 C 
ATOM     18  C   UNL     1       5.125   5.542  18.735  0.00  0.00    +0.000 C 
ATOM     19  C   UNL     1       6.537   5.736  19.347  0.00  0.00    +0.000 C 
ATOM     20  C   UNL     1       7.595   5.750  18.218  0.00  0.00    +0.000 C 
ATOM     21  C   UNL     1       7.302   6.929  17.266  0.00  0.00    +0.000 C 
ATOM     22  C   UNL     1       5.893   6.763  16.655  0.00  0.00    +0.000 C 
ATOM     23  C   UNL     1       4.837   6.729  17.782  0.00  0.00    +0.000 C 
ATOM     24  C   UNL     1       5.837   5.444  15.859  0.00  0.00    +0.000 C 
ATOM     25  C   UNL     1       6.131   4.256  16.800  0.00  0.00    +0.000 C 
ATOM     26  C   UNL     1       7.541   4.427  17.417  0.00  0.00    +0.000 C 
ENDBRANCH  15  17
ENDBRANCH  14  15
ENDBRANCH   1  14
TORSDOF 9
ENDMDL
MODEL 2
REMARK VINA RESULT:      -7.4      3.167      7.723
REMARK  Name = 
REMARK  12 active torsions:
REMARK  status: ('A' for Active; 'I' for Inactive)
REMARK    1  A    between atoms: C_1  and  C_2
REMARK    2  A    between atoms: C_2  and  C_3
REMARK    3  A    between atoms: C_4  and  C_5
REMARK    4  A    between atoms: C_5  and  C_6
REMARK    5  A    between atoms: C_6  and  C_7
REMARK    6  A    between atoms: C_7  and  C_8
REMARK    7  A    between atoms: C_9  and  C_10
REMARK    8  A    between atoms: C_10  and  N_11
REMARK    9  A    between atoms: N_11  and  C_12
REMARK   10  A    between atoms: C_12  and  C_13
REMARK   11  A    between atoms: C_13  and  N_14
REMARK   12  A    between atoms: N_14  and  C_15
REMARK                            x       y       z     vdW  Elec       q    Type
REMARK                         _______ _______ _______ _____ _____    ______ ____
ROOT
ATOM      1  C   UNL     1       7.195   5.186  18.517  0.00  0.00    +0.000 C 
ENDROOT
BRANCH   1   2
ATOM      2  N   UNL     1       7.737   4.892  17.189  0.00  0.00    +0.000 NA
ATOM      3  H   UNL     1       8.728   5.231  17.149  0.00  0.00    +0.000 HD
BRANCH   2   4
ATOM      4  C   UNL     1       6.950   5.598  16.186  0.00  0.00    +0.000 C 
BRANCH   4   7
ATOM      5  C   UNL     1       6.286   4.397  14.108  0.00  0.00    +0.000 C 
ATOM      6  C   UNL     1       4.918   4.164  14.743  0.00  0.00    +0.000 C 
ATOM      7  C   UNL     1       7.226   5.067  14.806  0.00  0.00    +0.000 C 
BRANCH   5   8
ATOM      8  C   UNL     1       6.644   3.928  12.703  0.00  0.00    +0.000 C 
BRANCH   8   9
ATOM      9  C   UNL     1       5.425   3.521  11.877  0.00  0.00    +0.000 C 
BRANCH   9  13
ATOM     10  C   UNL     1       6.011  -0.240  11.099  0.00  0.00    +0.000 C 
ATOM     11  C   UNL     1       6.277   1.233  11.242  0.00  0.00    +0.000 C 
ATOM     12  C   UNL     1       7.626   1.784  10.828  0.00  0.00    +0.000 C 
ATOM     13  C   UNL     1       5.296   2.027  11.730  0.00  0.00    +0.000 C 
ENDBRANCH   9  13
ENDBRANCH   8   9
ENDBRANCH   5   8
ENDBRANCH   4   7
ENDBRANCH   2   4
ENDBRANCH   1   2
BRANCH   1  14
ATOM     14  C   UNL     1       5.680   5.118  18.469  0.00  0.00    +0.000 C 
BRANCH  14  15
ATOM     15  N   UNL     1       5.220   3.801  18.921  0.00  0.00    +0.000 NA
ATOM     16  H   UNL     1       5.999   3.331  19.428  0.00  0.00    +0.000 HD
BRANCH  15  17
ATOM     17  C   UNL     1       3.986   3.881  19.727  0.00  0.00    +0.000 C 
ATOM     18  C   UNL     1       2.878   4.679  18.969  0.00  0.00    +0.000 C 
ATOM     19  C   UNL     1       2.408   3.913  17.705  0.00  0.00    +0.000 C 
ATOM     20  C   UNL     1       1.861   2.525  18.113  0.00  0.00    +0.000 C 
ATOM     21  C   UNL     1       0.652   2.714  19.053  0.00  0.00    +0.000 C 
ATOM     22  C   UNL     1       1.096   3.488  20.315  0.00  0.00    +0.000 C 
ATOM     23  C   UNL     1       1.661   4.867  19.909  0.00  0.00    +0.000 C 
ATOM     24  C   UNL     1       2.186   2.681  21.048  0.00  0.00    +0.000 C 
ATOM     25  C   UNL     1       3.401   2.482  20.115  0.00  0.00    +0.000 C 
ATOM     26  C   UNL     1       2.954   1.713  18.848  0.00  0.00    +0.000 C 
ENDBRANCH  15  17
ENDBRANCH  14  15
ENDBRANCH   1  14
TORSDOF 9
ENDMDL
MODEL 3
REMARK VINA RESULT:      -7.4      3.148      7.149
REMARK  Name = 
REMARK  12 active torsions:
REMARK  status: ('A' for Active; 'I' for Inactive)
REMARK    1  A    between atoms: C_1  and  C_2
REMARK    2  A    between atoms: C_2  and  C_3
REMARK    3  A    between atoms: C_4  and  C_5
REMARK    4  A    between atoms: C_5  and  C_6
REMARK    5  A    between atoms: C_6  and  C_7
REMARK    6  A    between atoms: C_7  and  C_8
REMARK    7  A    between atoms: C_9  and  C_10
REMARK    8  A    between atoms: C_10  and  N_11
REMARK    9  A    between atoms: N_11  and  C_12
REMARK   10  A    between atoms: C_12  and  C_13
REMARK   11  A    between atoms: C_13  and  N_14
REMARK   12  A    between atoms: N_14  and  C_15
REMARK                            x       y       z     vdW  Elec       q    Type
REMARK                         _______ _______ _______ _____ _____    ______ ____
ROOT
ATOM      1  C   UNL     1       7.121   5.160  17.871  0.00  0.00    +0.000 C 
ENDROOT
BRANCH   1   2
ATOM      2  N   UNL     1       6.815   6.261  16.955  0.00  0.00    +0.000 NA
ATOM      3  H   UNL     1       6.625   7.124  17.520  0.00  0.00    +0.000 HD
BRANCH   2   4
ATOM      4  C   UNL     1       5.625   5.924  16.184  0.00  0.00    +0.000 C 
BRANCH   4   7
ATOM      5  C   UNL     1       5.872   4.192  14.413  0.00  0.00    +0.000 C 
ATOM      6  C   UNL     1       5.379   3.162  15.425  0.00  0.00    +0.000 C 
ATOM      7  C   UNL     1       5.986   5.481  14.793  0.00  0.00    +0.000 C 
BRANCH   5   8
ATOM      8  C   UNL     1       6.226   3.842  12.973  0.00  0.00    +0.000 C 
BRANCH   8   9
ATOM      9  C   UNL     1       5.102   3.112  12.239  0.00  0.00    +0.000 C 
BRANCH   9  13
ATOM     10  C   UNL     1       2.915   4.458   9.324  0.00  0.00    +0.000 C 
ATOM     11  C   UNL     1       3.394   3.572  10.440  0.00  0.00    +0.000 C 
ATOM     12  C   UNL     1       2.634   2.300  10.751  0.00  0.00    +0.000 C 
ATOM     13  C   UNL     1       4.499   3.937  11.131  0.00  0.00    +0.000 C 
ENDBRANCH   9  13
ENDBRANCH   8   9
ENDBRANCH   5   8
ENDBRANCH   4   7
ENDBRANCH   2   4
ENDBRANCH   1   2
BRANCH   1  14
ATOM     14  C   UNL     1       6.047   5.081  18.938  0.00  0.00    +0.000 C 
BRANCH  14  15
ATOM     15  N   UNL     1       5.269   3.847  18.780  0.00  0.00    +0.000 NA
ATOM     16  H   UNL     1       5.885   3.034  18.990  0.00  0.00    +0.000 HD
BRANCH  15  17
ATOM     17  C   UNL     1       4.037   3.849  19.593  0.00  0.00    +0.000 C 
ATOM     18  C   UNL     1       2.872   4.561  18.835  0.00  0.00    +0.000 C 
ATOM     19  C   UNL     1       2.449   3.752  17.581  0.00  0.00    +0.000 C 
ATOM     20  C   UNL     1       2.002   2.333  18.005  0.00  0.00    +0.000 C 
ATOM     21  C   UNL     1       0.788   2.448  18.951  0.00  0.00    +0.000 C 
ATOM     22  C   UNL     1       1.185   3.263  20.203  0.00  0.00    +0.000 C 
ATOM     23  C   UNL     1       1.650   4.673  19.780  0.00  0.00    +0.000 C 
ATOM     24  C   UNL     1       2.332   2.541  20.936  0.00  0.00    +0.000 C 
ATOM     25  C   UNL     1       3.552   2.417  19.998  0.00  0.00    +0.000 C 
ATOM     26  C   UNL     1       3.153   1.607  18.741  0.00  0.00    +0.000 C 
ENDBRANCH  15  17
ENDBRANCH  14  15
ENDBRANCH   1  14
TORSDOF 9
ENDMDL
MODEL 4
REMARK VINA RESULT:      -7.3      2.782      6.284
REMARK  Name = 
REMARK  12 active torsions:
REMARK  status: ('A' for Active; 'I' for Inactive)
REMARK    1  A    between atoms: C_1  and  C_2
REMARK    2  A    between atoms: C_2  and  C_3
REMARK    3  A    between atoms: C_4  and  C_5
REMARK    4  A    between atoms: C_5  and  C_6
REMARK    5  A    between atoms: C_6  and  C_7
REMARK    6  A    between atoms: C_7  and  C_8
REMARK    7  A    between atoms: C_9  and  C_10
REMARK    8  A    between atoms: C_10  and  N_11
REMARK    9  A    between atoms: N_11  and  C_12
REMARK   10  A    between atoms: C_12  and  C_13
REMARK   11  A    between atoms: C_13  and  N_14
REMARK   12  A    between atoms: N_14  and  C_15
REMARK                            x       y       z     vdW  Elec       q    Type
REMARK                         _______ _______ _______ _____ _____    ______ ____
ROOT
ATOM      1  C   UNL     1       6.574   4.479  15.724  0.00  0.00    +0.000 C 
ENDROOT
BRANCH   1   2
ATOM      2  N   UNL     1       7.704   4.290  16.635  0.00  0.00    +0.000 NA
ATOM      3  H   UNL     1       7.947   3.270  16.661  0.00  0.00    +0.000 HD
BRANCH   2   4
ATOM      4  C   UNL     1       7.316   4.721  17.972  0.00  0.00    +0.000 C 
BRANCH   4   7
ATOM      5  C   UNL     1       7.714   7.175  18.114  0.00  0.00    +0.000 C 
ATOM      6  C   UNL     1       6.434   7.376  17.307  0.00  0.00    +0.000 C 
ATOM      7  C   UNL     1       8.112   5.921  18.409  0.00  0.00    +0.000 C 
BRANCH   5   8
ATOM      8  C   UNL     1       8.564   8.330  18.629  0.00  0.00    +0.000 C 
BRANCH   8   9
ATOM      9  C   UNL     1       8.264   9.655  17.930  0.00  0.00    +0.000 C 
BRANCH   9  13
ATOM     10  C   UNL     1      10.255  12.978  18.221  0.00  0.00    +0.000 C 
ATOM     11  C   UNL     1       9.135  12.022  17.916  0.00  0.00    +0.000 C 
ATOM     12  C   UNL     1       7.873  12.547  17.265  0.00  0.00    +0.000 C 
ATOM     13  C   UNL     1       9.293  10.715  18.227  0.00  0.00    +0.000 C 
ENDBRANCH   9  13
ENDBRANCH   8   9
ENDBRANCH   5   8
ENDBRANCH   4   7
ENDBRANCH   2   4
ENDBRANCH   1   2
BRANCH   1  14
ATOM     14  C   UNL     1       5.437   3.564  16.135  0.00  0.00    +0.000 C 
BRANCH  14  15
ATOM     15  N   UNL     1       4.274   4.357  16.546  0.00  0.00    +0.000 NA
ATOM     16  H   UNL     1       3.736   4.627  15.696  0.00  0.00    +0.000 HD
BRANCH  15  17
ATOM     17  C   UNL     1       3.441   3.661  17.546  0.00  0.00    +0.000 C 
ATOM     18  C   UNL     1       4.067   3.781  18.972  0.00  0.00    +0.000 C 
ATOM     19  C   UNL     1       4.038   5.249  19.470  0.00  0.00    +0.000 C 
ATOM     20  C   UNL     1       2.577   5.758  19.500  0.00  0.00    +0.000 C 
ATOM     21  C   UNL     1       1.759   4.888  20.478  0.00  0.00    +0.000 C 
ATOM     22  C   UNL     1       1.787   3.417  20.007  0.00  0.00    +0.000 C 
ATOM     23  C   UNL     1       3.246   2.913  19.957  0.00  0.00    +0.000 C 
ATOM     24  C   UNL     1       1.162   3.322  18.602  0.00  0.00    +0.000 C 
ATOM     25  C   UNL     1       1.970   4.191  17.614  0.00  0.00    +0.000 C 
ATOM     26  C   UNL     1       1.948   5.664  18.090  0.00  0.00    +0.000 C 
ENDBRANCH  15  17
ENDBRANCH  14  15
ENDBRANCH   1  14
TORSDOF 9
ENDMDL
MODEL 5
REMARK VINA RESULT:      -7.2      2.916      6.794
REMARK  Name = 
REMARK  12 active torsions:
REMARK  status: ('A' for Active; 'I' for Inactive)
REMARK    1  A    between atoms: C_1  and  C_2
REMARK    2  A    between atoms: C_2  and  C_3
REMARK    3  A    between atoms: C_4  and  C_5
REMARK    4  A    between atoms: C_5  and  C_6
REMARK    5  A    between atoms: C_6  and  C_7
REMARK    6  A    between atoms: C_7  and  C_8
REMARK    7  A    between atoms: C_9  and  C_10
REMARK    8  A    between atoms: C_10  and  N_11
REMARK    9  A    between atoms: N_11  and  C_12
REMARK   10  A    between atoms: C_12  and  C_13
REMARK   11  A    between atoms: C_13  and  N_14
REMARK   12  A    between atoms: N_14  and  C_15
REMARK                            x       y       z     vdW  Elec       q    Type
REMARK                         _______ _______ _______ _____ _____    ______ ____
ROOT
ATOM      1  C   UNL     1       4.602   5.699  16.428  0.00  0.00    +0.000 C 
ENDROOT
BRANCH   1   2
ATOM      2  N   UNL     1       5.607   6.648  15.947  0.00  0.00    +0.000 NA
ATOM      3  H   UNL     1       5.615   6.626  14.898  0.00  0.00    +0.000 HD
BRANCH   2   4
ATOM      4  C   UNL     1       6.918   6.246  16.441  0.00  0.00    +0.000 C 
BRANCH   4   7
ATOM      5  C   UNL     1       8.070   7.274  18.395  0.00  0.00    +0.000 C 
ATOM      6  C   UNL     1       7.863   5.959  19.141  0.00  0.00    +0.000 C 
ATOM      7  C   UNL     1       7.613   7.388  17.131  0.00  0.00    +0.000 C 
BRANCH   5   8
ATOM      8  C   UNL     1       8.794   8.471  18.999  0.00  0.00    +0.000 C 
BRANCH   8   9
ATOM      9  C   UNL     1       8.525   9.775  18.249  0.00  0.00    +0.000 C 
BRANCH   9  13
ATOM     10  C   UNL     1      11.346  12.307  19.100  0.00  0.00    +0.000 C 
ATOM     11  C   UNL     1      10.160  11.399  19.275  0.00  0.00    +0.000 C 
ATOM     12  C   UNL     1       9.481  11.323  20.626  0.00  0.00    +0.000 C 
ATOM     13  C   UNL     1       9.728  10.682  18.212  0.00  0.00    +0.000 C 
ENDBRANCH   9  13
ENDBRANCH   8   9
ENDBRANCH   5   8
ENDBRANCH   4   7
ENDBRANCH   2   4
ENDBRANCH   1   2
BRANCH   1  14
ATOM     14  C   UNL     1       4.411   5.882  17.922  0.00  0.00    +0.000 C 
BRANCH  14  15
ATOM     15  N   UNL     1       4.630   4.611  18.618  0.00  0.00    +0.000 NA
ATOM     16  H   UNL     1       5.604   4.595  18.986  0.00  0.00    +0.000 HD
BRANCH  15  17
ATOM     17  C   UNL     1       3.623   4.362  19.669  0.00  0.00    +0.000 C 
ATOM     18  C   UNL     1       2.213   4.853  19.214  0.00  0.00    +0.000 C 
ATOM     19  C   UNL     1       1.684   4.003  18.030  0.00  0.00    +0.000 C 
ATOM     20  C   UNL     1       1.604   2.517  18.452  0.00  0.00    +0.000 C 
ATOM     21  C   UNL     1       0.624   2.380  19.636  0.00  0.00    +0.000 C 
ATOM     22  C   UNL     1       1.126   3.231  20.824  0.00  0.00    +0.000 C 
ATOM     23  C   UNL     1       1.224   4.713  20.399  0.00  0.00    +0.000 C 
ATOM     24  C   UNL     1       2.516   2.727  21.257  0.00  0.00    +0.000 C 
ATOM     25  C   UNL     1       3.507   2.857  20.080  0.00  0.00    +0.000 C 
ATOM     26  C   UNL     1       2.999   2.009  18.888  0.00  0.00    +0.000 C 
ENDBRANCH  15  17
ENDBRANCH  14  15
ENDBRANCH   1  14
TORSDOF 9
ENDMDL
MODEL 6
REMARK VINA RESULT:      -7.2      2.657      7.178
REMARK  Name = 
REMARK  12 active torsions:
REMARK  status: ('A' for Active; 'I' for Inactive)
REMARK    1  A    between atoms: C_1  and  C_2
REMARK    2  A    between atoms: C_2  and  C_3
REMARK    3  A    between atoms: C_4  and  C_5
REMARK    4  A    between atoms: C_5  and  C_6
REMARK    5  A    between atoms: C_6  and  C_7
REMARK    6  A    between atoms: C_7  and  C_8
REMARK    7  A    between atoms: C_9  and  C_10
REMARK    8  A    between atoms: C_10  and  N_11
REMARK    9  A    between atoms: N_11  and  C_12
REMARK   10  A    between atoms: C_12  and  C_13
REMARK   11  A    between atoms: C_13  and  N_14
REMARK   12  A    between atoms: N_14  and  C_15
REMARK                            x       y       z     vdW  Elec       q    Type
REMARK                         _______ _______ _______ _____ _____    ______ ____
ROOT
ATOM      1  C   UNL     1       6.007   4.714  19.115  0.00  0.00    +0.000 C 
ENDROOT
BRANCH   1   2
ATOM      2  N   UNL     1       7.391   5.108  18.845  0.00  0.00    +0.000 NA
ATOM      3  H   UNL     1       7.671   5.845  19.537  0.00  0.00    +0.000 HD
BRANCH   2   4
ATOM      4  C   UNL     1       7.475   5.661  17.500  0.00  0.00    +0.000 C 
BRANCH   4   7
ATOM      5  C   UNL     1       5.907   5.010  15.679  0.00  0.00    +0.000 C 
ATOM      6  C   UNL     1       5.250   6.379  15.826  0.00  0.00    +0.000 C 
ATOM      7  C   UNL     1       6.945   4.692  16.479  0.00  0.00    +0.000 C 
BRANCH   5   8
ATOM      8  C   UNL     1       5.462   3.978  14.649  0.00  0.00    +0.000 C 
BRANCH   8   9
ATOM      9  C   UNL     1       6.012   4.251  13.250  0.00  0.00    +0.000 C 
BRANCH   9  13
ATOM     10  C   UNL     1       5.987   1.118  10.953  0.00  0.00    +0.000 C 
ATOM     11  C   UNL     1       5.548   2.404  11.595  0.00  0.00    +0.000 C 
ATOM     12  C   UNL     1       4.210   3.001  11.212  0.00  0.00    +0.000 C 
ATOM     13  C   UNL     1       6.361   2.987  12.506  0.00  0.00    +0.000 C 
ENDBRANCH   9  13
ENDBRANCH   8   9
ENDBRANCH   5   8
ENDBRANCH   4   7
ENDBRANCH   2   4
ENDBRANCH   1   2
BRANCH   1  14
ATOM     14  C   UNL     1       5.151   5.956  19.272  0.00  0.00    +0.000 C 
BRANCH  14  15
ATOM     15  N   UNL     1       3.846   5.600  19.838  0.00  0.00    +0.000 NA
ATOM     16  H   UNL     1       3.110   6.159  19.357  0.00  0.00    +0.000 HD
BRANCH  15  17
ATOM     17  C   UNL     1       3.583   4.149  19.782  0.00  0.00    +0.000 C 
ATOM     18  C   UNL     1       2.356   3.771  20.672  0.00  0.00    +0.000 C 
ATOM     19  C   UNL     1       1.048   4.375  20.099  0.00  0.00    +0.000 C 
ATOM     20  C   UNL     1       0.823   3.856  18.659  0.00  0.00    +0.000 C 
ATOM     21  C   UNL     1       0.686   2.319  18.692  0.00  0.00    +0.000 C 
ATOM     22  C   UNL     1       1.976   1.697  19.272  0.00  0.00    +0.000 C 
ATOM     23  C   UNL     1       2.212   2.229  20.703  0.00  0.00    +0.000 C 
ATOM     24  C   UNL     1       3.171   2.080  18.378  0.00  0.00    +0.000 C 
ATOM     25  C   UNL     1       3.317   3.616  18.334  0.00  0.00    +0.000 C 
ATOM     26  C   UNL     1       2.022   4.239  17.759  0.00  0.00    +0.000 C 
ENDBRANCH  15  17
ENDBRANCH  14  15
ENDBRANCH   1  14
TORSDOF 9
ENDMDL
MODEL 7
REMARK VINA RESULT:      -7.2      4.972      7.210
REMARK  Name = 
REMARK  12 active torsions:
REMARK  status: ('A' for Active; 'I' for Inactive)
REMARK    1  A    between atoms: C_1  and  C_2
REMARK    2  A    between atoms: C_2  and  C_3
REMARK    3  A    between atoms: C_4  and  C_5
REMARK    4  A    between atoms: C_5  and  C_6
REMARK    5  A    between atoms: C_6  and  C_7
REMARK    6  A    between atoms: C_7  and  C_8
REMARK    7  A    between atoms: C_9  and  C_10
REMARK    8  A    between atoms: C_10  and  N_11
REMARK    9  A    between atoms: N_11  and  C_12
REMARK   10  A    between atoms: C_12  and  C_13
REMARK   11  A    between atoms: C_13  and  N_14
REMARK   12  A    between atoms: N_14  and  C_15
REMARK                            x       y       z     vdW  Elec       q    Type
REMARK                         _______ _______ _______ _____ _____    ______ ____
ROOT
ATOM      1  C   UNL     1       8.074   8.009  17.581  0.00  0.00    +0.000 C 
ENDROOT
BRANCH   1   2
ATOM      2  N   UNL     1       8.284   7.240  18.809  0.00  0.00    +0.000 NA
ATOM      3  H   UNL     1       9.311   7.059  18.920  0.00  0.00    +0.000 HD
BRANCH   2   4
ATOM      4  C   UNL     1       7.585   5.966  18.698  0.00  0.00    +0.000 C 
BRANCH   4   7
ATOM      5  C   UNL     1       5.211   5.439  18.163  0.00  0.00    +0.000 C 
ATOM      6  C   UNL     1       5.189   4.535  19.392  0.00  0.00    +0.000 C 
ATOM      7  C   UNL     1       6.348   6.096  17.853  0.00  0.00    +0.000 C 
BRANCH   5   8
ATOM      8  C   UNL     1       3.997   5.661  17.269  0.00  0.00    +0.000 C 
BRANCH   8   9
ATOM      9  C   UNL     1       2.680   5.696  18.044  0.00  0.00    +0.000 C 
BRANCH   9  13
ATOM     10  C   UNL     1       0.675   2.459  18.818  0.00  0.00    +0.000 C 
ATOM     11  C   UNL     1       1.371   3.776  19.026  0.00  0.00    +0.000 C 
ATOM     12  C   UNL     1       1.442   4.361  20.421  0.00  0.00    +0.000 C 
ATOM     13  C   UNL     1       1.920   4.398  17.957  0.00  0.00    +0.000 C 
ENDBRANCH   9  13
ENDBRANCH   8   9
ENDBRANCH   5   8
ENDBRANCH   4   7
ENDBRANCH   2   4
ENDBRANCH   1   2
BRANCH   1  14
ATOM     14  C   UNL     1       7.888   9.473  17.930  0.00  0.00    +0.000 C 
BRANCH  14  15
ATOM     15  N   UNL     1       9.061   9.972  18.655  0.00  0.00    +0.000 NA
ATOM     16  H   UNL     1       9.882   9.379  18.410  0.00  0.00    +0.000 HD
BRANCH  15  17
ATOM     17  C   UNL     1       9.307  11.407  18.411  0.00  0.00    +0.000 C 
ATOM     18  C   UNL     1       9.259  12.214  19.746  0.00  0.00    +0.000 C 
ATOM     19  C   UNL     1      10.436  11.822  20.676  0.00  0.00    +0.000 C 
ATOM     20  C   UNL     1      11.778  12.091  19.955  0.00  0.00    +0.000 C 
ATOM     21  C   UNL     1      11.884  13.597  19.631  0.00  0.00    +0.000 C 
ATOM     22  C   UNL     1      10.711  14.012  18.716  0.00  0.00    +0.000 C 
ATOM     23  C   UNL     1       9.369  13.726  19.426  0.00  0.00    +0.000 C 
ATOM     24  C   UNL     1      10.780  13.206  17.404  0.00  0.00    +0.000 C 
ATOM     25  C   UNL     1      10.678  11.697  17.715  0.00  0.00    +0.000 C 
ATOM     26  C   UNL     1      11.851  11.283  18.637  0.00  0.00    +0.000 C 
ENDBRANCH  15  17
ENDBRANCH  14  15
ENDBRANCH   1  14
TORSDOF 9
ENDMDL
MODEL 8
REMARK VINA RESULT:      -7.1      2.695      7.179
REMARK  Name = 
REMARK  12 active torsions:
REMARK  status: ('A' for Active; 'I' for Inactive)
REMARK    1  A    between atoms: C_1  and  C_2
REMARK    2  A    between atoms: C_2  and  C_3
REMARK    3  A    between atoms: C_4  and  C_5
REMARK    4  A    between atoms: C_5  and  C_6
REMARK    5  A    between atoms: C_6  and  C_7
REMARK    6  A    between atoms: C_7  and  C_8
REMARK    7  A    between atoms: C_9  and  C_10
REMARK    8  A    between atoms: C_10  and  N_11
REMARK    9  A    between atoms: N_11  and  C_12
REMARK   10  A    between atoms: C_12  and  C_13
REMARK   11  A    between atoms: C_13  and  N_14
REMARK   12  A    between atoms: N_14  and  C_15
REMARK                            x       y       z     vdW  Elec       q    Type
REMARK                         _______ _______ _______ _____ _____    ______ ____
ROOT
ATOM      1  C   UNL     1       7.126   6.107  19.281  0.00  0.00    +0.000 C 
ENDROOT
BRANCH   1   2
ATOM      2  N   UNL     1       8.037   5.790  18.180  0.00  0.00    +0.000 NA
ATOM      3  H   UNL     1       8.971   6.224  18.382  0.00  0.00    +0.000 HD
BRANCH   2   4
ATOM      4  C   UNL     1       7.507   6.353  16.945  0.00  0.00    +0.000 C 
BRANCH   4   7
ATOM      5  C   UNL     1       5.822   5.312  15.436  0.00  0.00    +0.000 C 
ATOM      6  C   UNL     1       4.892   6.479  15.757  0.00  0.00    +0.000 C 
ATOM      7  C   UNL     1       7.042   5.270  16.010  0.00  0.00    +0.000 C 
BRANCH   5   8
ATOM      8  C   UNL     1       5.452   4.190  14.473  0.00  0.00    +0.000 C 
BRANCH   8   9
ATOM      9  C   UNL     1       5.965   4.424  13.053  0.00  0.00    +0.000 C 
BRANCH   9  13
ATOM     10  C   UNL     1       6.004   1.163  10.943  0.00  0.00    +0.000 C 
ATOM     11  C   UNL     1       5.519   2.453  11.544  0.00  0.00    +0.000 C 
ATOM     12  C   UNL     1       4.117   2.933  11.230  0.00  0.00    +0.000 C 
ATOM     13  C   UNL     1       6.351   3.145  12.357  0.00  0.00    +0.000 C 
ENDBRANCH   9  13
ENDBRANCH   8   9
ENDBRANCH   5   8
ENDBRANCH   4   7
ENDBRANCH   2   4
ENDBRANCH   1   2
BRANCH   1  14
ATOM     14  C   UNL     1       6.235   4.911  19.558  0.00  0.00    +0.000 C 
BRANCH  14  15
ATOM     15  N   UNL     1       4.937   5.086  18.900  0.00  0.00    +0.000 NA
ATOM     16  H   UNL     1       4.984   4.662  17.950  0.00  0.00    +0.000 HD
BRANCH  15  17
ATOM     17  C   UNL     1       3.820   4.552  19.704  0.00  0.00    +0.000 C 
ATOM     18  C   UNL     1       2.491   5.303  19.377  0.00  0.00    +0.000 C 
ATOM     19  C   UNL     1       2.031   5.013  17.924  0.00  0.00    +0.000 C 
ATOM     20  C   UNL     1       1.827   3.491  17.739  0.00  0.00    +0.000 C 
ATOM     21  C   UNL     1       0.729   3.007  18.710  0.00  0.00    +0.000 C 
ATOM     22  C   UNL     1       1.161   3.299  20.165  0.00  0.00    +0.000 C 
ATOM     23  C   UNL     1       1.385   4.816  20.347  0.00  0.00    +0.000 C 
ATOM     24  C   UNL     1       2.472   2.546  20.466  0.00  0.00    +0.000 C 
ATOM     25  C   UNL     1       3.578   3.020  19.498  0.00  0.00    +0.000 C 
ATOM     26  C   UNL     1       3.141   2.733  18.040  0.00  0.00    +0.000 C 
ENDBRANCH  15  17
ENDBRANCH  14  15
ENDBRANCH   1  14
TORSDOF 9
ENDMDL
MODEL 9
REMARK VINA RESULT:      -7.1      3.856      7.559
REMARK  Name = 
REMARK  12 active torsions:
REMARK  status: ('A' for Active; 'I' for Inactive)
REMARK    1  A    between atoms: C_1  and  C_2
REMARK    2  A    between atoms: C_2  and  C_3
REMARK    3  A    between atoms: C_4  and  C_5
REMARK    4  A    between atoms: C_5  and  C_6
REMARK    5  A    between atoms: C_6  and  C_7
REMARK    6  A    between atoms: C_7  and  C_8
REMARK    7  A    between atoms: C_9  and  C_10
REMARK    8  A    between atoms: C_10  and  N_11
REMARK    9  A    between atoms: N_11  and  C_12
REMARK   10  A    between atoms: C_12  and  C_13
REMARK   11  A    between atoms: C_13  and  N_14
REMARK   12  A    between atoms: N_14  and  C_15
REMARK                            x       y       z     vdW  Elec       q    Type
REMARK                         _______ _______ _______ _____ _____    ______ ____
ROOT
ATOM      1  C   UNL     1       6.906   5.315  17.273  0.00  0.00    +0.000 C 
ENDROOT
BRANCH   1   2
ATOM      2  N   UNL     1       7.427   6.594  16.786  0.00  0.00    +0.000 NA
ATOM      3  H   UNL     1       8.325   6.418  16.275  0.00  0.00    +0.000 HD
BRANCH   2   4
ATOM      4  C   UNL     1       7.689   7.466  17.925  0.00  0.00    +0.000 C 
BRANCH   4   7
ATOM      5  C   UNL     1       8.319   9.864  18.157  0.00  0.00    +0.000 C 
ATOM      6  C   UNL     1       9.252   9.454  19.293  0.00  0.00    +0.000 C 
ATOM      7  C   UNL     1       7.590   8.915  17.534  0.00  0.00    +0.000 C 
BRANCH   5   8
ATOM      8  C   UNL     1       8.180  11.301  17.669  0.00  0.00    +0.000 C 
BRANCH   8   9
ATOM      9  C   UNL     1       9.066  12.282  18.435  0.00  0.00    +0.000 C 
BRANCH   9  13
ATOM     10  C   UNL     1      12.333  13.825  17.008  0.00  0.00    +0.000 C 
ATOM     11  C   UNL     1      11.391  13.135  17.955  0.00  0.00    +0.000 C 
ATOM     12  C   UNL     1      11.895  12.708  19.318  0.00  0.00    +0.000 C 
ATOM     13  C   UNL     1      10.114  12.922  17.561  0.00  0.00    +0.000 C 
ENDBRANCH   9  13
ENDBRANCH   8   9
ENDBRANCH   5   8
ENDBRANCH   4   7
ENDBRANCH   2   4
ENDBRANCH   1   2
BRANCH   1  14
ATOM     14  C   UNL     1       6.123   5.544  18.551  0.00  0.00    +0.000 C 
BRANCH  14  15
ATOM     15  N   UNL     1       5.561   4.278  19.032  0.00  0.00    +0.000 NA
ATOM     16  H   UNL     1       5.514   4.306  20.072  0.00  0.00    +0.000 HD
BRANCH  15  17
ATOM     17  C   UNL     1       4.256   3.969  18.414  0.00  0.00    +0.000 C 
ATOM     18  C   UNL     1       3.702   2.606  18.937  0.00  0.00    +0.000 C 
ATOM     19  C   UNL     1       3.352   2.691  20.445  0.00  0.00    +0.000 C 
ATOM     20  C   UNL     1       2.298   3.800  20.672  0.00  0.00    +0.000 C 
ATOM     21  C   UNL     1       1.017   3.449  19.886  0.00  0.00    +0.000 C 
ATOM     22  C   UNL     1       1.347   3.346  18.380  0.00  0.00    +0.000 C 
ATOM     23  C   UNL     1       2.414   2.252  18.154  0.00  0.00    +0.000 C 
ATOM     24  C   UNL     1       1.889   4.702  17.885  0.00  0.00    +0.000 C 
ATOM     25  C   UNL     1       3.169   5.066  18.667  0.00  0.00    +0.000 C 
ATOM     26  C   UNL     1       2.839   5.163  20.176  0.00  0.00    +0.000 C 
ENDBRANCH  15  17
ENDBRANCH  14  15
ENDBRANCH   1  14
TORSDOF 9
ENDMDL
