MODEL 1
REMARK VINA RESULT:      -6.7      0.000      0.000
REMARK  Name = 
REMARK  7 active torsions:
REMARK  status: ('A' for Active; 'I' for Inactive)
REMARK    1  A    between atoms: C_2  and  C_3
REMARK    2  A    between atoms: C_3  and  C_4
REMARK    3  A    between atoms: C_4  and  P_5
REMARK    4  A    between atoms: P_5  and  O_7
REMARK    5  A    between atoms: P_5  and  O_8
REMARK    6  A    between atoms: N_9  and  C_10
REMARK    7  A    between atoms: C_14  and  O_15
REMARK                            x       y       z     vdW  Elec       q    Type
REMARK                         _______ _______ _______ _____ _____    ______ ____
ROOT
ATOM      1  O   UNL     1       4.696   4.002  16.739  0.00  0.00    +0.000 OA
ATOM      2  C   UNL     1       4.517   5.103  17.269  0.00  0.00    +0.000 C 
ATOM      3  N   UNL     1       3.587   5.395  18.252  0.00  0.00    +0.000 N 
ATOM      4  H   UNL     1       3.359   6.379  18.390  0.00  0.00    +0.000 HD
ENDROOT
BRANCH   3   5
ATOM      5  C   UNL     1       2.726   4.475  18.905  0.00  0.00    +0.000 A 
ATOM      6  C   UNL     1       1.652   3.848  18.268  0.00  0.00    +0.000 A 
ATOM      7  C   UNL     1       0.783   3.013  18.986  0.00  0.00    +0.000 A 
ATOM      8  C   UNL     1       0.989   2.780  20.341  0.00  0.00    +0.000 A 
ATOM      9  C   UNL     1       2.090   3.353  20.961  0.00  0.00    +0.000 A 
ATOM     10  C   UNL     1       2.965   4.181  20.257  0.00  0.00    +0.000 A 
BRANCH   9  11
ATOM     11  O   UNL     1       2.345   3.136  22.287  0.00  0.00    +0.000 OA
ATOM     12  H   UNL     1       3.061   2.482  22.362  0.00  0.00    +0.000 HD
ENDBRANCH   9  11
ENDBRANCH   3   5
BRANCH   2  13
ATOM     13  C   UNL     1       5.381   6.286  16.868  0.00  0.00    +0.000 C 
BRANCH  13  14
ATOM     14  C   UNL     1       6.889   6.019  17.060  0.00  0.00    +0.000 C 
BRANCH  14  15
ATOM     15  P   UNL     1       7.345   5.719  18.806  0.00  0.00    +0.000 P 
ATOM     16  O   UNL     1       8.198   4.511  18.408  0.00  0.00    +0.000 OA
BRANCH  15  17
ATOM     17  O   UNL     1       8.336   7.020  18.772  0.00  0.00    +0.000 OA
ATOM     18  H   UNL     1       8.421   7.476  19.630  0.00  0.00    +0.000 HD
ENDBRANCH  15  17
BRANCH  15  19
ATOM     19  O   UNL     1       7.777   5.434  20.457  0.00  0.00    +0.000 OA
ATOM     20  H   UNL     1       8.710   5.732  20.497  0.00  0.00    +0.000 HD
ENDBRANCH  15  19
ENDBRANCH  14  15
ENDBRANCH  13  14
ENDBRANCH   2  13
TORSDOF 7
ENDMDL
MODEL 2
REMARK VINA RESULT:      -6.7      2.374      5.616
REMARK  Name = 
REMARK  7 active torsions:
REMARK  status: ('A' for Active; 'I' for Inactive)
REMARK    1  A    between atoms: C_2  and  C_3
REMARK    2  A    between atoms: C_3  and  C_4
REMARK    3  A    between atoms: C_4  and  P_5
REMARK    4  A    between atoms: P_5  and  O_7
REMARK    5  A    between atoms: P_5  and  O_8
REMARK    6  A    between atoms: N_9  and  C_10
REMARK    7  A    between atoms: C_14  and  O_15
REMARK                            x       y       z     vdW  Elec       q    Type
REMARK                         _______ _______ _______ _____ _____    ______ ____
ROOT
ATOM      1  O   UNL     1       2.412   6.346  18.050  0.00  0.00    +0.000 OA
ATOM      2  C   UNL     1       2.690   5.145  17.977  0.00  0.00    +0.000 C 
ATOM      3  N   UNL     1       3.962   4.600  17.943  0.00  0.00    +0.000 N 
ATOM      4  H   UNL     1       4.043   3.643  17.602  0.00  0.00    +0.000 HD
ENDROOT
BRANCH   3   5
ATOM      5  C   UNL     1       5.187   5.302  18.079  0.00  0.00    +0.000 A 
ATOM      6  C   UNL     1       5.671   6.191  17.116  0.00  0.00    +0.000 A 
ATOM      7  C   UNL     1       6.931   6.792  17.264  0.00  0.00    +0.000 A 
ATOM      8  C   UNL     1       7.710   6.526  18.384  0.00  0.00    +0.000 A 
ATOM      9  C   UNL     1       7.206   5.690  19.371  0.00  0.00    +0.000 A 
ATOM     10  C   UNL     1       5.953   5.092  19.238  0.00  0.00    +0.000 A 
BRANCH   9  11
ATOM     11  O   UNL     1       7.928   5.415  20.499  0.00  0.00    +0.000 OA
ATOM     12  H   UNL     1       8.447   4.607  20.346  0.00  0.00    +0.000 HD
ENDBRANCH   9  11
ENDBRANCH   3   5
BRANCH   2  13
ATOM     13  C   UNL     1       1.577   4.112  17.940  0.00  0.00    +0.000 C 
BRANCH  13  14
ATOM     14  C   UNL     1       2.005   2.750  18.526  0.00  0.00    +0.000 C 
BRANCH  14  15
ATOM     15  P   UNL     1       1.763   2.643  20.336  0.00  0.00    +0.000 P 
ATOM     16  O   UNL     1       3.082   3.379  20.587  0.00  0.00    +0.000 OA
BRANCH  15  17
ATOM     17  O   UNL     1       0.599   3.790  20.250  0.00  0.00    +0.000 OA
ATOM     18  H   UNL     1       0.628   4.324  19.435  0.00  0.00    +0.000 HD
ENDBRANCH  15  17
BRANCH  15  19
ATOM     19  O   UNL     1       1.535   2.543  22.049  0.00  0.00    +0.000 OA
ATOM     20  H   UNL     1       2.172   3.202  22.396  0.00  0.00    +0.000 HD
ENDBRANCH  15  19
ENDBRANCH  14  15
ENDBRANCH  13  14
ENDBRANCH   2  13
TORSDOF 7
ENDMDL
MODEL 3
REMARK VINA RESULT:      -6.5      1.275      1.691
REMARK  Name = 
REMARK  7 active torsions:
REMARK  status: ('A' for Active; 'I' for Inactive)
REMARK    1  A    between atoms: C_2  and  C_3
REMARK    2  A    between atoms: C_3  and  C_4
REMARK    3  A    between atoms: C_4  and  P_5
REMARK    4  A    between atoms: P_5  and  O_7
REMARK    5  A    between atoms: P_5  and  O_8
REMARK    6  A    between atoms: N_9  and  C_10
REMARK    7  A    between atoms: C_14  and  O_15
REMARK                            x       y       z     vdW  Elec       q    Type
REMARK                         _______ _______ _______ _____ _____    ______ ____
ROOT
ATOM      1  O   UNL     1       4.702   3.711  16.859  0.00  0.00    +0.000 OA
ATOM      2  C   UNL     1       4.446   4.912  16.991  0.00  0.00    +0.000 C 
ATOM      3  N   UNL     1       3.432   5.452  17.762  0.00  0.00    +0.000 N 
ATOM      4  H   UNL     1       3.161   6.413  17.559  0.00  0.00    +0.000 HD
ENDROOT
BRANCH   3   5
ATOM      5  C   UNL     1       2.551   4.743  18.620  0.00  0.00    +0.000 A 
ATOM      6  C   UNL     1       2.383   5.054  19.972  0.00  0.00    +0.000 A 
ATOM      7  C   UNL     1       1.563   4.264  20.792  0.00  0.00    +0.000 A 
ATOM      8  C   UNL     1       0.888   3.168  20.267  0.00  0.00    +0.000 A 
ATOM      9  C   UNL     1       1.006   2.893  18.911  0.00  0.00    +0.000 A 
ATOM     10  C   UNL     1       1.813   3.674  18.084  0.00  0.00    +0.000 A 
BRANCH   9  11
ATOM     11  O   UNL     1       0.345   1.838  18.346  0.00  0.00    +0.000 OA
ATOM     12  H   UNL     1      -0.266   1.465  19.005  0.00  0.00    +0.000 HD
ENDBRANCH   9  11
ENDBRANCH   3   5
BRANCH   2  13
ATOM     13  C   UNL     1       5.301   5.950  16.285  0.00  0.00    +0.000 C 
BRANCH  13  14
ATOM     14  C   UNL     1       6.800   5.826  16.630  0.00  0.00    +0.000 C 
BRANCH  14  15
ATOM     15  P   UNL     1       7.107   5.633  18.423  0.00  0.00    +0.000 P 
ATOM     16  O   UNL     1       7.991   4.409  18.172  0.00  0.00    +0.000 OA
BRANCH  15  17
ATOM     17  O   UNL     1       8.097   6.936  18.396  0.00  0.00    +0.000 OA
ATOM     18  H   UNL     1       7.894   7.603  19.078  0.00  0.00    +0.000 HD
ENDBRANCH  15  17
BRANCH  15  19
ATOM     19  O   UNL     1       7.399   5.450  20.120  0.00  0.00    +0.000 OA
ATOM     20  H   UNL     1       6.595   5.836  20.526  0.00  0.00    +0.000 HD
ENDBRANCH  15  19
ENDBRANCH  14  15
ENDBRANCH  13  14
ENDBRANCH   2  13
TORSDOF 7
ENDMDL
MODEL 4
REMARK VINA RESULT:      -6.5      2.314      3.069
REMARK  Name = 
REMARK  7 active torsions:
REMARK  status: ('A' for Active; 'I' for Inactive)
REMARK    1  A    between atoms: C_2  and  C_3
REMARK    2  A    between atoms: C_3  and  C_4
REMARK    3  A    between atoms: C_4  and  P_5
REMARK    4  A    between atoms: P_5  and  O_7
REMARK    5  A    between atoms: P_5  and  O_8
REMARK    6  A    between atoms: N_9  and  C_10
REMARK    7  A    between atoms: C_14  and  O_15
REMARK                            x       y       z     vdW  Elec       q    Type
REMARK                         _______ _______ _______ _____ _____    ______ ____
ROOT
ATOM      1  O   UNL     1       2.787   7.160  17.798  0.00  0.00    +0.000 OA
ATOM      2  C   UNL     1       3.742   6.385  17.684  0.00  0.00    +0.000 C 
ATOM      3  N   UNL     1       3.853   5.134  18.264  0.00  0.00    +0.000 N 
ATOM      4  H   UNL     1       4.789   4.734  18.320  0.00  0.00    +0.000 HD
ENDROOT
BRANCH   3   5
ATOM      5  C   UNL     1       2.860   4.461  19.023  0.00  0.00    +0.000 A 
ATOM      6  C   UNL     1       2.683   4.653  20.396  0.00  0.00    +0.000 A 
ATOM      7  C   UNL     1       1.742   3.897  21.110  0.00  0.00    +0.000 A 
ATOM      8  C   UNL     1       0.954   2.955  20.457  0.00  0.00    +0.000 A 
ATOM      9  C   UNL     1       1.084   2.806  19.083  0.00  0.00    +0.000 A 
ATOM     10  C   UNL     1       2.013   3.556  18.361  0.00  0.00    +0.000 A 
BRANCH   9  11
ATOM     11  O   UNL     1       0.317   1.907  18.396  0.00  0.00    +0.000 OA
ATOM     12  H   UNL     1      -0.450   2.375  18.024  0.00  0.00    +0.000 HD
ENDBRANCH   9  11
ENDBRANCH   3   5
BRANCH   2  13
ATOM     13  C   UNL     1       4.931   6.770  16.821  0.00  0.00    +0.000 C 
BRANCH  13  14
ATOM     14  C   UNL     1       6.120   5.799  16.973  0.00  0.00    +0.000 C 
BRANCH  14  15
ATOM     15  P   UNL     1       6.282   4.641  15.566  0.00  0.00    +0.000 P 
ATOM     16  O   UNL     1       7.805   4.616  15.721  0.00  0.00    +0.000 OA
BRANCH  15  17
ATOM     17  O   UNL     1       5.699   3.428  16.496  0.00  0.00    +0.000 OA
ATOM     18  H   UNL     1       5.491   2.614  16.002  0.00  0.00    +0.000 HD
ENDBRANCH  15  17
BRANCH  15  19
ATOM     19  O   UNL     1       6.436   3.545  14.236  0.00  0.00    +0.000 OA
ATOM     20  H   UNL     1       6.879   4.089  13.551  0.00  0.00    +0.000 HD
ENDBRANCH  15  19
ENDBRANCH  14  15
ENDBRANCH  13  14
ENDBRANCH   2  13
TORSDOF 7
ENDMDL
MODEL 5
REMARK VINA RESULT:      -6.5      2.149      3.135
REMARK  Name = 
REMARK  7 active torsions:
REMARK  status: ('A' for Active; 'I' for Inactive)
REMARK    1  A    between atoms: C_2  and  C_3
REMARK    2  A    between atoms: C_3  and  C_4
REMARK    3  A    between atoms: C_4  and  P_5
REMARK    4  A    between atoms: P_5  and  O_7
REMARK    5  A    between atoms: P_5  and  O_8
REMARK    6  A    between atoms: N_9  and  C_10
REMARK    7  A    between atoms: C_14  and  O_15
REMARK                            x       y       z     vdW  Elec       q    Type
REMARK                         _______ _______ _______ _____ _____    ______ ____
ROOT
ATOM      1  O   UNL     1       6.285   5.156  19.709  0.00  0.00    +0.000 OA
ATOM      2  C   UNL     1       6.210   4.564  18.627  0.00  0.00    +0.000 C 
ATOM      3  N   UNL     1       5.130   3.831  18.169  0.00  0.00    +0.000 N 
ATOM      4  H   UNL     1       5.308   3.177  17.408  0.00  0.00    +0.000 HD
ENDROOT
BRANCH   3   5
ATOM      5  C   UNL     1       3.870   3.691  18.807  0.00  0.00    +0.000 A 
ATOM      6  C   UNL     1       2.668   4.108  18.228  0.00  0.00    +0.000 A 
ATOM      7  C   UNL     1       1.463   4.024  18.940  0.00  0.00    +0.000 A 
ATOM      8  C   UNL     1       1.441   3.504  20.230  0.00  0.00    +0.000 A 
ATOM      9  C   UNL     1       2.624   3.032  20.784  0.00  0.00    +0.000 A 
ATOM     10  C   UNL     1       3.828   3.106  20.083  0.00  0.00    +0.000 A 
BRANCH   9  11
ATOM     11  O   UNL     1       2.648   2.494  22.040  0.00  0.00    +0.000 OA
ATOM     12  H   UNL     1       1.800   2.684  22.476  0.00  0.00    +0.000 HD
ENDBRANCH   9  11
ENDBRANCH   3   5
BRANCH   2  13
ATOM     13  C   UNL     1       7.370   4.627  17.649  0.00  0.00    +0.000 C 
BRANCH  13  14
ATOM     14  C   UNL     1       7.038   5.435  16.377  0.00  0.00    +0.000 C 
BRANCH  14  15
ATOM     15  P   UNL     1       6.678   4.375  14.930  0.00  0.00    +0.000 P 
ATOM     16  O   UNL     1       5.184   4.695  15.028  0.00  0.00    +0.000 OA
BRANCH  15  17
ATOM     17  O   UNL     1       7.331   5.502  13.940  0.00  0.00    +0.000 OA
ATOM     18  H   UNL     1       6.765   5.740  13.182  0.00  0.00    +0.000 HD
ENDBRANCH  15  17
BRANCH  15  19
ATOM     19  O   UNL     1       6.336   3.372  13.561  0.00  0.00    +0.000 OA
ATOM     20  H   UNL     1       5.545   2.868  13.848  0.00  0.00    +0.000 HD
ENDBRANCH  15  19
ENDBRANCH  14  15
ENDBRANCH  13  14
ENDBRANCH   2  13
TORSDOF 7
ENDMDL
MODEL 6
REMARK VINA RESULT:      -6.5      1.398      1.448
REMARK  Name = 
REMARK  7 active torsions:
REMARK  status: ('A' for Active; 'I' for Inactive)
REMARK    1  A    between atoms: C_2  and  C_3
REMARK    2  A    between atoms: C_3  and  C_4
REMARK    3  A    between atoms: C_4  and  P_5
REMARK    4  A    between atoms: P_5  and  O_7
REMARK    5  A    between atoms: P_5  and  O_8
REMARK    6  A    between atoms: N_9  and  C_10
REMARK    7  A    between atoms: C_14  and  O_15
REMARK                            x       y       z     vdW  Elec       q    Type
REMARK                         _______ _______ _______ _____ _____    ______ ____
ROOT
ATOM      1  O   UNL     1       3.934   4.927  16.675  0.00  0.00    +0.000 OA
ATOM      2  C   UNL     1       4.617   3.906  16.812  0.00  0.00    +0.000 C 
ATOM      3  N   UNL     1       4.368   2.868  17.693  0.00  0.00    +0.000 N 
ATOM      4  H   UNL     1       5.147   2.243  17.898  0.00  0.00    +0.000 HD
ENDROOT
BRANCH   3   5
ATOM      5  C   UNL     1       3.239   2.730  18.541  0.00  0.00    +0.000 A 
ATOM      6  C   UNL     1       1.939   2.546  18.062  0.00  0.00    +0.000 A 
ATOM      7  C   UNL     1       0.850   2.501  18.945  0.00  0.00    +0.000 A 
ATOM      8  C   UNL     1       1.049   2.619  20.316  0.00  0.00    +0.000 A 
ATOM      9  C   UNL     1       2.345   2.741  20.799  0.00  0.00    +0.000 A 
ATOM     10  C   UNL     1       3.437   2.781  19.931  0.00  0.00    +0.000 A 
BRANCH   9  11
ATOM     11  O   UNL     1       2.592   2.840  22.140  0.00  0.00    +0.000 OA
ATOM     12  H   UNL     1       1.841   2.454  22.623  0.00  0.00    +0.000 HD
ENDBRANCH   9  11
ENDBRANCH   3   5
BRANCH   2  13
ATOM     13  C   UNL     1       5.846   3.696  15.945  0.00  0.00    +0.000 C 
BRANCH  13  14
ATOM     14  C   UNL     1       6.912   4.794  16.140  0.00  0.00    +0.000 C 
BRANCH  14  15
ATOM     15  P   UNL     1       7.311   5.099  17.899  0.00  0.00    +0.000 P 
ATOM     16  O   UNL     1       8.469   4.100  17.842  0.00  0.00    +0.000 OA
BRANCH  15  17
ATOM     17  O   UNL     1       7.935   6.559  17.507  0.00  0.00    +0.000 OA
ATOM     18  H   UNL     1       8.441   6.564  16.673  0.00  0.00    +0.000 HD
ENDBRANCH  15  17
BRANCH  15  19
ATOM     19  O   UNL     1       7.689   5.386  19.564  0.00  0.00    +0.000 OA
ATOM     20  H   UNL     1       6.839   5.708  19.932  0.00  0.00    +0.000 HD
ENDBRANCH  15  19
ENDBRANCH  14  15
ENDBRANCH  13  14
ENDBRANCH   2  13
TORSDOF 7
ENDMDL
MODEL 7
REMARK VINA RESULT:      -6.5      2.138      2.894
REMARK  Name = 
REMARK  7 active torsions:
REMARK  status: ('A' for Active; 'I' for Inactive)
REMARK    1  A    between atoms: C_2  and  C_3
REMARK    2  A    between atoms: C_3  and  C_4
REMARK    3  A    between atoms: C_4  and  P_5
REMARK    4  A    between atoms: P_5  and  O_7
REMARK    5  A    between atoms: P_5  and  O_8
REMARK    6  A    between atoms: N_9  and  C_10
REMARK    7  A    between atoms: C_14  and  O_15
REMARK                            x       y       z     vdW  Elec       q    Type
REMARK                         _______ _______ _______ _____ _____    ______ ____
ROOT
ATOM      1  O   UNL     1       5.968   3.951  19.327  0.00  0.00    +0.000 OA
ATOM      2  C   UNL     1       5.674   5.057  18.863  0.00  0.00    +0.000 C 
ATOM      3  N   UNL     1       4.396   5.561  18.695  0.00  0.00    +0.000 N 
ATOM      4  H   UNL     1       4.292   6.347  18.055  0.00  0.00    +0.000 HD
ENDROOT
BRANCH   3   5
ATOM      5  C   UNL     1       3.184   4.948  19.105  0.00  0.00    +0.000 A 
ATOM      6  C   UNL     1       2.428   5.396  20.192  0.00  0.00    +0.000 A 
ATOM      7  C   UNL     1       1.283   4.699  20.604  0.00  0.00    +0.000 A 
ATOM      8  C   UNL     1       0.870   3.559  19.924  0.00  0.00    +0.000 A 
ATOM      9  C   UNL     1       1.584   3.146  18.807  0.00  0.00    +0.000 A 
ATOM     10  C   UNL     1       2.721   3.835  18.384  0.00  0.00    +0.000 A 
BRANCH   9  11
ATOM     11  O   UNL     1       1.204   2.043  18.094  0.00  0.00    +0.000 OA
ATOM     12  H   UNL     1       0.475   2.293  17.501  0.00  0.00    +0.000 HD
ENDBRANCH   9  11
ENDBRANCH   3   5
BRANCH   2  13
ATOM     13  C   UNL     1       6.774   6.016  18.439  0.00  0.00    +0.000 C 
BRANCH  13  14
ATOM     14  C   UNL     1       6.742   6.332  16.929  0.00  0.00    +0.000 C 
BRANCH  14  15
ATOM     15  P   UNL     1       6.658   4.832  15.886  0.00  0.00    +0.000 P 
ATOM     16  O   UNL     1       7.380   5.548  14.742  0.00  0.00    +0.000 OA
BRANCH  15  17
ATOM     17  O   UNL     1       7.817   4.129  16.801  0.00  0.00    +0.000 OA
ATOM     18  H   UNL     1       7.473   3.498  17.461  0.00  0.00    +0.000 HD
ENDBRANCH  15  17
BRANCH  15  19
ATOM     19  O   UNL     1       6.579   3.413  14.898  0.00  0.00    +0.000 OA
ATOM     20  H   UNL     1       7.521   3.219  14.712  0.00  0.00    +0.000 HD
ENDBRANCH  15  19
ENDBRANCH  14  15
ENDBRANCH  13  14
ENDBRANCH   2  13
TORSDOF 7
ENDMDL
MODEL 8
REMARK VINA RESULT:      -6.4      2.150      2.708
REMARK  Name = 
REMARK  7 active torsions:
REMARK  status: ('A' for Active; 'I' for Inactive)
REMARK    1  A    between atoms: C_2  and  C_3
REMARK    2  A    between atoms: C_3  and  C_4
REMARK    3  A    between atoms: C_4  and  P_5
REMARK    4  A    between atoms: P_5  and  O_7
REMARK    5  A    between atoms: P_5  and  O_8
REMARK    6  A    between atoms: N_9  and  C_10
REMARK    7  A    between atoms: C_14  and  O_15
REMARK                            x       y       z     vdW  Elec       q    Type
REMARK                         _______ _______ _______ _____ _____    ______ ____
ROOT
ATOM      1  O   UNL     1       3.122   6.949  18.401  0.00  0.00    +0.000 OA
ATOM      2  C   UNL     1       3.748   6.158  17.687  0.00  0.00    +0.000 C 
ATOM      3  N   UNL     1       3.681   4.776  17.743  0.00  0.00    +0.000 N 
ATOM      4  H   UNL     1       4.443   4.261  17.305  0.00  0.00    +0.000 HD
ENDROOT
BRANCH   3   5
ATOM      5  C   UNL     1       2.817   4.003  18.562  0.00  0.00    +0.000 A 
ATOM      6  C   UNL     1       1.532   3.619  18.171  0.00  0.00    +0.000 A 
ATOM      7  C   UNL     1       0.691   2.927  19.056  0.00  0.00    +0.000 A 
ATOM      8  C   UNL     1       1.131   2.596  20.332  0.00  0.00    +0.000 A 
ATOM      9  C   UNL     1       2.428   2.923  20.702  0.00  0.00    +0.000 A 
ATOM     10  C   UNL     1       3.277   3.605  19.828  0.00  0.00    +0.000 A 
BRANCH   9  11
ATOM     11  O   UNL     1       2.912   2.600  21.939  0.00  0.00    +0.000 OA
ATOM     12  H   UNL     1       2.202   2.175  22.449  0.00  0.00    +0.000 HD
ENDBRANCH   9  11
ENDBRANCH   3   5
BRANCH   2  13
ATOM     13  C   UNL     1       4.679   6.685  16.610  0.00  0.00    +0.000 C 
BRANCH  13  14
ATOM     14  C   UNL     1       6.049   5.974  16.602  0.00  0.00    +0.000 C 
BRANCH  14  15
ATOM     15  P   UNL     1       6.218   4.761  15.244  0.00  0.00    +0.000 P 
ATOM     16  O   UNL     1       7.681   5.156  15.031  0.00  0.00    +0.000 OA
BRANCH  15  17
ATOM     17  O   UNL     1       6.218   3.540  16.332  0.00  0.00    +0.000 OA
ATOM     18  H   UNL     1       7.099   3.329  16.691  0.00  0.00    +0.000 HD
ENDBRANCH  15  17
BRANCH  15  19
ATOM     19  O   UNL     1       6.378   3.614  13.958  0.00  0.00    +0.000 OA
ATOM     20  H   UNL     1       7.310   3.726  13.675  0.00  0.00    +0.000 HD
ENDBRANCH  15  19
ENDBRANCH  14  15
ENDBRANCH  13  14
ENDBRANCH   2  13
TORSDOF 7
ENDMDL
MODEL 9
REMARK VINA RESULT:      -6.4      2.314      2.884
REMARK  Name = 
REMARK  7 active torsions:
REMARK  status: ('A' for Active; 'I' for Inactive)
REMARK    1  A    between atoms: C_2  and  C_3
REMARK    2  A    between atoms: C_3  and  C_4
REMARK    3  A    between atoms: C_4  and  P_5
REMARK    4  A    between atoms: P_5  and  O_7
REMARK    5  A    between atoms: P_5  and  O_8
REMARK    6  A    between atoms: N_9  and  C_10
REMARK    7  A    between atoms: C_14  and  O_15
REMARK                            x       y       z     vdW  Elec       q    Type
REMARK                         _______ _______ _______ _____ _____    ______ ____
ROOT
ATOM      1  O   UNL     1       4.360   6.658  17.922  0.00  0.00    +0.000 OA
ATOM      2  C   UNL     1       5.121   5.863  18.484  0.00  0.00    +0.000 C 
ATOM      3  N   UNL     1       4.745   4.790  19.272  0.00  0.00    +0.000 N 
ATOM      4  H   UNL     1       5.457   4.401  19.889  0.00  0.00    +0.000 HD
ENDROOT
BRANCH   3   5
ATOM      5  C   UNL     1       3.421   4.338  19.514  0.00  0.00    +0.000 A 
ATOM      6  C   UNL     1       2.517   5.021  20.332  0.00  0.00    +0.000 A 
ATOM      7  C   UNL     1       1.250   4.484  20.602  0.00  0.00    +0.000 A 
ATOM      8  C   UNL     1       0.866   3.269  20.045  0.00  0.00    +0.000 A 
ATOM      9  C   UNL     1       1.739   2.619  19.183  0.00  0.00    +0.000 A 
ATOM     10  C   UNL     1       3.000   3.147  18.901  0.00  0.00    +0.000 A 
BRANCH   9  11
ATOM     11  O   UNL     1       1.398   1.433  18.595  0.00  0.00    +0.000 OA
ATOM     12  H   UNL     1       1.254   0.771  19.292  0.00  0.00    +0.000 HD
ENDBRANCH   9  11
ENDBRANCH   3   5
BRANCH   2  13
ATOM     13  C   UNL     1       6.624   6.006  18.316  0.00  0.00    +0.000 C 
BRANCH  13  14
ATOM     14  C   UNL     1       7.039   6.292  16.857  0.00  0.00    +0.000 C 
BRANCH  14  15
ATOM     15  P   UNL     1       6.765   4.867  15.744  0.00  0.00    +0.000 P 
ATOM     16  O   UNL     1       7.599   5.526  14.643  0.00  0.00    +0.000 OA
BRANCH  15  17
ATOM     17  O   UNL     1       7.800   3.968  16.637  0.00  0.00    +0.000 OA
ATOM     18  H   UNL     1       7.873   4.254  17.566  0.00  0.00    +0.000 HD
ENDBRANCH  15  17
BRANCH  15  19
ATOM     19  O   UNL     1       6.506   3.519  14.689  0.00  0.00    +0.000 OA
ATOM     20  H   UNL     1       5.742   3.805  14.147  0.00  0.00    +0.000 HD
ENDBRANCH  15  19
ENDBRANCH  14  15
ENDBRANCH  13  14
ENDBRANCH   2  13
TORSDOF 7
ENDMDL
