MODEL 1
REMARK VINA RESULT:      -7.4      0.000      0.000
REMARK  Name = 
REMARK  1 active torsions:
REMARK  status: ('A' for Active; 'I' for Inactive)
REMARK    1  A    between atoms: C_2  and  C_3
REMARK                            x       y       z     vdW  Elec       q    Type
REMARK                         _______ _______ _______ _____ _____    ______ ____
ROOT
ATOM      1  C   UNL     1       2.933   6.476  19.052  0.00  0.00    +0.000 A 
ATOM      2  C   UNL     1       2.669   7.439  18.093  0.00  0.00    +0.000 A 
ATOM      3  C   UNL     1       1.921   8.484  18.699  0.00  0.00    +0.000 A 
ATOM      4  C   UNL     1       1.412   9.717  18.249  0.00  0.00    +0.000 A 
ATOM      5  C   UNL     1       0.723  10.540  19.147  0.00  0.00    +0.000 A 
ATOM      6  C   UNL     1       0.544  10.155  20.474  0.00  0.00    +0.000 A 
ATOM      7  C   UNL     1       1.031   8.929  20.940  0.00  0.00    +0.000 A 
ATOM      8  C   UNL     1       1.703   8.114  20.024  0.00  0.00    +0.000 A 
ATOM      9  N   UNL     1       2.241   6.859  20.178  0.00  0.00    +0.000 N 
ATOM     10  H   UNL     1       2.179   6.310  21.024  0.00  0.00    +0.000 HD
ENDROOT
BRANCH   1  12
ATOM     11  O   UNL     1       4.813   5.142  19.403  0.00  0.00    +0.000 OA
ATOM     12  C   UNL     1       3.695   5.251  18.905  0.00  0.00    +0.000 C 
ATOM     13  N   UNL     1       3.124   4.209  18.173  0.00  0.00    +0.000 N 
ATOM     14  C   UNL     1       3.918   3.000  17.922  0.00  0.00    +0.000 C 
ATOM     15  C   UNL     1       3.344   1.782  18.673  0.00  0.00    +0.000 C 
ATOM     16  N   UNL     1       1.915   1.563  18.376  0.00  0.00    +0.000 NA
ATOM     17  C   UNL     1       1.152   2.780  18.687  0.00  0.00    +0.000 C 
ATOM     18  C   UNL     1       1.684   4.018  17.942  0.00  0.00    +0.000 C 
ATOM     19  H   UNL     1       1.569   0.795  18.952  0.00  0.00    +0.000 HD
ENDBRANCH   1  12
TORSDOF 1
ENDMDL
MODEL 2
REMARK VINA RESULT:      -7.2      3.414      4.634
REMARK  Name = 
REMARK  1 active torsions:
REMARK  status: ('A' for Active; 'I' for Inactive)
REMARK    1  A    between atoms: C_2  and  C_3
REMARK                            x       y       z     vdW  Elec       q    Type
REMARK                         _______ _______ _______ _____ _____    ______ ____
ROOT
ATOM      1  C   UNL     1       4.671   4.410  18.044  0.00  0.00    +0.000 A 
ATOM      2  C   UNL     1       4.756   5.528  17.232  0.00  0.00    +0.000 A 
ATOM      3  C   UNL     1       5.934   6.245  17.577  0.00  0.00    +0.000 A 
ATOM      4  C   UNL     1       6.556   7.408  17.085  0.00  0.00    +0.000 A 
ATOM      5  C   UNL     1       7.760   7.833  17.659  0.00  0.00    +0.000 A 
ATOM      6  C   UNL     1       8.346   7.115  18.700  0.00  0.00    +0.000 A 
ATOM      7  C   UNL     1       7.739   5.965  19.212  0.00  0.00    +0.000 A 
ATOM      8  C   UNL     1       6.529   5.565  18.637  0.00  0.00    +0.000 A 
ATOM      9  N   UNL     1       5.695   4.520  18.955  0.00  0.00    +0.000 N 
ATOM     10  H   UNL     1       5.843   3.887  19.728  0.00  0.00    +0.000 HD
ENDROOT
BRANCH   1  12
ATOM     11  O   UNL     1       3.897   2.272  17.522  0.00  0.00    +0.000 OA
ATOM     12  C   UNL     1       3.662   3.367  18.028  0.00  0.00    +0.000 C 
ATOM     13  N   UNL     1       2.419   3.652  18.595  0.00  0.00    +0.000 N 
ATOM     14  C   UNL     1       1.351   2.651  18.498  0.00  0.00    +0.000 C 
ATOM     15  C   UNL     1       1.003   2.061  19.879  0.00  0.00    +0.000 C 
ATOM     16  N   UNL     1       0.678   3.107  20.869  0.00  0.00    +0.000 NA
ATOM     17  C   UNL     1       1.794   4.058  20.970  0.00  0.00    +0.000 C 
ATOM     18  C   UNL     1       2.161   4.683  19.611  0.00  0.00    +0.000 C 
ATOM     19  H   UNL     1       0.529   2.669  21.779  0.00  0.00    +0.000 HD
ENDBRANCH   1  12
TORSDOF 1
ENDMDL
MODEL 3
REMARK VINA RESULT:      -7.0      0.666      1.418
REMARK  Name = 
REMARK  1 active torsions:
REMARK  status: ('A' for Active; 'I' for Inactive)
REMARK    1  A    between atoms: C_2  and  C_3
REMARK                            x       y       z     vdW  Elec       q    Type
REMARK                         _______ _______ _______ _____ _____    ______ ____
ROOT
ATOM      1  C   UNL     1       2.935   6.489  19.085  0.00  0.00    +0.000 A 
ATOM      2  C   UNL     1       2.253   6.921  20.210  0.00  0.00    +0.000 A 
ATOM      3  C   UNL     1       1.625   8.160  19.907  0.00  0.00    +0.000 A 
ATOM      4  C   UNL     1       0.784   9.035  20.619  0.00  0.00    +0.000 A 
ATOM      5  C   UNL     1       0.310  10.191  19.987  0.00  0.00    +0.000 A 
ATOM      6  C   UNL     1       0.655  10.475  18.668  0.00  0.00    +0.000 A 
ATOM      7  C   UNL     1       1.499   9.626  17.946  0.00  0.00    +0.000 A 
ATOM      8  C   UNL     1       1.975   8.484  18.599  0.00  0.00    +0.000 A 
ATOM      9  N   UNL     1       2.840   7.508  18.166  0.00  0.00    +0.000 N 
ATOM     10  H   UNL     1       3.307   7.514  17.270  0.00  0.00    +0.000 HD
ENDROOT
BRANCH   1  12
ATOM     11  O   UNL     1       4.807   5.135  19.407  0.00  0.00    +0.000 OA
ATOM     12  C   UNL     1       3.689   5.262  18.912  0.00  0.00    +0.000 C 
ATOM     13  N   UNL     1       3.110   4.239  18.161  0.00  0.00    +0.000 N 
ATOM     14  C   UNL     1       3.896   3.030  17.885  0.00  0.00    +0.000 C 
ATOM     15  C   UNL     1       3.314   1.801  18.611  0.00  0.00    +0.000 C 
ATOM     16  N   UNL     1       1.883   1.598  18.311  0.00  0.00    +0.000 NA
ATOM     17  C   UNL     1       1.129   2.813  18.648  0.00  0.00    +0.000 C 
ATOM     18  C   UNL     1       1.669   4.062  17.927  0.00  0.00    +0.000 C 
ATOM     19  H   UNL     1       1.533   0.821  18.872  0.00  0.00    +0.000 HD
ENDBRANCH   1  12
TORSDOF 1
ENDMDL
MODEL 4
REMARK VINA RESULT:      -7.0      3.306      4.836
REMARK  Name = 
REMARK  1 active torsions:
REMARK  status: ('A' for Active; 'I' for Inactive)
REMARK    1  A    between atoms: C_2  and  C_3
REMARK                            x       y       z     vdW  Elec       q    Type
REMARK                         _______ _______ _______ _____ _____    ______ ____
ROOT
ATOM      1  C   UNL     1       4.785   4.382  18.005  0.00  0.00    +0.000 A 
ATOM      2  C   UNL     1       5.874   4.384  18.860  0.00  0.00    +0.000 A 
ATOM      3  C   UNL     1       6.661   5.535  18.583  0.00  0.00    +0.000 A 
ATOM      4  C   UNL     1       7.833   6.080  19.139  0.00  0.00    +0.000 A 
ATOM      5  C   UNL     1       8.339   7.280  18.624  0.00  0.00    +0.000 A 
ATOM      6  C   UNL     1       7.691   7.936  17.579  0.00  0.00    +0.000 A 
ATOM      7  C   UNL     1       6.533   7.406  17.003  0.00  0.00    +0.000 A 
ATOM      8  C   UNL     1       6.052   6.199  17.520  0.00  0.00    +0.000 A 
ATOM      9  N   UNL     1       4.981   5.430  17.134  0.00  0.00    +0.000 N 
ATOM     10  H   UNL     1       4.385   5.635  16.344  0.00  0.00    +0.000 HD
ENDROOT
BRANCH   1  12
ATOM     11  O   UNL     1       3.863   2.307  17.473  0.00  0.00    +0.000 OA
ATOM     12  C   UNL     1       3.694   3.428  17.947  0.00  0.00    +0.000 C 
ATOM     13  N   UNL     1       2.449   3.827  18.435  0.00  0.00    +0.000 N 
ATOM     14  C   UNL     1       1.307   2.917  18.292  0.00  0.00    +0.000 C 
ATOM     15  C   UNL     1       0.832   2.388  19.659  0.00  0.00    +0.000 C 
ATOM     16  N   UNL     1       0.541   3.477  20.612  0.00  0.00    +0.000 NA
ATOM     17  C   UNL     1       1.726   4.334  20.763  0.00  0.00    +0.000 C 
ATOM     18  C   UNL     1       2.221   4.898  19.418  0.00  0.00    +0.000 C 
ATOM     19  H   UNL     1       0.304   3.073  21.518  0.00  0.00    +0.000 HD
ENDBRANCH   1  12
TORSDOF 1
ENDMDL
MODEL 5
REMARK VINA RESULT:      -6.6      3.928      6.553
REMARK  Name = 
REMARK  1 active torsions:
REMARK  status: ('A' for Active; 'I' for Inactive)
REMARK    1  A    between atoms: C_2  and  C_3
REMARK                            x       y       z     vdW  Elec       q    Type
REMARK                         _______ _______ _______ _____ _____    ______ ____
ROOT
ATOM      1  C   UNL     1       6.125   4.304  16.656  0.00  0.00    +0.000 A 
ATOM      2  C   UNL     1       7.014   5.199  16.085  0.00  0.00    +0.000 A 
ATOM      3  C   UNL     1       7.087   4.932  14.691  0.00  0.00    +0.000 A 
ATOM      4  C   UNL     1       7.773   5.521  13.613  0.00  0.00    +0.000 A 
ATOM      5  C   UNL     1       7.591   5.005  12.324  0.00  0.00    +0.000 A 
ATOM      6  C   UNL     1       6.738   3.926  12.102  0.00  0.00    +0.000 A 
ATOM      7  C   UNL     1       6.057   3.317  13.161  0.00  0.00    +0.000 A 
ATOM      8  C   UNL     1       6.264   3.836  14.442  0.00  0.00    +0.000 A 
ATOM      9  N   UNL     1       5.775   3.424  15.658  0.00  0.00    +0.000 N 
ATOM     10  H   UNL     1       5.194   2.609  15.794  0.00  0.00    +0.000 HD
ENDROOT
BRANCH   1  12
ATOM     11  O   UNL     1       6.463   4.551  18.951  0.00  0.00    +0.000 OA
ATOM     12  C   UNL     1       5.704   4.222  18.042  0.00  0.00    +0.000 C 
ATOM     13  N   UNL     1       4.418   3.749  18.308  0.00  0.00    +0.000 N 
ATOM     14  C   UNL     1       4.008   3.558  19.704  0.00  0.00    +0.000 C 
ATOM     15  C   UNL     1       2.909   4.560  20.110  0.00  0.00    +0.000 C 
ATOM     16  N   UNL     1       1.751   4.523  19.195  0.00  0.00    +0.000 NA
ATOM     17  C   UNL     1       2.201   4.767  17.817  0.00  0.00    +0.000 C 
ATOM     18  C   UNL     1       3.289   3.774  17.367  0.00  0.00    +0.000 C 
ATOM     19  H   UNL     1       1.090   5.252  19.465  0.00  0.00    +0.000 HD
ENDBRANCH   1  12
TORSDOF 1
ENDMDL
MODEL 6
REMARK VINA RESULT:      -6.6      3.399      5.470
REMARK  Name = 
REMARK  1 active torsions:
REMARK  status: ('A' for Active; 'I' for Inactive)
REMARK    1  A    between atoms: C_2  and  C_3
REMARK                            x       y       z     vdW  Elec       q    Type
REMARK                         _______ _______ _______ _____ _____    ______ ____
ROOT
ATOM      1  C   UNL     1       3.750   5.417  18.043  0.00  0.00    +0.000 A 
ATOM      2  C   UNL     1       3.275   4.257  17.454  0.00  0.00    +0.000 A 
ATOM      3  C   UNL     1       2.332   3.660  18.334  0.00  0.00    +0.000 A 
ATOM      4  C   UNL     1       1.509   2.520  18.266  0.00  0.00    +0.000 A 
ATOM      5  C   UNL     1       0.653   2.231  19.336  0.00  0.00    +0.000 A 
ATOM      6  C   UNL     1       0.604   3.061  20.454  0.00  0.00    +0.000 A 
ATOM      7  C   UNL     1       1.421   4.192  20.548  0.00  0.00    +0.000 A 
ATOM      8  C   UNL     1       2.281   4.455  19.477  0.00  0.00    +0.000 A 
ATOM      9  N   UNL     1       3.215   5.449  19.310  0.00  0.00    +0.000 N 
ATOM     10  H   UNL     1       3.443   6.142  20.009  0.00  0.00    +0.000 HD
ENDROOT
BRANCH   1  12
ATOM     11  O   UNL     1       4.309   7.408  16.966  0.00  0.00    +0.000 OA
ATOM     12  C   UNL     1       4.697   6.372  17.501  0.00  0.00    +0.000 C 
ATOM     13  N   UNL     1       6.057   6.073  17.599  0.00  0.00    +0.000 N 
ATOM     14  C   UNL     1       7.028   6.973  16.966  0.00  0.00    +0.000 C 
ATOM     15  C   UNL     1       7.885   7.707  18.016  0.00  0.00    +0.000 C 
ATOM     16  N   UNL     1       8.541   6.775  18.955  0.00  0.00    +0.000 NA
ATOM     17  C   UNL     1       7.528   5.928  19.601  0.00  0.00    +0.000 C 
ATOM     18  C   UNL     1       6.661   5.163  18.583  0.00  0.00    +0.000 C 
ATOM     19  H   UNL     1       9.032   7.313  19.669  0.00  0.00    +0.000 HD
ENDBRANCH   1  12
TORSDOF 1
ENDMDL
MODEL 7
REMARK VINA RESULT:      -6.6      3.047      5.579
REMARK  Name = 
REMARK  1 active torsions:
REMARK  status: ('A' for Active; 'I' for Inactive)
REMARK    1  A    between atoms: C_2  and  C_3
REMARK                            x       y       z     vdW  Elec       q    Type
REMARK                         _______ _______ _______ _____ _____    ______ ____
ROOT
ATOM      1  C   UNL     1       3.654   5.532  17.988  0.00  0.00    +0.000 A 
ATOM      2  C   UNL     1       2.831   5.716  19.086  0.00  0.00    +0.000 A 
ATOM      3  C   UNL     1       2.040   4.548  19.255  0.00  0.00    +0.000 A 
ATOM      4  C   UNL     1       1.076   4.142  20.197  0.00  0.00    +0.000 A 
ATOM      5  C   UNL     1       0.495   2.874  20.077  0.00  0.00    +0.000 A 
ATOM      6  C   UNL     1       0.865   2.015  19.044  0.00  0.00    +0.000 A 
ATOM      7  C   UNL     1       1.811   2.403  18.090  0.00  0.00    +0.000 A 
ATOM      8  C   UNL     1       2.369   3.679  18.218  0.00  0.00    +0.000 A 
ATOM      9  N   UNL     1       3.272   4.338  17.420  0.00  0.00    +0.000 N 
ATOM     10  H   UNL     1       3.644   3.973  16.554  0.00  0.00    +0.000 HD
ENDROOT
BRANCH   1  12
ATOM     11  O   UNL     1       4.330   7.488  16.912  0.00  0.00    +0.000 OA
ATOM     12  C   UNL     1       4.657   6.437  17.459  0.00  0.00    +0.000 C 
ATOM     13  N   UNL     1       5.998   6.071  17.582  0.00  0.00    +0.000 N 
ATOM     14  C   UNL     1       7.023   6.919  16.962  0.00  0.00    +0.000 C 
ATOM     15  C   UNL     1       7.897   7.615  18.024  0.00  0.00    +0.000 C 
ATOM     16  N   UNL     1       8.490   6.657  18.978  0.00  0.00    +0.000 NA
ATOM     17  C   UNL     1       7.426   5.864  19.610  0.00  0.00    +0.000 C 
ATOM     18  C   UNL     1       6.540   5.138  18.580  0.00  0.00    +0.000 C 
ATOM     19  H   UNL     1       8.994   7.173  19.698  0.00  0.00    +0.000 HD
ENDBRANCH   1  12
TORSDOF 1
ENDMDL
MODEL 8
REMARK VINA RESULT:      -6.4      4.119      6.744
REMARK  Name = 
REMARK  1 active torsions:
REMARK  status: ('A' for Active; 'I' for Inactive)
REMARK    1  A    between atoms: C_2  and  C_3
REMARK                            x       y       z     vdW  Elec       q    Type
REMARK                         _______ _______ _______ _____ _____    ______ ____
ROOT
ATOM      1  C   UNL     1       6.180   4.390  16.353  0.00  0.00    +0.000 A 
ATOM      2  C   UNL     1       5.656   3.579  15.361  0.00  0.00    +0.000 A 
ATOM      3  C   UNL     1       6.256   3.936  14.123  0.00  0.00    +0.000 A 
ATOM      4  C   UNL     1       6.156   3.450  12.806  0.00  0.00    +0.000 A 
ATOM      5  C   UNL     1       6.935   4.036  11.801  0.00  0.00    +0.000 A 
ATOM      6  C   UNL     1       7.807   5.083  12.094  0.00  0.00    +0.000 A 
ATOM      7  C   UNL     1       7.913   5.590  13.393  0.00  0.00    +0.000 A 
ATOM      8  C   UNL     1       7.115   5.002  14.380  0.00  0.00    +0.000 A 
ATOM      9  N   UNL     1       6.975   5.312  15.711  0.00  0.00    +0.000 N 
ATOM     10  H   UNL     1       7.434   6.087  16.169  0.00  0.00    +0.000 HD
ENDROOT
BRANCH   1  12
ATOM     11  O   UNL     1       6.761   4.656  18.596  0.00  0.00    +0.000 OA
ATOM     12  C   UNL     1       5.895   4.364  17.775  0.00  0.00    +0.000 C 
ATOM     13  N   UNL     1       4.612   3.988  18.177  0.00  0.00    +0.000 N 
ATOM     14  C   UNL     1       4.331   3.853  19.611  0.00  0.00    +0.000 C 
ATOM     15  C   UNL     1       3.348   4.937  20.097  0.00  0.00    +0.000 C 
ATOM     16  N   UNL     1       2.105   4.964  19.301  0.00  0.00    +0.000 NA
ATOM     17  C   UNL     1       2.431   5.149  17.880  0.00  0.00    +0.000 C 
ATOM     18  C   UNL     1       3.399   4.074  17.351  0.00  0.00    +0.000 C 
ATOM     19  H   UNL     1       1.526   5.743  19.615  0.00  0.00    +0.000 HD
ENDBRANCH   1  12
TORSDOF 1
ENDMDL
MODEL 9
REMARK VINA RESULT:      -6.3      3.568      5.456
REMARK  Name = 
REMARK  1 active torsions:
REMARK  status: ('A' for Active; 'I' for Inactive)
REMARK    1  A    between atoms: C_2  and  C_3
REMARK                            x       y       z     vdW  Elec       q    Type
REMARK                         _______ _______ _______ _____ _____    ______ ____
ROOT
ATOM      1  C   UNL     1       3.310   4.524  17.427  0.00  0.00    +0.000 A 
ATOM      2  C   UNL     1       4.064   5.684  17.387  0.00  0.00    +0.000 A 
ATOM      3  C   UNL     1       5.144   5.487  16.483  0.00  0.00    +0.000 A 
ATOM      4  C   UNL     1       6.191   6.301  16.012  0.00  0.00    +0.000 A 
ATOM      5  C   UNL     1       7.092   5.779  15.076  0.00  0.00    +0.000 A 
ATOM      6  C   UNL     1       6.958   4.474  14.607  0.00  0.00    +0.000 A 
ATOM      7  C   UNL     1       5.932   3.644  15.072  0.00  0.00    +0.000 A 
ATOM      8  C   UNL     1       5.051   4.178  16.018  0.00  0.00    +0.000 A 
ATOM      9  N   UNL     1       3.995   3.596  16.677  0.00  0.00    +0.000 N 
ATOM     10  H   UNL     1       3.727   2.627  16.583  0.00  0.00    +0.000 HD
ENDROOT
BRANCH   1  12
ATOM     11  O   UNL     1       1.027   4.080  17.602  0.00  0.00    +0.000 OA
ATOM     12  C   UNL     1       2.095   4.272  18.178  0.00  0.00    +0.000 C 
ATOM     13  N   UNL     1       2.177   4.264  19.572  0.00  0.00    +0.000 N 
ATOM     14  C   UNL     1       0.944   4.116  20.353  0.00  0.00    +0.000 C 
ATOM     15  C   UNL     1       0.908   2.768  21.100  0.00  0.00    +0.000 C 
ATOM     16  N   UNL     1       2.108   2.557  21.935  0.00  0.00    +0.000 NA
ATOM     17  C   UNL     1       3.315   2.666  21.104  0.00  0.00    +0.000 C 
ATOM     18  C   UNL     1       3.396   4.009  20.353  0.00  0.00    +0.000 C 
ATOM     19  H   UNL     1       2.068   1.625  22.346  0.00  0.00    +0.000 HD
ENDBRANCH   1  12
TORSDOF 1
ENDMDL
