MODEL 1
REMARK VINA RESULT:      -6.4      0.000      0.000
REMARK  Name = 
REMARK  20 active torsions:
REMARK  status: ('A' for Active; 'I' for Inactive)
REMARK    1  A    between atoms: C_1  and  C_2
REMARK    2  A    between atoms: C_2  and  C_3
REMARK    3  A    between atoms: C_3  and  C_4
REMARK    4  A    between atoms: C_4  and  C_5
REMARK    5  A    between atoms: C_5  and  C_6
REMARK    6  A    between atoms: C_6  and  O_7
REMARK    7  A    between atoms: C_6  and  C_8
REMARK    8  A    between atoms: C_9  and  C_10
REMARK    9  A    between atoms: C_11  and  C_12
REMARK   10  A    between atoms: C_12  and  O_13
REMARK   11  A    between atoms: C_12  and  C_14
REMARK   12  A    between atoms: C_14  and  O_15
REMARK   13  A    between atoms: C_14  and  C_16
REMARK   14  A    between atoms: C_16  and  C_17
REMARK   15  A    between atoms: C_17  and  C_18
REMARK   16  A    between atoms: C_18  and  C_19
REMARK   17  A    between atoms: C_19  and  O_21
REMARK   18  A    between atoms: O_21  and  C_22
REMARK   19  A    between atoms: C_24  and  C_25
REMARK   20  A    between atoms: N_26  and  C_27
REMARK                            x       y       z     vdW  Elec       q    Type
REMARK                         _______ _______ _______ _____ _____    ______ ____
ROOT
ATOM      1  C   UNL     1       6.026   5.955  17.403  0.00  0.00    +0.000 A 
ATOM      2  C   UNL     1       5.687   4.738  17.957  0.00  0.00    +0.000 A 
ATOM      3  N   UNL     1       6.462   4.423  19.030  0.00  0.00    +0.000 NA
ATOM      4  C   UNL     1       7.316   5.416  19.147  0.00  0.00    +0.000 A 
ATOM      5  C   UNL     1       8.347   5.520  20.208  0.00  0.00    +0.000 C 
ATOM      6  N   UNL     1       7.108   6.361  18.165  0.00  0.00    +0.000 N 
ATOM      7  C   UNL     1       7.876   7.571  17.990  0.00  0.00    +0.000 C 
ENDROOT
BRANCH   2   8
ATOM      8  C   UNL     1       4.616   3.882  17.609  0.00  0.00    +0.000 C 
ATOM      9  C   UNL     1       3.847   3.237  18.503  0.00  0.00    +0.000 C 
BRANCH   9  10
ATOM     10  C   UNL     1       2.641   2.389  18.188  0.00  0.00    +0.000 C 
BRANCH  10  11
ATOM     11  O   UNL     1       2.861   1.076  18.686  0.00  0.00    +0.000 OA
ATOM     12  H   UNL     1       3.608   0.697  18.191  0.00  0.00    +0.000 HD
ENDBRANCH  10  11
BRANCH  10  13
ATOM     13  C   UNL     1       1.326   3.014  18.741  0.00  0.00    +0.000 C 
BRANCH  13  14
ATOM     14  O   UNL     1       0.213   2.141  18.489  0.00  0.00    +0.000 OA
ATOM     15  H   UNL     1      -0.545   2.467  19.005  0.00  0.00    +0.000 HD
ENDBRANCH  13  14
BRANCH  13  16
ATOM     16  C   UNL     1       1.326   3.312  20.254  0.00  0.00    +0.000 C 
BRANCH  16  17
ATOM     17  C   UNL     1       1.345   4.798  20.603  0.00  0.00    +0.000 C 
BRANCH  17  18
ATOM     18  C   UNL     1       1.894   5.673  19.481  0.00  0.00    +0.000 C 
BRANCH  18  19
ATOM     19  C   UNL     1       1.919   7.115  19.938  0.00  0.00    +0.000 C 
ATOM     20  O   UNL     1       1.501   7.510  21.018  0.00  0.00    +0.000 OA
BRANCH  19  21
ATOM     21  O   UNL     1       2.488   7.903  18.985  0.00  0.00    +0.000 OA
ATOM     22  C   UNL     1       1.624   8.934  18.505  0.00  0.00    +0.000 C 
ENDBRANCH  19  21
ENDBRANCH  18  19
ENDBRANCH  17  18
ENDBRANCH  16  17
ENDBRANCH  13  16
ENDBRANCH  10  13
ENDBRANCH   9  10
ENDBRANCH   2   8
BRANCH   1  23
ATOM     23  C   UNL     1       5.377   6.714  16.290  0.00  0.00    +0.000 C 
BRANCH  23  24
ATOM     24  O   UNL     1       4.091   7.134  16.733  0.00  0.00    +0.000 OA
ATOM     25  H   UNL     1       4.207   7.692  17.518  0.00  0.00    +0.000 HD
ENDBRANCH  23  24
BRANCH  23  26
ATOM     26  C   UNL     1       5.294   5.862  15.011  0.00  0.00    +0.000 C 
BRANCH  26  27
ATOM     27  C   UNL     1       6.588   5.091  14.730  0.00  0.00    +0.000 C 
BRANCH  27  28
ATOM     28  C   UNL     1       6.288   3.741  14.076  0.00  0.00    +0.000 C 
BRANCH  28  30
ATOM     29  C   UNL     1       5.231   3.025  11.904  0.00  0.00    +0.000 C 
ATOM     30  C   UNL     1       6.341   3.838  12.552  0.00  0.00    +0.000 C 
ENDBRANCH  28  30
ENDBRANCH  27  28
ENDBRANCH  26  27
ENDBRANCH  23  26
ENDBRANCH   1  23
TORSDOF 16
ENDMDL
MODEL 2
REMARK VINA RESULT:      -6.2      2.804      7.002
REMARK  Name = 
REMARK  20 active torsions:
REMARK  status: ('A' for Active; 'I' for Inactive)
REMARK    1  A    between atoms: C_1  and  C_2
REMARK    2  A    between atoms: C_2  and  C_3
REMARK    3  A    between atoms: C_3  and  C_4
REMARK    4  A    between atoms: C_4  and  C_5
REMARK    5  A    between atoms: C_5  and  C_6
REMARK    6  A    between atoms: C_6  and  O_7
REMARK    7  A    between atoms: C_6  and  C_8
REMARK    8  A    between atoms: C_9  and  C_10
REMARK    9  A    between atoms: C_11  and  C_12
REMARK   10  A    between atoms: C_12  and  O_13
REMARK   11  A    between atoms: C_12  and  C_14
REMARK   12  A    between atoms: C_14  and  O_15
REMARK   13  A    between atoms: C_14  and  C_16
REMARK   14  A    between atoms: C_16  and  C_17
REMARK   15  A    between atoms: C_17  and  C_18
REMARK   16  A    between atoms: C_18  and  C_19
REMARK   17  A    between atoms: C_19  and  O_21
REMARK   18  A    between atoms: O_21  and  C_22
REMARK   19  A    between atoms: C_24  and  C_25
REMARK   20  A    between atoms: N_26  and  C_27
REMARK                            x       y       z     vdW  Elec       q    Type
REMARK                         _______ _______ _______ _____ _____    ______ ____
ROOT
ATOM      1  C   UNL     1       2.041   7.185  19.913  0.00  0.00    +0.000 A 
ATOM      2  C   UNL     1       2.299   7.539  18.605  0.00  0.00    +0.000 A 
ATOM      3  N   UNL     1       1.911   8.814  18.328  0.00  0.00    +0.000 NA
ATOM      4  C   UNL     1       1.377   9.266  19.442  0.00  0.00    +0.000 A 
ATOM      5  C   UNL     1       0.836  10.635  19.621  0.00  0.00    +0.000 C 
ATOM      6  N   UNL     1       1.410   8.303  20.428  0.00  0.00    +0.000 N 
ATOM      7  C   UNL     1       0.894   8.458  21.767  0.00  0.00    +0.000 C 
ENDROOT
BRANCH   2   8
ATOM      8  C   UNL     1       2.977   6.797  17.610  0.00  0.00    +0.000 C 
ATOM      9  C   UNL     1       4.245   7.029  17.230  0.00  0.00    +0.000 C 
BRANCH   9  10
ATOM     10  C   UNL     1       5.039   6.212  16.244  0.00  0.00    +0.000 C 
BRANCH  10  11
ATOM     11  O   UNL     1       5.272   6.996  15.081  0.00  0.00    +0.000 OA
ATOM     12  H   UNL     1       5.312   6.388  14.322  0.00  0.00    +0.000 HD
ENDBRANCH  10  11
BRANCH  10  13
ATOM     13  C   UNL     1       6.364   5.673  16.862  0.00  0.00    +0.000 C 
BRANCH  13  14
ATOM     14  O   UNL     1       6.174   5.352  18.250  0.00  0.00    +0.000 OA
ATOM     15  H   UNL     1       5.867   4.429  18.304  0.00  0.00    +0.000 HD
ENDBRANCH  13  14
BRANCH  13  16
ATOM     16  C   UNL     1       6.939   4.412  16.186  0.00  0.00    +0.000 C 
BRANCH  16  17
ATOM     17  C   UNL     1       6.136   3.919  14.986  0.00  0.00    +0.000 C 
BRANCH  17  18
ATOM     18  C   UNL     1       6.749   4.316  13.647  0.00  0.00    +0.000 C 
BRANCH  18  19
ATOM     19  C   UNL     1       6.136   3.478  12.547  0.00  0.00    +0.000 C 
ATOM     20  O   UNL     1       6.766   2.742  11.800  0.00  0.00    +0.000 OA
BRANCH  19  21
ATOM     21  O   UNL     1       4.785   3.647  12.522  0.00  0.00    +0.000 OA
ATOM     22  C   UNL     1       4.171   3.152  11.331  0.00  0.00    +0.000 C 
ENDBRANCH  19  21
ENDBRANCH  18  19
ENDBRANCH  17  18
ENDBRANCH  16  17
ENDBRANCH  13  16
ENDBRANCH  10  13
ENDBRANCH   9  10
ENDBRANCH   2   8
BRANCH   1  23
ATOM     23  C   UNL     1       2.391   5.932  20.651  0.00  0.00    +0.000 C 
BRANCH  23  24
ATOM     24  O   UNL     1       3.652   5.476  20.173  0.00  0.00    +0.000 OA
ATOM     25  H   UNL     1       4.077   6.203  19.693  0.00  0.00    +0.000 HD
ENDBRANCH  23  24
BRANCH  23  26
ATOM     26  C   UNL     1       1.294   4.865  20.487  0.00  0.00    +0.000 C 
BRANCH  26  27
ATOM     27  C   UNL     1       1.441   4.062  19.190  0.00  0.00    +0.000 C 
BRANCH  27  28
ATOM     28  C   UNL     1       1.938   2.644  19.479  0.00  0.00    +0.000 C 
BRANCH  28  30
ATOM     29  C   UNL     1       3.690   2.911  17.689  0.00  0.00    +0.000 C 
ATOM     30  C   UNL     1       2.590   2.022  18.245  0.00  0.00    +0.000 C 
ENDBRANCH  28  30
ENDBRANCH  27  28
ENDBRANCH  26  27
ENDBRANCH  23  26
ENDBRANCH   1  23
TORSDOF 16
ENDMDL
MODEL 3
REMARK VINA RESULT:      -6.2      4.798      8.541
REMARK  Name = 
REMARK  20 active torsions:
REMARK  status: ('A' for Active; 'I' for Inactive)
REMARK    1  A    between atoms: C_1  and  C_2
REMARK    2  A    between atoms: C_2  and  C_3
REMARK    3  A    between atoms: C_3  and  C_4
REMARK    4  A    between atoms: C_4  and  C_5
REMARK    5  A    between atoms: C_5  and  C_6
REMARK    6  A    between atoms: C_6  and  O_7
REMARK    7  A    between atoms: C_6  and  C_8
REMARK    8  A    between atoms: C_9  and  C_10
REMARK    9  A    between atoms: C_11  and  C_12
REMARK   10  A    between atoms: C_12  and  O_13
REMARK   11  A    between atoms: C_12  and  C_14
REMARK   12  A    between atoms: C_14  and  O_15
REMARK   13  A    between atoms: C_14  and  C_16
REMARK   14  A    between atoms: C_16  and  C_17
REMARK   15  A    between atoms: C_17  and  C_18
REMARK   16  A    between atoms: C_18  and  C_19
REMARK   17  A    between atoms: C_19  and  O_21
REMARK   18  A    between atoms: O_21  and  C_22
REMARK   19  A    between atoms: C_24  and  C_25
REMARK   20  A    between atoms: N_26  and  C_27
REMARK                            x       y       z     vdW  Elec       q    Type
REMARK                         _______ _______ _______ _____ _____    ______ ____
ROOT
ATOM      1  C   UNL     1       6.155   5.528  17.563  0.00  0.00    +0.000 A 
ATOM      2  C   UNL     1       7.219   6.341  17.230  0.00  0.00    +0.000 A 
ATOM      3  N   UNL     1       7.620   6.167  15.942  0.00  0.00    +0.000 NA
ATOM      4  C   UNL     1       6.841   5.225  15.457  0.00  0.00    +0.000 A 
ATOM      5  C   UNL     1       6.895   4.721  14.064  0.00  0.00    +0.000 C 
ATOM      6  N   UNL     1       5.949   4.787  16.413  0.00  0.00    +0.000 N 
ATOM      7  C   UNL     1       4.961   3.751  16.224  0.00  0.00    +0.000 C 
ENDROOT
BRANCH   2   8
ATOM      8  C   UNL     1       7.833   7.348  18.011  0.00  0.00    +0.000 C 
ATOM      9  C   UNL     1       7.868   8.648  17.670  0.00  0.00    +0.000 C 
BRANCH   9  10
ATOM     10  C   UNL     1       8.427   9.769  18.507  0.00  0.00    +0.000 C 
BRANCH  10  11
ATOM     11  O   UNL     1       9.300   9.220  19.486  0.00  0.00    +0.000 OA
ATOM     12  H   UNL     1       8.831   8.484  19.915  0.00  0.00    +0.000 HD
ENDBRANCH  10  11
BRANCH  10  13
ATOM     13  C   UNL     1       9.130  10.854  17.637  0.00  0.00    +0.000 C 
BRANCH  13  14
ATOM     14  O   UNL     1       8.295  12.017  17.516  0.00  0.00    +0.000 OA
ATOM     15  H   UNL     1       8.371  12.526  18.342  0.00  0.00    +0.000 HD
ENDBRANCH  13  14
BRANCH  13  16
ATOM     16  C   UNL     1      10.495  11.338  18.167  0.00  0.00    +0.000 C 
BRANCH  16  17
ATOM     17  C   UNL     1      11.022  12.601  17.492  0.00  0.00    +0.000 C 
BRANCH  17  18
ATOM     18  C   UNL     1      11.348  13.719  18.476  0.00  0.00    +0.000 C 
BRANCH  18  19
ATOM     19  C   UNL     1      10.334  14.831  18.324  0.00  0.00    +0.000 C 
ATOM     20  O   UNL     1       9.124  14.663  18.240  0.00  0.00    +0.000 OA
BRANCH  19  21
ATOM     21  O   UNL     1      10.957  16.041  18.314  0.00  0.00    +0.000 OA
ATOM     22  C   UNL     1      11.708  16.286  17.122  0.00  0.00    +0.000 C 
ENDBRANCH  19  21
ENDBRANCH  18  19
ENDBRANCH  17  18
ENDBRANCH  16  17
ENDBRANCH  13  16
ENDBRANCH  10  13
ENDBRANCH   9  10
ENDBRANCH   2   8
BRANCH   1  23
ATOM     23  C   UNL     1       5.354   5.470  18.824  0.00  0.00    +0.000 C 
BRANCH  23  24
ATOM     24  O   UNL     1       5.620   4.223  19.459  0.00  0.00    +0.000 OA
ATOM     25  H   UNL     1       4.911   3.605  19.225  0.00  0.00    +0.000 HD
ENDBRANCH  23  24
BRANCH  23  26
ATOM     26  C   UNL     1       3.854   5.661  18.540  0.00  0.00    +0.000 C 
BRANCH  26  27
ATOM     27  C   UNL     1       3.552   6.982  17.825  0.00  0.00    +0.000 C 
BRANCH  27  28
ATOM     28  C   UNL     1       2.463   7.765  18.561  0.00  0.00    +0.000 C 
BRANCH  28  30
ATOM     29  C   UNL     1       0.861   9.706  18.430  0.00  0.00    +0.000 C 
ATOM     30  C   UNL     1       1.848   8.839  17.664  0.00  0.00    +0.000 C 
ENDBRANCH  28  30
ENDBRANCH  27  28
ENDBRANCH  26  27
ENDBRANCH  23  26
ENDBRANCH   1  23
TORSDOF 16
ENDMDL
MODEL 4
REMARK VINA RESULT:      -6.1      0.843      1.103
REMARK  Name = 
REMARK  20 active torsions:
REMARK  status: ('A' for Active; 'I' for Inactive)
REMARK    1  A    between atoms: C_1  and  C_2
REMARK    2  A    between atoms: C_2  and  C_3
REMARK    3  A    between atoms: C_3  and  C_4
REMARK    4  A    between atoms: C_4  and  C_5
REMARK    5  A    between atoms: C_5  and  C_6
REMARK    6  A    between atoms: C_6  and  O_7
REMARK    7  A    between atoms: C_6  and  C_8
REMARK    8  A    between atoms: C_9  and  C_10
REMARK    9  A    between atoms: C_11  and  C_12
REMARK   10  A    between atoms: C_12  and  O_13
REMARK   11  A    between atoms: C_12  and  C_14
REMARK   12  A    between atoms: C_14  and  O_15
REMARK   13  A    between atoms: C_14  and  C_16
REMARK   14  A    between atoms: C_16  and  C_17
REMARK   15  A    between atoms: C_17  and  C_18
REMARK   16  A    between atoms: C_18  and  C_19
REMARK   17  A    between atoms: C_19  and  O_21
REMARK   18  A    between atoms: O_21  and  C_22
REMARK   19  A    between atoms: C_24  and  C_25
REMARK   20  A    between atoms: N_26  and  C_27
REMARK                            x       y       z     vdW  Elec       q    Type
REMARK                         _______ _______ _______ _____ _____    ______ ____
ROOT
ATOM      1  C   UNL     1       6.041   5.994  17.566  0.00  0.00    +0.000 A 
ATOM      2  C   UNL     1       5.683   4.830  18.213  0.00  0.00    +0.000 A 
ATOM      3  N   UNL     1       6.487   4.562  19.278  0.00  0.00    +0.000 NA
ATOM      4  C   UNL     1       7.376   5.531  19.297  0.00  0.00    +0.000 A 
ATOM      5  C   UNL     1       8.449   5.670  20.311  0.00  0.00    +0.000 C 
ATOM      6  N   UNL     1       7.162   6.414  18.260  0.00  0.00    +0.000 N 
ATOM      7  C   UNL     1       7.961   7.581  17.975  0.00  0.00    +0.000 C 
ENDROOT
BRANCH   2   8
ATOM      8  C   UNL     1       4.573   3.990  17.963  0.00  0.00    +0.000 C 
ATOM      9  C   UNL     1       4.484   2.715  18.379  0.00  0.00    +0.000 C 
BRANCH   9  10
ATOM     10  C   UNL     1       3.290   1.810  18.218  0.00  0.00    +0.000 C 
BRANCH  10  11
ATOM     11  O   UNL     1       3.626   0.516  18.701  0.00  0.00    +0.000 OA
ATOM     12  H   UNL     1       2.837  -0.046  18.605  0.00  0.00    +0.000 HD
ENDBRANCH  10  11
BRANCH  10  13
ATOM     13  C   UNL     1       2.022   2.385  18.916  0.00  0.00    +0.000 C 
BRANCH  13  14
ATOM     14  O   UNL     1       0.890   1.532  18.680  0.00  0.00    +0.000 OA
ATOM     15  H   UNL     1       0.210   1.747  19.342  0.00  0.00    +0.000 HD
ENDBRANCH  13  14
BRANCH  13  16
ATOM     16  C   UNL     1       2.136   2.563  20.443  0.00  0.00    +0.000 C 
BRANCH  16  17
ATOM     17  C   UNL     1       2.345   4.005  20.896  0.00  0.00    +0.000 C 
BRANCH  17  18
ATOM     18  C   UNL     1       1.315   4.972  20.320  0.00  0.00    +0.000 C 
BRANCH  18  19
ATOM     19  C   UNL     1       1.965   5.809  19.240  0.00  0.00    +0.000 C 
ATOM     20  O   UNL     1       1.864   5.596  18.039  0.00  0.00    +0.000 OA
BRANCH  19  21
ATOM     21  O   UNL     1       2.660   6.840  19.794  0.00  0.00    +0.000 OA
ATOM     22  C   UNL     1       1.824   7.869  20.329  0.00  0.00    +0.000 C 
ENDBRANCH  19  21
ENDBRANCH  18  19
ENDBRANCH  17  18
ENDBRANCH  16  17
ENDBRANCH  13  16
ENDBRANCH  10  13
ENDBRANCH   9  10
ENDBRANCH   2   8
BRANCH   1  23
ATOM     23  C   UNL     1       5.375   6.698  16.427  0.00  0.00    +0.000 C 
BRANCH  23  24
ATOM     24  O   UNL     1       4.055   7.045  16.832  0.00  0.00    +0.000 OA
ATOM     25  H   UNL     1       3.490   6.264  16.729  0.00  0.00    +0.000 HD
ENDBRANCH  23  24
BRANCH  23  26
ATOM     26  C   UNL     1       5.376   5.826  15.158  0.00  0.00    +0.000 C 
BRANCH  26  27
ATOM     27  C   UNL     1       6.696   5.074  14.960  0.00  0.00    +0.000 C 
BRANCH  27  28
ATOM     28  C   UNL     1       6.673   4.263  13.662  0.00  0.00    +0.000 C 
BRANCH  28  30
ATOM     29  C   UNL     1       5.155   3.239  11.932  0.00  0.00    +0.000 C 
ATOM     30  C   UNL     1       5.273   3.726  13.367  0.00  0.00    +0.000 C 
ENDBRANCH  28  30
ENDBRANCH  27  28
ENDBRANCH  26  27
ENDBRANCH  23  26
ENDBRANCH   1  23
TORSDOF 16
ENDMDL
MODEL 5
REMARK VINA RESULT:      -6.1      2.528      5.033
REMARK  Name = 
REMARK  20 active torsions:
REMARK  status: ('A' for Active; 'I' for Inactive)
REMARK    1  A    between atoms: C_1  and  C_2
REMARK    2  A    between atoms: C_2  and  C_3
REMARK    3  A    between atoms: C_3  and  C_4
REMARK    4  A    between atoms: C_4  and  C_5
REMARK    5  A    between atoms: C_5  and  C_6
REMARK    6  A    between atoms: C_6  and  O_7
REMARK    7  A    between atoms: C_6  and  C_8
REMARK    8  A    between atoms: C_9  and  C_10
REMARK    9  A    between atoms: C_11  and  C_12
REMARK   10  A    between atoms: C_12  and  O_13
REMARK   11  A    between atoms: C_12  and  C_14
REMARK   12  A    between atoms: C_14  and  O_15
REMARK   13  A    between atoms: C_14  and  C_16
REMARK   14  A    between atoms: C_16  and  C_17
REMARK   15  A    between atoms: C_17  and  C_18
REMARK   16  A    between atoms: C_18  and  C_19
REMARK   17  A    between atoms: C_19  and  O_21
REMARK   18  A    between atoms: O_21  and  C_22
REMARK   19  A    between atoms: C_24  and  C_25
REMARK   20  A    between atoms: N_26  and  C_27
REMARK                            x       y       z     vdW  Elec       q    Type
REMARK                         _______ _______ _______ _____ _____    ______ ____
ROOT
ATOM      1  C   UNL     1       6.669   4.864  15.093  0.00  0.00    +0.000 A 
ATOM      2  C   UNL     1       5.423   4.292  15.244  0.00  0.00    +0.000 A 
ATOM      3  N   UNL     1       4.969   3.729  14.092  0.00  0.00    +0.000 NA
ATOM      4  C   UNL     1       5.902   3.966  13.196  0.00  0.00    +0.000 A 
ATOM      5  C   UNL     1       5.852   3.509  11.786  0.00  0.00    +0.000 C 
ATOM      6  N   UNL     1       6.946   4.675  13.751  0.00  0.00    +0.000 N 
ATOM      7  C   UNL     1       8.127   5.116  13.047  0.00  0.00    +0.000 C 
ENDROOT
BRANCH   2   8
ATOM      8  C   UNL     1       4.659   4.147  16.426  0.00  0.00    +0.000 C 
ATOM      9  C   UNL     1       4.868   3.189  17.345  0.00  0.00    +0.000 C 
BRANCH   9  10
ATOM     10  C   UNL     1       4.144   3.048  18.659  0.00  0.00    +0.000 C 
BRANCH  10  11
ATOM     11  O   UNL     1       4.294   1.713  19.125  0.00  0.00    +0.000 OA
ATOM     12  H   UNL     1       3.405   1.372  19.325  0.00  0.00    +0.000 HD
ENDBRANCH  10  11
BRANCH  10  13
ATOM     13  C   UNL     1       4.626   4.093  19.709  0.00  0.00    +0.000 C 
BRANCH  13  14
ATOM     14  O   UNL     1       6.002   4.437  19.476  0.00  0.00    +0.000 OA
ATOM     15  H   UNL     1       6.250   5.126  20.118  0.00  0.00    +0.000 HD
ENDBRANCH  13  14
BRANCH  13  16
ATOM     16  C   UNL     1       3.833   5.415  19.733  0.00  0.00    +0.000 C 
BRANCH  16  17
ATOM     17  C   UNL     1       2.357   5.270  19.374  0.00  0.00    +0.000 C 
BRANCH  17  18
ATOM     18  C   UNL     1       1.466   5.004  20.583  0.00  0.00    +0.000 C 
BRANCH  18  19
ATOM     19  C   UNL     1       1.210   3.518  20.698  0.00  0.00    +0.000 C 
ATOM     20  O   UNL     1       1.759   2.776  21.502  0.00  0.00    +0.000 OA
BRANCH  19  21
ATOM     21  O   UNL     1       0.269   3.129  19.793  0.00  0.00    +0.000 OA
ATOM     22  C   UNL     1       0.748   2.169  18.849  0.00  0.00    +0.000 C 
ENDBRANCH  19  21
ENDBRANCH  18  19
ENDBRANCH  17  18
ENDBRANCH  16  17
ENDBRANCH  13  16
ENDBRANCH  10  13
ENDBRANCH   9  10
ENDBRANCH   2   8
BRANCH   1  23
ATOM     23  C   UNL     1       7.562   5.493  16.114  0.00  0.00    +0.000 C 
BRANCH  23  24
ATOM     24  O   UNL     1       8.019   4.470  16.993  0.00  0.00    +0.000 OA
ATOM     25  H   UNL     1       7.436   3.702  16.894  0.00  0.00    +0.000 HD
ENDBRANCH  23  24
BRANCH  23  26
ATOM     26  C   UNL     1       6.835   6.619  16.870  0.00  0.00    +0.000 C 
BRANCH  26  27
ATOM     27  C   UNL     1       7.775   7.429  17.769  0.00  0.00    +0.000 C 
BRANCH  27  28
ATOM     28  C   UNL     1       7.469   8.925  17.673  0.00  0.00    +0.000 C 
BRANCH  28  30
ATOM     29  C   UNL     1       9.083   9.904  19.341  0.00  0.00    +0.000 C 
ATOM     30  C   UNL     1       8.730   9.764  17.869  0.00  0.00    +0.000 C 
ENDBRANCH  28  30
ENDBRANCH  27  28
ENDBRANCH  26  27
ENDBRANCH  23  26
ENDBRANCH   1  23
TORSDOF 16
ENDMDL
MODEL 6
REMARK VINA RESULT:      -5.9      2.700      6.306
REMARK  Name = 
REMARK  20 active torsions:
REMARK  status: ('A' for Active; 'I' for Inactive)
REMARK    1  A    between atoms: C_1  and  C_2
REMARK    2  A    between atoms: C_2  and  C_3
REMARK    3  A    between atoms: C_3  and  C_4
REMARK    4  A    between atoms: C_4  and  C_5
REMARK    5  A    between atoms: C_5  and  C_6
REMARK    6  A    between atoms: C_6  and  O_7
REMARK    7  A    between atoms: C_6  and  C_8
REMARK    8  A    between atoms: C_9  and  C_10
REMARK    9  A    between atoms: C_11  and  C_12
REMARK   10  A    between atoms: C_12  and  O_13
REMARK   11  A    between atoms: C_12  and  C_14
REMARK   12  A    between atoms: C_14  and  O_15
REMARK   13  A    between atoms: C_14  and  C_16
REMARK   14  A    between atoms: C_16  and  C_17
REMARK   15  A    between atoms: C_17  and  C_18
REMARK   16  A    between atoms: C_18  and  C_19
REMARK   17  A    between atoms: C_19  and  O_21
REMARK   18  A    between atoms: O_21  and  C_22
REMARK   19  A    between atoms: C_24  and  C_25
REMARK   20  A    between atoms: N_26  and  C_27
REMARK                            x       y       z     vdW  Elec       q    Type
REMARK                         _______ _______ _______ _____ _____    ______ ____
ROOT
ATOM      1  C   UNL     1       2.153   7.028  19.769  0.00  0.00    +0.000 A 
ATOM      2  C   UNL     1       2.831   7.196  18.579  0.00  0.00    +0.000 A 
ATOM      3  N   UNL     1       2.652   8.437  18.052  0.00  0.00    +0.000 NA
ATOM      4  C   UNL     1       1.837   9.054  18.880  0.00  0.00    +0.000 A 
ATOM      5  C   UNL     1       1.379  10.456  18.724  0.00  0.00    +0.000 C 
ATOM      6  N   UNL     1       1.486   8.230  19.928  0.00  0.00    +0.000 N 
ATOM      7  C   UNL     1       0.595   8.581  21.008  0.00  0.00    +0.000 C 
ENDROOT
BRANCH   2   8
ATOM      8  C   UNL     1       3.721   6.301  17.941  0.00  0.00    +0.000 C 
ATOM      9  C   UNL     1       4.058   6.373  16.642  0.00  0.00    +0.000 C 
BRANCH   9  10
ATOM     10  C   UNL     1       5.068   5.504  15.938  0.00  0.00    +0.000 C 
BRANCH  10  11
ATOM     11  O   UNL     1       5.914   6.330  15.148  0.00  0.00    +0.000 OA
ATOM     12  H   UNL     1       6.525   5.746  14.666  0.00  0.00    +0.000 HD
ENDBRANCH  10  11
BRANCH  10  13
ATOM     13  C   UNL     1       5.876   4.621  16.934  0.00  0.00    +0.000 C 
BRANCH  13  14
ATOM     14  O   UNL     1       6.099   3.315  16.378  0.00  0.00    +0.000 OA
ATOM     15  H   UNL     1       5.430   3.166  15.687  0.00  0.00    +0.000 HD
ENDBRANCH  13  14
BRANCH  13  16
ATOM     16  C   UNL     1       7.257   5.178  17.335  0.00  0.00    +0.000 C 
BRANCH  16  17
ATOM     17  C   UNL     1       7.238   6.093  18.555  0.00  0.00    +0.000 C 
BRANCH  17  18
ATOM     18  C   UNL     1       8.240   7.240  18.464  0.00  0.00    +0.000 C 
BRANCH  18  19
ATOM     19  C   UNL     1       7.629   8.377  17.677  0.00  0.00    +0.000 C 
ATOM     20  O   UNL     1       6.702   8.258  16.886  0.00  0.00    +0.000 OA
BRANCH  19  21
ATOM     21  O   UNL     1       8.245   9.551  17.987  0.00  0.00    +0.000 OA
ATOM     22  C   UNL     1       9.097   9.464  19.131  0.00  0.00    +0.000 C 
ENDBRANCH  19  21
ENDBRANCH  18  19
ENDBRANCH  17  18
ENDBRANCH  16  17
ENDBRANCH  13  16
ENDBRANCH  10  13
ENDBRANCH   9  10
ENDBRANCH   2   8
BRANCH   1  23
ATOM     23  C   UNL     1       2.156   5.871  20.716  0.00  0.00    +0.000 C 
BRANCH  23  24
ATOM     24  O   UNL     1       3.380   5.163  20.545  0.00  0.00    +0.000 OA
ATOM     25  H   UNL     1       3.927   5.651  19.912  0.00  0.00    +0.000 HD
ENDBRANCH  23  24
BRANCH  23  26
ATOM     26  C   UNL     1       0.932   4.966  20.491  0.00  0.00    +0.000 C 
BRANCH  26  27
ATOM     27  C   UNL     1       1.260   3.478  20.657  0.00  0.00    +0.000 C 
BRANCH  27  28
ATOM     28  C   UNL     1       0.930   2.700  19.381  0.00  0.00    +0.000 C 
BRANCH  28  30
ATOM     29  C   UNL     1       2.545   2.925  17.460  0.00  0.00    +0.000 C 
ATOM     30  C   UNL     1       2.196   2.152  18.722  0.00  0.00    +0.000 C 
ENDBRANCH  28  30
ENDBRANCH  27  28
ENDBRANCH  26  27
ENDBRANCH  23  26
ENDBRANCH   1  23
TORSDOF 16
ENDMDL
MODEL 7
REMARK VINA RESULT:      -5.9      2.725      6.899
REMARK  Name = 
REMARK  20 active torsions:
REMARK  status: ('A' for Active; 'I' for Inactive)
REMARK    1  A    between atoms: C_1  and  C_2
REMARK    2  A    between atoms: C_2  and  C_3
REMARK    3  A    between atoms: C_3  and  C_4
REMARK    4  A    between atoms: C_4  and  C_5
REMARK    5  A    between atoms: C_5  and  C_6
REMARK    6  A    between atoms: C_6  and  O_7
REMARK    7  A    between atoms: C_6  and  C_8
REMARK    8  A    between atoms: C_9  and  C_10
REMARK    9  A    between atoms: C_11  and  C_12
REMARK   10  A    between atoms: C_12  and  O_13
REMARK   11  A    between atoms: C_12  and  C_14
REMARK   12  A    between atoms: C_14  and  O_15
REMARK   13  A    between atoms: C_14  and  C_16
REMARK   14  A    between atoms: C_16  and  C_17
REMARK   15  A    between atoms: C_17  and  C_18
REMARK   16  A    between atoms: C_18  and  C_19
REMARK   17  A    between atoms: C_19  and  O_21
REMARK   18  A    between atoms: O_21  and  C_22
REMARK   19  A    between atoms: C_24  and  C_25
REMARK   20  A    between atoms: N_26  and  C_27
REMARK                            x       y       z     vdW  Elec       q    Type
REMARK                         _______ _______ _______ _____ _____    ______ ____
ROOT
ATOM      1  C   UNL     1       1.822   7.313  19.924  0.00  0.00    +0.000 A 
ATOM      2  C   UNL     1       2.355   7.753  18.730  0.00  0.00    +0.000 A 
ATOM      3  N   UNL     1       2.023   9.044  18.459  0.00  0.00    +0.000 NA
ATOM      4  C   UNL     1       1.253   9.423  19.456  0.00  0.00    +0.000 A 
ATOM      5  C   UNL     1       0.670  10.779  19.602  0.00  0.00    +0.000 C 
ATOM      6  N   UNL     1       1.081   8.396  20.360  0.00  0.00    +0.000 N 
ATOM      7  C   UNL     1       0.283   8.463  21.561  0.00  0.00    +0.000 C 
ENDROOT
BRANCH   2   8
ATOM      8  C   UNL     1       3.243   7.076  17.861  0.00  0.00    +0.000 C 
ATOM      9  C   UNL     1       4.545   7.381  17.727  0.00  0.00    +0.000 C 
BRANCH   9  10
ATOM     10  C   UNL     1       5.549   6.636  16.886  0.00  0.00    +0.000 C 
BRANCH  10  11
ATOM     11  O   UNL     1       6.685   7.467  16.683  0.00  0.00    +0.000 OA
ATOM     12  H   UNL     1       6.532   8.295  17.170  0.00  0.00    +0.000 HD
ENDBRANCH  10  11
BRANCH  10  13
ATOM     13  C   UNL     1       5.933   5.262  17.513  0.00  0.00    +0.000 C 
BRANCH  13  14
ATOM     14  O   UNL     1       5.604   5.241  18.912  0.00  0.00    +0.000 OA
ATOM     15  H   UNL     1       4.693   5.569  19.009  0.00  0.00    +0.000 HD
ENDBRANCH  13  14
BRANCH  13  16
ATOM     16  C   UNL     1       5.251   4.035  16.875  0.00  0.00    +0.000 C 
BRANCH  16  17
ATOM     17  C   UNL     1       5.947   3.507  15.624  0.00  0.00    +0.000 C 
BRANCH  17  18
ATOM     18  C   UNL     1       5.504   4.210  14.346  0.00  0.00    +0.000 C 
BRANCH  18  19
ATOM     19  C   UNL     1       6.718   4.527  13.502  0.00  0.00    +0.000 C 
ATOM     20  O   UNL     1       7.539   5.397  13.762  0.00  0.00    +0.000 OA
BRANCH  19  21
ATOM     21  O   UNL     1       6.776   3.696  12.425  0.00  0.00    +0.000 OA
ATOM     22  C   UNL     1       5.503   3.173  12.039  0.00  0.00    +0.000 C 
ENDBRANCH  19  21
ENDBRANCH  18  19
ENDBRANCH  17  18
ENDBRANCH  16  17
ENDBRANCH  13  16
ENDBRANCH  10  13
ENDBRANCH   9  10
ENDBRANCH   2   8
BRANCH   1  23
ATOM     23  C   UNL     1       2.017   6.013  20.636  0.00  0.00    +0.000 C 
BRANCH  23  24
ATOM     24  O   UNL     1       3.335   5.550  20.358  0.00  0.00    +0.000 OA
ATOM     25  H   UNL     1       3.604   4.953  21.073  0.00  0.00    +0.000 HD
ENDBRANCH  23  24
BRANCH  23  26
ATOM     26  C   UNL     1       0.948   4.986  20.222  0.00  0.00    +0.000 C 
BRANCH  26  27
ATOM     27  C   UNL     1       1.512   3.568  20.088  0.00  0.00    +0.000 C 
BRANCH  27  28
ATOM     28  C   UNL     1       1.298   3.026  18.674  0.00  0.00    +0.000 C 
BRANCH  28  30
ATOM     29  C   UNL     1       3.594   2.147  19.223  0.00  0.00    +0.000 C 
ATOM     30  C   UNL     1       2.408   2.053  18.277  0.00  0.00    +0.000 C 
ENDBRANCH  28  30
ENDBRANCH  27  28
ENDBRANCH  26  27
ENDBRANCH  23  26
ENDBRANCH   1  23
TORSDOF 16
ENDMDL
MODEL 8
REMARK VINA RESULT:      -5.9      3.249      5.599
REMARK  Name = 
REMARK  20 active torsions:
REMARK  status: ('A' for Active; 'I' for Inactive)
REMARK    1  A    between atoms: C_1  and  C_2
REMARK    2  A    between atoms: C_2  and  C_3
REMARK    3  A    between atoms: C_3  and  C_4
REMARK    4  A    between atoms: C_4  and  C_5
REMARK    5  A    between atoms: C_5  and  C_6
REMARK    6  A    between atoms: C_6  and  O_7
REMARK    7  A    between atoms: C_6  and  C_8
REMARK    8  A    between atoms: C_9  and  C_10
REMARK    9  A    between atoms: C_11  and  C_12
REMARK   10  A    between atoms: C_12  and  O_13
REMARK   11  A    between atoms: C_12  and  C_14
REMARK   12  A    between atoms: C_14  and  O_15
REMARK   13  A    between atoms: C_14  and  C_16
REMARK   14  A    between atoms: C_16  and  C_17
REMARK   15  A    between atoms: C_17  and  C_18
REMARK   16  A    between atoms: C_18  and  C_19
REMARK   17  A    between atoms: C_19  and  O_21
REMARK   18  A    between atoms: O_21  and  C_22
REMARK   19  A    between atoms: C_24  and  C_25
REMARK   20  A    between atoms: N_26  and  C_27
REMARK                            x       y       z     vdW  Elec       q    Type
REMARK                         _______ _______ _______ _____ _____    ______ ____
ROOT
ATOM      1  C   UNL     1       3.542   4.354  19.168  0.00  0.00    +0.000 A 
ATOM      2  C   UNL     1       2.398   5.105  19.345  0.00  0.00    +0.000 A 
ATOM      3  N   UNL     1       1.563   4.565  20.273  0.00  0.00    +0.000 NA
ATOM      4  C   UNL     1       2.150   3.456  20.668  0.00  0.00    +0.000 A 
ATOM      5  C   UNL     1       1.612   2.541  21.703  0.00  0.00    +0.000 C 
ATOM      6  N   UNL     1       3.345   3.271  20.006  0.00  0.00    +0.000 N 
ATOM      7  C   UNL     1       4.237   2.150  20.184  0.00  0.00    +0.000 C 
ENDROOT
BRANCH   2   8
ATOM      8  C   UNL     1       2.070   6.357  18.772  0.00  0.00    +0.000 C 
ATOM      9  C   UNL     1       2.375   7.542  19.327  0.00  0.00    +0.000 C 
BRANCH   9  10
ATOM     10  C   UNL     1       2.130   8.897  18.715  0.00  0.00    +0.000 C 
BRANCH  10  11
ATOM     11  O   UNL     1       2.199   8.781  17.300  0.00  0.00    +0.000 OA
ATOM     12  H   UNL     1       2.912   9.369  16.994  0.00  0.00    +0.000 HD
ENDBRANCH  10  11
BRANCH  10  13
ATOM     13  C   UNL     1       0.781   9.517  19.187  0.00  0.00    +0.000 C 
BRANCH  13  14
ATOM     14  O   UNL     1       1.020  10.620  20.075  0.00  0.00    +0.000 OA
ATOM     15  H   UNL     1       0.800  11.440  19.599  0.00  0.00    +0.000 HD
ENDBRANCH  13  14
BRANCH  13  16
ATOM     16  C   UNL     1      -0.132  10.041  18.060  0.00  0.00    +0.000 C 
BRANCH  16  17
ATOM     17  C   UNL     1      -1.296  10.902  18.540  0.00  0.00    +0.000 C 
BRANCH  17  18
ATOM     18  C   UNL     1      -2.135  11.471  17.400  0.00  0.00    +0.000 C 
BRANCH  18  19
ATOM     19  C   UNL     1      -3.233  10.492  17.051  0.00  0.00    +0.000 C 
ATOM     20  O   UNL     1      -4.300  10.401  17.644  0.00  0.00    +0.000 OA
BRANCH  19  21
ATOM     21  O   UNL     1      -2.872   9.741  15.973  0.00  0.00    +0.000 OA
ATOM     22  C   UNL     1      -3.383  10.238  14.735  0.00  0.00    +0.000 C 
ENDBRANCH  19  21
ENDBRANCH  18  19
ENDBRANCH  17  18
ENDBRANCH  16  17
ENDBRANCH  13  16
ENDBRANCH  10  13
ENDBRANCH   9  10
ENDBRANCH   2   8
BRANCH   1  23
ATOM     23  C   UNL     1       4.749   4.633  18.330  0.00  0.00    +0.000 C 
BRANCH  23  24
ATOM     24  O   UNL     1       5.502   5.659  18.968  0.00  0.00    +0.000 OA
ATOM     25  H   UNL     1       5.869   6.238  18.282  0.00  0.00    +0.000 HD
ENDBRANCH  23  24
BRANCH  23  26
ATOM     26  C   UNL     1       4.352   5.020  16.895  0.00  0.00    +0.000 C 
BRANCH  26  27
ATOM     27  C   UNL     1       5.216   4.327  15.836  0.00  0.00    +0.000 C 
BRANCH  27  28
ATOM     28  C   UNL     1       6.370   5.230  15.396  0.00  0.00    +0.000 C 
BRANCH  28  30
ATOM     29  C   UNL     1       6.077   3.756  13.374  0.00  0.00    +0.000 C 
ATOM     30  C   UNL     1       6.988   4.745  14.085  0.00  0.00    +0.000 C 
ENDBRANCH  28  30
ENDBRANCH  27  28
ENDBRANCH  26  27
ENDBRANCH  23  26
ENDBRANCH   1  23
TORSDOF 16
ENDMDL
MODEL 9
REMARK VINA RESULT:      -5.9      3.995      7.977
REMARK  Name = 
REMARK  20 active torsions:
REMARK  status: ('A' for Active; 'I' for Inactive)
REMARK    1  A    between atoms: C_1  and  C_2
REMARK    2  A    between atoms: C_2  and  C_3
REMARK    3  A    between atoms: C_3  and  C_4
REMARK    4  A    between atoms: C_4  and  C_5
REMARK    5  A    between atoms: C_5  and  C_6
REMARK    6  A    between atoms: C_6  and  O_7
REMARK    7  A    between atoms: C_6  and  C_8
REMARK    8  A    between atoms: C_9  and  C_10
REMARK    9  A    between atoms: C_11  and  C_12
REMARK   10  A    between atoms: C_12  and  O_13
REMARK   11  A    between atoms: C_12  and  C_14
REMARK   12  A    between atoms: C_14  and  O_15
REMARK   13  A    between atoms: C_14  and  C_16
REMARK   14  A    between atoms: C_16  and  C_17
REMARK   15  A    between atoms: C_17  and  C_18
REMARK   16  A    between atoms: C_18  and  C_19
REMARK   17  A    between atoms: C_19  and  O_21
REMARK   18  A    between atoms: O_21  and  C_22
REMARK   19  A    between atoms: C_24  and  C_25
REMARK   20  A    between atoms: N_26  and  C_27
REMARK                            x       y       z     vdW  Elec       q    Type
REMARK                         _______ _______ _______ _____ _____    ______ ____
ROOT
ATOM      1  C   UNL     1       0.199  10.049  19.687  0.00  0.00    +0.000 A 
ATOM      2  C   UNL     1       1.197   9.141  19.973  0.00  0.00    +0.000 A 
ATOM      3  N   UNL     1       1.245   8.824  21.296  0.00  0.00    +0.000 NA
ATOM      4  C   UNL     1       0.306   9.549  21.863  0.00  0.00    +0.000 A 
ATOM      5  C   UNL     1      -0.029   9.513  23.307  0.00  0.00    +0.000 C 
ATOM      6  N   UNL     1      -0.342  10.330  20.929  0.00  0.00    +0.000 N 
ATOM      7  C   UNL     1      -1.413  11.256  21.211  0.00  0.00    +0.000 C 
ENDROOT
BRANCH   2   8
ATOM      8  C   UNL     1       2.057   8.467  19.074  0.00  0.00    +0.000 C 
ATOM      9  C   UNL     1       2.320   7.150  19.129  0.00  0.00    +0.000 C 
BRANCH   9  10
ATOM     10  C   UNL     1       3.153   6.371  18.144  0.00  0.00    +0.000 C 
BRANCH  10  11
ATOM     11  O   UNL     1       3.762   7.281  17.236  0.00  0.00    +0.000 OA
ATOM     12  H   UNL     1       3.370   7.125  16.360  0.00  0.00    +0.000 HD
ENDBRANCH  10  11
BRANCH  10  13
ATOM     13  C   UNL     1       4.200   5.462  18.853  0.00  0.00    +0.000 C 
BRANCH  13  14
ATOM     14  O   UNL     1       3.819   5.231  20.219  0.00  0.00    +0.000 OA
ATOM     15  H   UNL     1       4.474   4.628  20.615  0.00  0.00    +0.000 HD
ENDBRANCH  13  14
BRANCH  13  16
ATOM     16  C   UNL     1       4.413   4.077  18.208  0.00  0.00    +0.000 C 
BRANCH  16  17
ATOM     17  C   UNL     1       4.289   4.065  16.687  0.00  0.00    +0.000 C 
BRANCH  17  18
ATOM     18  C   UNL     1       5.635   3.981  15.974  0.00  0.00    +0.000 C 
BRANCH  18  19
ATOM     19  C   UNL     1       6.217   5.370  15.836  0.00  0.00    +0.000 C 
ATOM     20  O   UNL     1       5.699   6.282  15.207  0.00  0.00    +0.000 OA
BRANCH  19  21
ATOM     21  O   UNL     1       7.386   5.463  16.528  0.00  0.00    +0.000 OA
ATOM     22  C   UNL     1       7.431   6.574  17.426  0.00  0.00    +0.000 C 
ENDBRANCH  19  21
ENDBRANCH  18  19
ENDBRANCH  17  18
ENDBRANCH  16  17
ENDBRANCH  13  16
ENDBRANCH  10  13
ENDBRANCH   9  10
ENDBRANCH   2   8
BRANCH   1  23
ATOM     23  C   UNL     1      -0.257  10.584  18.368  0.00  0.00    +0.000 C 
BRANCH  23  24
ATOM     24  O   UNL     1       0.099  11.962  18.302  0.00  0.00    +0.000 OA
ATOM     25  H   UNL     1      -0.533  12.465  18.838  0.00  0.00    +0.000 HD
ENDBRANCH  23  24
BRANCH  23  26
ATOM     26  C   UNL     1      -1.769  10.372  18.174  0.00  0.00    +0.000 C 
BRANCH  26  27
ATOM     27  C   UNL     1      -2.121   9.888  16.764  0.00  0.00    +0.000 C 
BRANCH  27  28
ATOM     28  C   UNL     1      -3.473  10.449  16.316  0.00  0.00    +0.000 C 
BRANCH  28  30
ATOM     29  C   UNL     1      -5.276  12.000  17.145  0.00  0.00    +0.000 C 
ATOM     30  C   UNL     1      -4.323  10.875  17.512  0.00  0.00    +0.000 C 
ENDBRANCH  28  30
ENDBRANCH  27  28
ENDBRANCH  26  27
ENDBRANCH  23  26
ENDBRANCH   1  23
TORSDOF 16
ENDMDL
