MODEL 1
REMARK VINA RESULT:      -6.4      0.000      0.000
REMARK  Name = 
REMARK  7 active torsions:
REMARK  status: ('A' for Active; 'I' for Inactive)
REMARK    1  A    between atoms: C_1  and  C_2
REMARK    2  A    between atoms: C_2  and  C_3
REMARK    3  A    between atoms: C_3  and  C_4
REMARK    4  A    between atoms: C_4  and  O_5
REMARK    5  A    between atoms: O_5  and  C_6
REMARK    6  A    between atoms: C_9  and  C_10
REMARK    7  A    between atoms: C_10  and  C_11
REMARK                            x       y       z     vdW  Elec       q    Type
REMARK                         _______ _______ _______ _____ _____    ______ ____
ROOT
ATOM      1  C   UNL     1       2.256   4.147  17.706  0.00  0.00    +0.000 A 
ATOM      2  C   UNL     1       2.485   5.500  17.963  0.00  0.00    +0.000 A 
ATOM      3  C   UNL     1       3.772   6.034  17.878  0.00  0.00    +0.000 A 
ATOM      4  C   UNL     1       4.856   5.226  17.523  0.00  0.00    +0.000 A 
ATOM      5  C   UNL     1       4.627   3.870  17.255  0.00  0.00    +0.000 A 
ATOM      6  C   UNL     1       3.333   3.335  17.344  0.00  0.00    +0.000 A 
ENDROOT
BRANCH   1   7
ATOM      7  O   UNL     1       1.034   3.523  17.784  0.00  0.00    +0.000 OA
BRANCH   7   8
ATOM      8  C   UNL     1       0.880   2.640  18.898  0.00  0.00    +0.000 C 
BRANCH   8   9
ATOM      9  C   UNL     1       0.733   3.422  20.198  0.00  0.00    +0.000 C 
BRANCH   9  11
ATOM     10  C   UNL     1       2.995   2.710  21.083  0.00  0.00    +0.000 C 
ATOM     11  C   UNL     1       1.496   2.707  21.315  0.00  0.00    +0.000 C 
ENDBRANCH   9  11
ENDBRANCH   8   9
ENDBRANCH   7   8
ENDBRANCH   1   7
BRANCH   4  12
ATOM     12  C   UNL     1       6.241   5.823  17.443  0.00  0.00    +0.000 C 
BRANCH  12  13
ATOM     13  C   UNL     1       7.274   5.073  16.620  0.00  0.00    +0.000 C 
ATOM     14  N   UNL     1       7.347   5.310  15.282  0.00  0.00    +0.000 N 
ATOM     15  O   UNL     1       8.036   4.255  17.131  0.00  0.00    +0.000 OA
ATOM     16  H   UNL     1       6.697   5.901  14.785  0.00  0.00    +0.000 HD
ATOM     17  H   UNL     1       8.026   4.779  14.751  0.00  0.00    +0.000 HD
ENDBRANCH  12  13
ENDBRANCH   4  12
TORSDOF 6
ENDMDL
MODEL 2
REMARK VINA RESULT:      -6.3      0.337      1.280
REMARK  Name = 
REMARK  7 active torsions:
REMARK  status: ('A' for Active; 'I' for Inactive)
REMARK    1  A    between atoms: C_1  and  C_2
REMARK    2  A    between atoms: C_2  and  C_3
REMARK    3  A    between atoms: C_3  and  C_4
REMARK    4  A    between atoms: C_4  and  O_5
REMARK    5  A    between atoms: O_5  and  C_6
REMARK    6  A    between atoms: C_9  and  C_10
REMARK    7  A    between atoms: C_10  and  C_11
REMARK                            x       y       z     vdW  Elec       q    Type
REMARK                         _______ _______ _______ _____ _____    ______ ____
ROOT
ATOM      1  C   UNL     1       2.235   4.052  17.632  0.00  0.00    +0.000 A 
ATOM      2  C   UNL     1       3.312   3.396  17.035  0.00  0.00    +0.000 A 
ATOM      3  C   UNL     1       4.510   4.069  16.789  0.00  0.00    +0.000 A 
ATOM      4  C   UNL     1       4.658   5.413  17.149  0.00  0.00    +0.000 A 
ATOM      5  C   UNL     1       3.581   6.070  17.758  0.00  0.00    +0.000 A 
ATOM      6  C   UNL     1       2.378   5.392  18.000  0.00  0.00    +0.000 A 
ENDROOT
BRANCH   1   7
ATOM      7  O   UNL     1       1.010   3.486  17.895  0.00  0.00    +0.000 OA
BRANCH   7   8
ATOM      8  C   UNL     1       0.989   2.589  19.008  0.00  0.00    +0.000 C 
BRANCH   8   9
ATOM      9  C   UNL     1       0.672   3.332  20.301  0.00  0.00    +0.000 C 
BRANCH   9  11
ATOM     10  C   UNL     1       3.045   2.676  20.890  0.00  0.00    +0.000 C 
ATOM     11  C   UNL     1       1.631   2.876  21.402  0.00  0.00    +0.000 C 
ENDBRANCH   9  11
ENDBRANCH   8   9
ENDBRANCH   7   8
ENDBRANCH   1   7
BRANCH   4  12
ATOM     12  C   UNL     1       5.961   6.123  16.869  0.00  0.00    +0.000 C 
BRANCH  12  13
ATOM     13  C   UNL     1       7.116   5.279  16.358  0.00  0.00    +0.000 C 
ATOM     14  N   UNL     1       7.413   5.304  15.030  0.00  0.00    +0.000 N 
ATOM     15  O   UNL     1       7.780   4.570  17.111  0.00  0.00    +0.000 OA
ATOM     16  H   UNL     1       6.855   5.794  14.344  0.00  0.00    +0.000 HD
ATOM     17  H   UNL     1       8.169   4.714  14.709  0.00  0.00    +0.000 HD
ENDBRANCH  12  13
ENDBRANCH   4  12
TORSDOF 6
ENDMDL
MODEL 3
REMARK VINA RESULT:      -6.1      1.222      1.729
REMARK  Name = 
REMARK  7 active torsions:
REMARK  status: ('A' for Active; 'I' for Inactive)
REMARK    1  A    between atoms: C_1  and  C_2
REMARK    2  A    between atoms: C_2  and  C_3
REMARK    3  A    between atoms: C_3  and  C_4
REMARK    4  A    between atoms: C_4  and  O_5
REMARK    5  A    between atoms: O_5  and  C_6
REMARK    6  A    between atoms: C_9  and  C_10
REMARK    7  A    between atoms: C_10  and  C_11
REMARK                            x       y       z     vdW  Elec       q    Type
REMARK                         _______ _______ _______ _____ _____    ______ ____
ROOT
ATOM      1  C   UNL     1       2.694   4.059  17.813  0.00  0.00    +0.000 A 
ATOM      2  C   UNL     1       3.866   3.305  17.881  0.00  0.00    +0.000 A 
ATOM      3  C   UNL     1       5.106   3.926  18.048  0.00  0.00    +0.000 A 
ATOM      4  C   UNL     1       5.194   5.317  18.163  0.00  0.00    +0.000 A 
ATOM      5  C   UNL     1       4.018   6.075  18.106  0.00  0.00    +0.000 A 
ATOM      6  C   UNL     1       2.775   5.448  17.935  0.00  0.00    +0.000 A 
ENDROOT
BRANCH   1   7
ATOM      7  O   UNL     1       1.433   3.545  17.629  0.00  0.00    +0.000 OA
BRANCH   7   8
ATOM      8  C   UNL     1       1.033   2.570  18.595  0.00  0.00    +0.000 C 
BRANCH   8   9
ATOM      9  C   UNL     1       0.612   3.236  19.901  0.00  0.00    +0.000 C 
BRANCH   9  11
ATOM     10  C   UNL     1       2.366   3.738  21.655  0.00  0.00    +0.000 C 
ATOM     11  C   UNL     1       1.456   2.685  21.052  0.00  0.00    +0.000 C 
ENDBRANCH   9  11
ENDBRANCH   8   9
ENDBRANCH   7   8
ENDBRANCH   1   7
BRANCH   4  12
ATOM     12  C   UNL     1       6.546   5.968  18.338  0.00  0.00    +0.000 C 
BRANCH  12  13
ATOM     13  C   UNL     1       7.155   6.641  17.120  0.00  0.00    +0.000 C 
ATOM     14  N   UNL     1       7.416   5.890  16.015  0.00  0.00    +0.000 N 
ATOM     15  O   UNL     1       7.426   7.840  17.112  0.00  0.00    +0.000 OA
ATOM     16  H   UNL     1       7.300   4.887  15.984  0.00  0.00    +0.000 HD
ATOM     17  H   UNL     1       7.846   6.355  15.226  0.00  0.00    +0.000 HD
ENDBRANCH  12  13
ENDBRANCH   4  12
TORSDOF 6
ENDMDL
MODEL 4
REMARK VINA RESULT:      -6.0      1.390      1.439
REMARK  Name = 
REMARK  7 active torsions:
REMARK  status: ('A' for Active; 'I' for Inactive)
REMARK    1  A    between atoms: C_1  and  C_2
REMARK    2  A    between atoms: C_2  and  C_3
REMARK    3  A    between atoms: C_3  and  C_4
REMARK    4  A    between atoms: C_4  and  O_5
REMARK    5  A    between atoms: O_5  and  C_6
REMARK    6  A    between atoms: C_9  and  C_10
REMARK    7  A    between atoms: C_10  and  C_11
REMARK                            x       y       z     vdW  Elec       q    Type
REMARK                         _______ _______ _______ _____ _____    ______ ____
ROOT
ATOM      1  C   UNL     1       2.492   4.207  17.701  0.00  0.00    +0.000 A 
ATOM      2  C   UNL     1       3.027   5.464  17.986  0.00  0.00    +0.000 A 
ATOM      3  C   UNL     1       4.407   5.672  17.967  0.00  0.00    +0.000 A 
ATOM      4  C   UNL     1       5.280   4.627  17.651  0.00  0.00    +0.000 A 
ATOM      5  C   UNL     1       4.745   3.367  17.354  0.00  0.00    +0.000 A 
ATOM      6  C   UNL     1       3.358   3.160  17.378  0.00  0.00    +0.000 A 
ENDROOT
BRANCH   1   7
ATOM      7  O   UNL     1       1.153   3.895  17.715  0.00  0.00    +0.000 OA
BRANCH   7   8
ATOM      8  C   UNL     1       0.753   3.008  18.762  0.00  0.00    +0.000 C 
BRANCH   8   9
ATOM      9  C   UNL     1       0.791   3.708  20.116  0.00  0.00    +0.000 C 
BRANCH   9  11
ATOM     10  C   UNL     1       2.896   2.778  21.170  0.00  0.00    +0.000 C 
ATOM     11  C   UNL     1       1.379   2.763  21.165  0.00  0.00    +0.000 C 
ENDBRANCH   9  11
ENDBRANCH   8   9
ENDBRANCH   7   8
ENDBRANCH   1   7
BRANCH   4  12
ATOM     12  C   UNL     1       6.771   4.874  17.642  0.00  0.00    +0.000 C 
BRANCH  12  13
ATOM     13  C   UNL     1       7.339   5.733  18.759  0.00  0.00    +0.000 C 
ATOM     14  N   UNL     1       7.924   6.921  18.442  0.00  0.00    +0.000 N 
ATOM     15  O   UNL     1       7.292   5.378  19.934  0.00  0.00    +0.000 OA
ATOM     16  H   UNL     1       8.074   7.232  17.493  0.00  0.00    +0.000 HD
ATOM     17  H   UNL     1       8.318   7.463  19.200  0.00  0.00    +0.000 HD
ENDBRANCH  12  13
ENDBRANCH   4  12
TORSDOF 6
ENDMDL
MODEL 5
REMARK VINA RESULT:      -5.9      1.944      2.493
REMARK  Name = 
REMARK  7 active torsions:
REMARK  status: ('A' for Active; 'I' for Inactive)
REMARK    1  A    between atoms: C_1  and  C_2
REMARK    2  A    between atoms: C_2  and  C_3
REMARK    3  A    between atoms: C_3  and  C_4
REMARK    4  A    between atoms: C_4  and  O_5
REMARK    5  A    between atoms: O_5  and  C_6
REMARK    6  A    between atoms: C_9  and  C_10
REMARK    7  A    between atoms: C_10  and  C_11
REMARK                            x       y       z     vdW  Elec       q    Type
REMARK                         _______ _______ _______ _____ _____    ______ ____
ROOT
ATOM      1  C   UNL     1       4.101   3.085  19.159  0.00  0.00    +0.000 A 
ATOM      2  C   UNL     1       3.431   2.961  17.942  0.00  0.00    +0.000 A 
ATOM      3  C   UNL     1       3.840   3.691  16.824  0.00  0.00    +0.000 A 
ATOM      4  C   UNL     1       4.937   4.554  16.901  0.00  0.00    +0.000 A 
ATOM      5  C   UNL     1       5.618   4.673  18.119  0.00  0.00    +0.000 A 
ATOM      6  C   UNL     1       5.203   3.941  19.241  0.00  0.00    +0.000 A 
ENDROOT
BRANCH   1   7
ATOM      7  O   UNL     1       3.765   2.429  20.319  0.00  0.00    +0.000 OA
BRANCH   7   8
ATOM      8  C   UNL     1       2.397   2.567  20.712  0.00  0.00    +0.000 C 
BRANCH   8   9
ATOM      9  C   UNL     1       2.166   3.893  21.429  0.00  0.00    +0.000 C 
BRANCH   9  11
ATOM     10  C   UNL     1       2.132   6.031  20.075  0.00  0.00    +0.000 C 
ATOM     11  C   UNL     1       1.341   4.821  20.534  0.00  0.00    +0.000 C 
ENDBRANCH   9  11
ENDBRANCH   8   9
ENDBRANCH   7   8
ENDBRANCH   1   7
BRANCH   4  12
ATOM     12  C   UNL     1       5.358   5.339  15.681  0.00  0.00    +0.000 C 
BRANCH  12  13
ATOM     13  C   UNL     1       6.522   4.792  14.871  0.00  0.00    +0.000 C 
ATOM     14  N   UNL     1       6.358   3.626  14.189  0.00  0.00    +0.000 N 
ATOM     15  O   UNL     1       7.605   5.370  14.826  0.00  0.00    +0.000 OA
ATOM     16  H   UNL     1       5.526   3.055  14.252  0.00  0.00    +0.000 HD
ATOM     17  H   UNL     1       7.155   3.268  13.678  0.00  0.00    +0.000 HD
ENDBRANCH  12  13
ENDBRANCH   4  12
TORSDOF 6
ENDMDL
MODEL 6
REMARK VINA RESULT:      -5.8      1.991      2.593
REMARK  Name = 
REMARK  7 active torsions:
REMARK  status: ('A' for Active; 'I' for Inactive)
REMARK    1  A    between atoms: C_1  and  C_2
REMARK    2  A    between atoms: C_2  and  C_3
REMARK    3  A    between atoms: C_3  and  C_4
REMARK    4  A    between atoms: C_4  and  O_5
REMARK    5  A    between atoms: O_5  and  C_6
REMARK    6  A    between atoms: C_9  and  C_10
REMARK    7  A    between atoms: C_10  and  C_11
REMARK                            x       y       z     vdW  Elec       q    Type
REMARK                         _______ _______ _______ _____ _____    ______ ____
ROOT
ATOM      1  C   UNL     1       4.527   3.412  19.137  0.00  0.00    +0.000 A 
ATOM      2  C   UNL     1       3.931   3.009  17.942  0.00  0.00    +0.000 A 
ATOM      3  C   UNL     1       4.214   3.668  16.744  0.00  0.00    +0.000 A 
ATOM      4  C   UNL     1       5.113   4.739  16.717  0.00  0.00    +0.000 A 
ATOM      5  C   UNL     1       5.721   5.139  17.914  0.00  0.00    +0.000 A 
ATOM      6  C   UNL     1       5.431   4.478  19.116  0.00  0.00    +0.000 A 
ENDROOT
BRANCH   1   7
ATOM      7  O   UNL     1       4.297   2.845  20.367  0.00  0.00    +0.000 OA
BRANCH   7   8
ATOM      8  C   UNL     1       2.920   2.625  20.680  0.00  0.00    +0.000 C 
BRANCH   8   9
ATOM      9  C   UNL     1       2.240   3.924  21.099  0.00  0.00    +0.000 C 
BRANCH   9  11
ATOM     10  C   UNL     1       0.658   2.923  19.395  0.00  0.00    +0.000 C 
ATOM     11  C   UNL     1       0.941   4.100  20.310  0.00  0.00    +0.000 C 
ENDBRANCH   9  11
ENDBRANCH   8   9
ENDBRANCH   7   8
ENDBRANCH   1   7
BRANCH   4  12
ATOM     12  C   UNL     1       5.401   5.441  15.411  0.00  0.00    +0.000 C 
BRANCH  12  13
ATOM     13  C   UNL     1       6.493   4.853  14.533  0.00  0.00    +0.000 C 
ATOM     14  N   UNL     1       7.705   5.470  14.489  0.00  0.00    +0.000 N 
ATOM     15  O   UNL     1       6.304   3.844  13.857  0.00  0.00    +0.000 OA
ATOM     16  H   UNL     1       7.900   6.349  14.949  0.00  0.00    +0.000 HD
ATOM     17  H   UNL     1       8.408   5.075  13.878  0.00  0.00    +0.000 HD
ENDBRANCH  12  13
ENDBRANCH   4  12
TORSDOF 6
ENDMDL
MODEL 7
REMARK VINA RESULT:      -5.8      1.467      2.089
REMARK  Name = 
REMARK  7 active torsions:
REMARK  status: ('A' for Active; 'I' for Inactive)
REMARK    1  A    between atoms: C_1  and  C_2
REMARK    2  A    between atoms: C_2  and  C_3
REMARK    3  A    between atoms: C_3  and  C_4
REMARK    4  A    between atoms: C_4  and  O_5
REMARK    5  A    between atoms: O_5  and  C_6
REMARK    6  A    between atoms: C_9  and  C_10
REMARK    7  A    between atoms: C_10  and  C_11
REMARK                            x       y       z     vdW  Elec       q    Type
REMARK                         _______ _______ _______ _____ _____    ______ ____
ROOT
ATOM      1  C   UNL     1       3.044   5.624  19.172  0.00  0.00    +0.000 A 
ATOM      2  C   UNL     1       4.234   5.087  19.664  0.00  0.00    +0.000 A 
ATOM      3  C   UNL     1       5.446   5.320  19.011  0.00  0.00    +0.000 A 
ATOM      4  C   UNL     1       5.492   6.107  17.856  0.00  0.00    +0.000 A 
ATOM      5  C   UNL     1       4.299   6.656  17.366  0.00  0.00    +0.000 A 
ATOM      6  C   UNL     1       3.083   6.417  18.023  0.00  0.00    +0.000 A 
ENDROOT
BRANCH   1   7
ATOM      7  O   UNL     1       1.801   5.435  19.728  0.00  0.00    +0.000 OA
BRANCH   7   8
ATOM      8  C   UNL     1       1.677   4.265  20.540  0.00  0.00    +0.000 C 
BRANCH   8   9
ATOM      9  C   UNL     1       0.893   3.177  19.813  0.00  0.00    +0.000 C 
BRANCH   9  11
ATOM     10  C   UNL     1       2.296   2.343  17.879  0.00  0.00    +0.000 C 
ATOM     11  C   UNL     1       1.857   2.100  19.311  0.00  0.00    +0.000 C 
ENDBRANCH   9  11
ENDBRANCH   8   9
ENDBRANCH   7   8
ENDBRANCH   1   7
BRANCH   4  12
ATOM     12  C   UNL     1       6.812   6.341  17.162  0.00  0.00    +0.000 C 
BRANCH  12  13
ATOM     13  C   UNL     1       7.376   5.197  16.337  0.00  0.00    +0.000 C 
ATOM     14  N   UNL     1       7.225   5.225  14.984  0.00  0.00    +0.000 N 
ATOM     15  O   UNL     1       7.953   4.247  16.860  0.00  0.00    +0.000 OA
ATOM     16  H   UNL     1       6.687   5.928  14.498  0.00  0.00    +0.000 HD
ATOM     17  H   UNL     1       7.586   4.439  14.459  0.00  0.00    +0.000 HD
ENDBRANCH  12  13
ENDBRANCH   4  12
TORSDOF 6
ENDMDL
MODEL 8
REMARK VINA RESULT:      -5.8      1.362      1.398
REMARK  Name = 
REMARK  7 active torsions:
REMARK  status: ('A' for Active; 'I' for Inactive)
REMARK    1  A    between atoms: C_1  and  C_2
REMARK    2  A    between atoms: C_2  and  C_3
REMARK    3  A    between atoms: C_3  and  C_4
REMARK    4  A    between atoms: C_4  and  O_5
REMARK    5  A    between atoms: O_5  and  C_6
REMARK    6  A    between atoms: C_9  and  C_10
REMARK    7  A    between atoms: C_10  and  C_11
REMARK                            x       y       z     vdW  Elec       q    Type
REMARK                         _______ _______ _______ _____ _____    ______ ____
ROOT
ATOM      1  C   UNL     1       2.897   4.085  17.534  0.00  0.00    +0.000 A 
ATOM      2  C   UNL     1       2.942   5.411  17.968  0.00  0.00    +0.000 A 
ATOM      3  C   UNL     1       4.163   6.038  18.222  0.00  0.00    +0.000 A 
ATOM      4  C   UNL     1       5.367   5.353  18.034  0.00  0.00    +0.000 A 
ATOM      5  C   UNL     1       5.325   4.025  17.588  0.00  0.00    +0.000 A 
ATOM      6  C   UNL     1       4.097   3.397  17.338  0.00  0.00    +0.000 A 
ENDROOT
BRANCH   1   7
ATOM      7  O   UNL     1       1.749   3.374  17.279  0.00  0.00    +0.000 OA
BRANCH   7   8
ATOM      8  C   UNL     1       0.798   3.365  18.347  0.00  0.00    +0.000 C 
BRANCH   8   9
ATOM      9  C   UNL     1       1.261   2.458  19.482  0.00  0.00    +0.000 C 
BRANCH   9  11
ATOM     10  C   UNL     1       2.367   2.843  21.726  0.00  0.00    +0.000 C 
ATOM     11  C   UNL     1       1.230   3.232  20.801  0.00  0.00    +0.000 C 
ENDBRANCH   9  11
ENDBRANCH   8   9
ENDBRANCH   7   8
ENDBRANCH   1   7
BRANCH   4  12
ATOM     12  C   UNL     1       6.677   6.049  18.320  0.00  0.00    +0.000 C 
BRANCH  12  13
ATOM     13  C   UNL     1       7.326   6.806  17.174  0.00  0.00    +0.000 C 
ATOM     14  N   UNL     1       7.629   8.122  17.342  0.00  0.00    +0.000 N 
ATOM     15  O   UNL     1       7.572   6.262  16.099  0.00  0.00    +0.000 OA
ATOM     16  H   UNL     1       7.375   8.651  18.165  0.00  0.00    +0.000 HD
ATOM     17  H   UNL     1       8.036   8.611  16.556  0.00  0.00    +0.000 HD
ENDBRANCH  12  13
ENDBRANCH   4  12
TORSDOF 6
ENDMDL
MODEL 9
REMARK VINA RESULT:      -5.8      3.031      5.863
REMARK  Name = 
REMARK  7 active torsions:
REMARK  status: ('A' for Active; 'I' for Inactive)
REMARK    1  A    between atoms: C_1  and  C_2
REMARK    2  A    between atoms: C_2  and  C_3
REMARK    3  A    between atoms: C_3  and  C_4
REMARK    4  A    between atoms: C_4  and  O_5
REMARK    5  A    between atoms: O_5  and  C_6
REMARK    6  A    between atoms: C_9  and  C_10
REMARK    7  A    between atoms: C_10  and  C_11
REMARK                            x       y       z     vdW  Elec       q    Type
REMARK                         _______ _______ _______ _____ _____    ______ ____
ROOT
ATOM      1  C   UNL     1       4.336   5.285  17.429  0.00  0.00    +0.000 A 
ATOM      2  C   UNL     1       4.582   4.134  18.178  0.00  0.00    +0.000 A 
ATOM      3  C   UNL     1       3.896   3.898  19.371  0.00  0.00    +0.000 A 
ATOM      4  C   UNL     1       2.939   4.807  19.832  0.00  0.00    +0.000 A 
ATOM      5  C   UNL     1       2.682   5.959  19.076  0.00  0.00    +0.000 A 
ATOM      6  C   UNL     1       3.377   6.194  17.880  0.00  0.00    +0.000 A 
ENDROOT
BRANCH   1   7
ATOM      7  O   UNL     1       4.973   5.617  16.257  0.00  0.00    +0.000 OA
BRANCH   7   8
ATOM      8  C   UNL     1       6.363   5.924  16.394  0.00  0.00    +0.000 C 
BRANCH   8   9
ATOM      9  C   UNL     1       6.570   7.123  17.314  0.00  0.00    +0.000 C 
BRANCH   9  11
ATOM     10  C   UNL     1       7.710   5.855  19.184  0.00  0.00    +0.000 C 
ATOM     11  C   UNL     1       7.853   6.931  18.125  0.00  0.00    +0.000 C 
ENDBRANCH   9  11
ENDBRANCH   8   9
ENDBRANCH   7   8
ENDBRANCH   1   7
BRANCH   4  12
ATOM     12  C   UNL     1       2.212   4.536  21.128  0.00  0.00    +0.000 C 
BRANCH  12  13
ATOM     13  C   UNL     1       1.391   3.260  21.209  0.00  0.00    +0.000 C 
ATOM     14  N   UNL     1       0.474   3.004  20.236  0.00  0.00    +0.000 N 
ATOM     15  O   UNL     1       1.527   2.463  22.135  0.00  0.00    +0.000 OA
ATOM     16  H   UNL     1       0.249   3.656  19.498  0.00  0.00    +0.000 HD
ATOM     17  H   UNL     1      -0.078   2.162  20.326  0.00  0.00    +0.000 HD
ENDBRANCH  12  13
ENDBRANCH   4  12
TORSDOF 6
ENDMDL
