MODEL 1
REMARK VINA RESULT:      -9.2      0.000      0.000
REMARK  Name = 
REMARK  7 active torsions:
REMARK  status: ('A' for Active; 'I' for Inactive)
REMARK    1  A    between atoms: C_1  and  C_2
REMARK    2  A    between atoms: N_5  and  C_6
REMARK    3  A    between atoms: C_8  and  C_9
REMARK    4  A    between atoms: C_15  and  C_16
REMARK    5  A    between atoms: C_16  and  N_17
REMARK    6  A    between atoms: C_18  and  C_20
REMARK    7  A    between atoms: C_20  and  C_21
REMARK                            x       y       z     vdW  Elec       q    Type
REMARK                         _______ _______ _______ _____ _____    ______ ____
ROOT
ATOM      1  C   UNL     1       3.785   4.785  17.546  0.00  0.00    +0.000 A 
ATOM      2  N   UNL     1       4.719   4.268  16.710  0.00  0.00    +0.000 NA
ATOM      3  C   UNL     1       5.465   5.109  15.931  0.00  0.00    +0.000 A 
ATOM      4  C   UNL     1       5.304   6.488  15.967  0.00  0.00    +0.000 A 
ATOM      5  C   UNL     1       4.363   7.021  16.829  0.00  0.00    +0.000 A 
ATOM      6  C   UNL     1       3.608   6.178  17.657  0.00  0.00    +0.000 A 
ENDROOT
BRANCH   1  11
ATOM      7  C   UNL     1       1.232   2.717  21.905  0.00  0.00    +0.000 C 
ATOM      8  C   UNL     1       1.712   2.569  20.460  0.00  0.00    +0.000 C 
ATOM      9  C   UNL     1       3.253   2.671  20.399  0.00  0.00    +0.000 C 
ATOM     10  C   UNL     1       3.781   2.785  18.964  0.00  0.00    +0.000 C 
ATOM     11  N   UNL     1       3.084   3.918  18.365  0.00  0.00    +0.000 N 
ATOM     12  C   UNL     1       1.654   3.684  18.172  0.00  0.00    +0.000 C 
ATOM     13  C   UNL     1       1.019   3.615  19.565  0.00  0.00    +0.000 C 
ENDBRANCH   1  11
BRANCH   3  14
ATOM     14  C   UNL     1       6.519   4.545  14.989  0.00  0.00    +0.000 C 
ATOM     15  F   UNL     1       6.790   5.321  13.902  0.00  0.00    +0.000 F 
ATOM     16  F   UNL     1       7.720   4.347  15.612  0.00  0.00    +0.000 F 
ATOM     17  F   UNL     1       6.169   3.320  14.492  0.00  0.00    +0.000 F 
ENDBRANCH   3  14
BRANCH   6  18
ATOM     18  C   UNL     1       2.637   6.763  18.650  0.00  0.00    +0.000 C 
BRANCH  18  19
ATOM     19  N   UNL     1       2.173   8.094  18.333  0.00  0.00    +0.000 N 
ATOM     20  C   UNL     1       1.525   8.874  19.261  0.00  0.00    +0.000 C 
ATOM     21  O   UNL     1       1.175   8.478  20.368  0.00  0.00    +0.000 OA
ATOM     22  H   UNL     1       2.567   8.530  17.506  0.00  0.00    +0.000 HD
BRANCH  20  23
ATOM     23  C   UNL     1       1.293  10.297  18.800  0.00  0.00    +0.000 C 
BRANCH  23  24
ATOM     24  C   UNL     1      -0.175  10.572  18.585  0.00  0.00    +0.000 A 
ATOM     25  C   UNL     1      -0.855   9.825  17.613  0.00  0.00    +0.000 A 
ATOM     26  C   UNL     1      -2.225  10.011  17.397  0.00  0.00    +0.000 A 
ATOM     27  C   UNL     1      -2.922  10.941  18.163  0.00  0.00    +0.000 A 
ATOM     28 CL   UNL     1      -4.607  11.168  17.900  0.00  0.00    +0.000 Cl
ATOM     29  C   UNL     1      -2.270  11.683  19.142  0.00  0.00    +0.000 A 
ATOM     30  C   UNL     1      -0.902  11.497  19.355  0.00  0.00    +0.000 A 
ATOM     31 CL   UNL     1      -0.155  12.433  20.602  0.00  0.00    +0.000 Cl
ENDBRANCH  23  24
ENDBRANCH  20  23
ENDBRANCH  18  19
ENDBRANCH   6  18
TORSDOF 6
ENDMDL
MODEL 2
REMARK VINA RESULT:      -8.8      1.773      2.549
REMARK  Name = 
REMARK  7 active torsions:
REMARK  status: ('A' for Active; 'I' for Inactive)
REMARK    1  A    between atoms: C_1  and  C_2
REMARK    2  A    between atoms: N_5  and  C_6
REMARK    3  A    between atoms: C_8  and  C_9
REMARK    4  A    between atoms: C_15  and  C_16
REMARK    5  A    between atoms: C_16  and  N_17
REMARK    6  A    between atoms: C_18  and  C_20
REMARK    7  A    between atoms: C_20  and  C_21
REMARK                            x       y       z     vdW  Elec       q    Type
REMARK                         _______ _______ _______ _____ _____    ______ ____
ROOT
ATOM      1  C   UNL     1       3.708   4.776  17.489  0.00  0.00    +0.000 A 
ATOM      2  N   UNL     1       4.394   4.225  16.457  0.00  0.00    +0.000 NA
ATOM      3  C   UNL     1       5.129   5.030  15.631  0.00  0.00    +0.000 A 
ATOM      4  C   UNL     1       5.205   6.405  15.813  0.00  0.00    +0.000 A 
ATOM      5  C   UNL     1       4.520   6.969  16.873  0.00  0.00    +0.000 A 
ATOM      6  C   UNL     1       3.783   6.159  17.749  0.00  0.00    +0.000 A 
ENDROOT
BRANCH   1  11
ATOM      7  C   UNL     1       1.376   2.766  21.996  0.00  0.00    +0.000 C 
ATOM      8  C   UNL     1       1.731   2.624  20.515  0.00  0.00    +0.000 C 
ATOM      9  C   UNL     1       3.265   2.629  20.333  0.00  0.00    +0.000 C 
ATOM     10  C   UNL     1       3.684   2.746  18.862  0.00  0.00    +0.000 C 
ATOM     11  N   UNL     1       3.018   3.935  18.344  0.00  0.00    +0.000 N 
ATOM     12  C   UNL     1       1.566   3.798  18.262  0.00  0.00    +0.000 C 
ATOM     13  C   UNL     1       1.039   3.734  19.700  0.00  0.00    +0.000 C 
ENDBRANCH   1  11
BRANCH   3  14
ATOM     14  C   UNL     1       5.907   4.427  14.470  0.00  0.00    +0.000 C 
ATOM     15  F   UNL     1       6.901   5.216  13.974  0.00  0.00    +0.000 F 
ATOM     16  F   UNL     1       6.505   3.244  14.804  0.00  0.00    +0.000 F 
ATOM     17  F   UNL     1       5.102   4.131  13.405  0.00  0.00    +0.000 F 
ENDBRANCH   3  14
BRANCH   6  18
ATOM     18  C   UNL     1       3.098   6.765  18.947  0.00  0.00    +0.000 C 
BRANCH  18  19
ATOM     19  N   UNL     1       2.087   7.747  18.635  0.00  0.00    +0.000 N 
ATOM     20  C   UNL     1       1.457   8.475  19.617  0.00  0.00    +0.000 C 
ATOM     21  O   UNL     1       1.597   8.273  20.818  0.00  0.00    +0.000 OA
ATOM     22  H   UNL     1       2.044   8.070  17.673  0.00  0.00    +0.000 HD
BRANCH  20  23
ATOM     23  C   UNL     1       0.576   9.582  19.079  0.00  0.00    +0.000 C 
BRANCH  23  24
ATOM     24  C   UNL     1       1.211  10.936  19.283  0.00  0.00    +0.000 A 
ATOM     25  C   UNL     1       2.009  11.457  18.254  0.00  0.00    +0.000 A 
ATOM     26  C   UNL     1       2.592  12.723  18.371  0.00  0.00    +0.000 A 
ATOM     27  C   UNL     1       2.370  13.478  19.519  0.00  0.00    +0.000 A 
ATOM     28 CL   UNL     1       3.084  15.036  19.664  0.00  0.00    +0.000 Cl
ATOM     29  C   UNL     1       1.572  12.986  20.547  0.00  0.00    +0.000 A 
ATOM     30  C   UNL     1       0.991  11.721  20.427  0.00  0.00    +0.000 A 
ATOM     31 CL   UNL     1      -0.009  11.178  21.728  0.00  0.00    +0.000 Cl
ENDBRANCH  23  24
ENDBRANCH  20  23
ENDBRANCH  18  19
ENDBRANCH   6  18
TORSDOF 6
ENDMDL
MODEL 3
REMARK VINA RESULT:      -8.8      1.056      1.714
REMARK  Name = 
REMARK  7 active torsions:
REMARK  status: ('A' for Active; 'I' for Inactive)
REMARK    1  A    between atoms: C_1  and  C_2
REMARK    2  A    between atoms: N_5  and  C_6
REMARK    3  A    between atoms: C_8  and  C_9
REMARK    4  A    between atoms: C_15  and  C_16
REMARK    5  A    between atoms: C_16  and  N_17
REMARK    6  A    between atoms: C_18  and  C_20
REMARK    7  A    between atoms: C_20  and  C_21
REMARK                            x       y       z     vdW  Elec       q    Type
REMARK                         _______ _______ _______ _____ _____    ______ ____
ROOT
ATOM      1  C   UNL     1       3.747   4.791  17.497  0.00  0.00    +0.000 A 
ATOM      2  N   UNL     1       4.712   4.257  16.707  0.00  0.00    +0.000 NA
ATOM      3  C   UNL     1       5.468   5.080  15.919  0.00  0.00    +0.000 A 
ATOM      4  C   UNL     1       5.287   6.457  15.899  0.00  0.00    +0.000 A 
ATOM      5  C   UNL     1       4.315   7.007  16.714  0.00  0.00    +0.000 A 
ATOM      6  C   UNL     1       3.548   6.184  17.551  0.00  0.00    +0.000 A 
ENDROOT
BRANCH   1  11
ATOM      7  C   UNL     1       1.288   2.754  21.924  0.00  0.00    +0.000 C 
ATOM      8  C   UNL     1       1.686   2.620  20.452  0.00  0.00    +0.000 C 
ATOM      9  C   UNL     1       3.225   2.628  20.315  0.00  0.00    +0.000 C 
ATOM     10  C   UNL     1       3.687   2.753  18.858  0.00  0.00    +0.000 C 
ATOM     11  N   UNL     1       3.034   3.944  18.327  0.00  0.00    +0.000 N 
ATOM     12  C   UNL     1       1.585   3.805  18.202  0.00  0.00    +0.000 C 
ATOM     13  C   UNL     1       1.016   3.733  19.624  0.00  0.00    +0.000 C 
ENDBRANCH   1  11
BRANCH   3  14
ATOM     14  C   UNL     1       6.557   4.497  15.030  0.00  0.00    +0.000 C 
ATOM     15  F   UNL     1       6.273   3.273  14.502  0.00  0.00    +0.000 F 
ATOM     16  F   UNL     1       6.845   5.303  13.964  0.00  0.00    +0.000 F 
ATOM     17  F   UNL     1       7.744   4.347  15.694  0.00  0.00    +0.000 F 
ENDBRANCH   3  14
BRANCH   6  18
ATOM     18  C   UNL     1       2.540   6.791  18.493  0.00  0.00    +0.000 C 
BRANCH  18  19
ATOM     19  N   UNL     1       2.126   8.133  18.156  0.00  0.00    +0.000 N 
ATOM     20  C   UNL     1       1.528   8.959  19.078  0.00  0.00    +0.000 C 
ATOM     21  O   UNL     1       1.184   8.601  20.200  0.00  0.00    +0.000 OA
ATOM     22  H   UNL     1       2.522   8.535  17.313  0.00  0.00    +0.000 HD
BRANCH  20  23
ATOM     23  C   UNL     1       1.347  10.381  18.591  0.00  0.00    +0.000 C 
BRANCH  23  24
ATOM     24  C   UNL     1       0.090  10.997  19.154  0.00  0.00    +0.000 A 
ATOM     25  C   UNL     1       0.207  11.861  20.251  0.00  0.00    +0.000 A 
ATOM     26  C   UNL     1      -0.920  12.490  20.791  0.00  0.00    +0.000 A 
ATOM     27  C   UNL     1      -2.171  12.265  20.224  0.00  0.00    +0.000 A 
ATOM     28 CL   UNL     1      -3.557  13.040  20.884  0.00  0.00    +0.000 Cl
ATOM     29  C   UNL     1      -2.308  11.422  19.126  0.00  0.00    +0.000 A 
ATOM     30  C   UNL     1      -1.181  10.793  18.590  0.00  0.00    +0.000 A 
ATOM     31 CL   UNL     1      -1.416   9.777  17.211  0.00  0.00    +0.000 Cl
ENDBRANCH  23  24
ENDBRANCH  20  23
ENDBRANCH  18  19
ENDBRANCH   6  18
TORSDOF 6
ENDMDL
MODEL 4
REMARK VINA RESULT:      -8.6      1.821      2.161
REMARK  Name = 
REMARK  7 active torsions:
REMARK  status: ('A' for Active; 'I' for Inactive)
REMARK    1  A    between atoms: C_1  and  C_2
REMARK    2  A    between atoms: N_5  and  C_6
REMARK    3  A    between atoms: C_8  and  C_9
REMARK    4  A    between atoms: C_15  and  C_16
REMARK    5  A    between atoms: C_16  and  N_17
REMARK    6  A    between atoms: C_18  and  C_20
REMARK    7  A    between atoms: C_20  and  C_21
REMARK                            x       y       z     vdW  Elec       q    Type
REMARK                         _______ _______ _______ _____ _____    ______ ____
ROOT
ATOM      1  C   UNL     1       3.753   4.743  17.444  0.00  0.00    +0.000 A 
ATOM      2  N   UNL     1       4.513   4.206  16.458  0.00  0.00    +0.000 NA
ATOM      3  C   UNL     1       5.243   5.030  15.646  0.00  0.00    +0.000 A 
ATOM      4  C   UNL     1       5.240   6.410  15.798  0.00  0.00    +0.000 A 
ATOM      5  C   UNL     1       4.478   6.962  16.812  0.00  0.00    +0.000 A 
ATOM      6  C   UNL     1       3.745   6.133  17.673  0.00  0.00    +0.000 A 
ENDROOT
BRANCH   1  11
ATOM      7  C   UNL     1       1.297   2.726  21.882  0.00  0.00    +0.000 C 
ATOM      8  C   UNL     1       1.743   2.562  20.427  0.00  0.00    +0.000 C 
ATOM      9  C   UNL     1       3.282   2.658  20.329  0.00  0.00    +0.000 C 
ATOM     10  C   UNL     1       3.776   2.758  18.881  0.00  0.00    +0.000 C 
ATOM     11  N   UNL     1       3.068   3.886  18.288  0.00  0.00    +0.000 N 
ATOM     12  C   UNL     1       1.634   3.656  18.131  0.00  0.00    +0.000 C 
ATOM     13  C   UNL     1       1.032   3.602  19.540  0.00  0.00    +0.000 C 
ENDBRANCH   1  11
BRANCH   3  14
ATOM     14  C   UNL     1       6.104   4.442  14.537  0.00  0.00    +0.000 C 
ATOM     15  F   UNL     1       7.140   5.232  14.136  0.00  0.00    +0.000 F 
ATOM     16  F   UNL     1       6.663   3.247  14.890  0.00  0.00    +0.000 F 
ATOM     17  F   UNL     1       5.381   4.178  13.406  0.00  0.00    +0.000 F 
ENDBRANCH   3  14
BRANCH   6  18
ATOM     18  C   UNL     1       2.975   6.729  18.824  0.00  0.00    +0.000 C 
BRANCH  18  19
ATOM     19  N   UNL     1       2.053   7.779  18.458  0.00  0.00    +0.000 N 
ATOM     20  C   UNL     1       1.536   8.646  19.392  0.00  0.00    +0.000 C 
ATOM     21  O   UNL     1       1.704   8.532  20.602  0.00  0.00    +0.000 OA
ATOM     22  H   UNL     1       2.004   8.022  17.474  0.00  0.00    +0.000 HD
BRANCH  20  23
ATOM     23  C   UNL     1       0.747   9.787  18.787  0.00  0.00    +0.000 C 
BRANCH  23  24
ATOM     24  C   UNL     1       0.367  10.806  19.833  0.00  0.00    +0.000 A 
ATOM     25  C   UNL     1      -0.625  10.465  20.763  0.00  0.00    +0.000 A 
ATOM     26  C   UNL     1      -0.991  11.354  21.779  0.00  0.00    +0.000 A 
ATOM     27  C   UNL     1      -0.356  12.590  21.873  0.00  0.00    +0.000 A 
ATOM     28 CL   UNL     1      -0.803  13.684  23.122  0.00  0.00    +0.000 Cl
ATOM     29  C   UNL     1       0.640  12.943  20.968  0.00  0.00    +0.000 A 
ATOM     30  C   UNL     1       1.003  12.053  19.955  0.00  0.00    +0.000 A 
ATOM     31 CL   UNL     1       2.264  12.543  18.878  0.00  0.00    +0.000 Cl
ENDBRANCH  23  24
ENDBRANCH  20  23
ENDBRANCH  18  19
ENDBRANCH   6  18
TORSDOF 6
ENDMDL
MODEL 5
REMARK VINA RESULT:      -8.5      1.807      2.023
REMARK  Name = 
REMARK  7 active torsions:
REMARK  status: ('A' for Active; 'I' for Inactive)
REMARK    1  A    between atoms: C_1  and  C_2
REMARK    2  A    between atoms: N_5  and  C_6
REMARK    3  A    between atoms: C_8  and  C_9
REMARK    4  A    between atoms: C_15  and  C_16
REMARK    5  A    between atoms: C_16  and  N_17
REMARK    6  A    between atoms: C_18  and  C_20
REMARK    7  A    between atoms: C_20  and  C_21
REMARK                            x       y       z     vdW  Elec       q    Type
REMARK                         _______ _______ _______ _____ _____    ______ ____
ROOT
ATOM      1  C   UNL     1       3.876   4.624  17.281  0.00  0.00    +0.000 A 
ATOM      2  N   UNL     1       4.574   4.084  16.251  0.00  0.00    +0.000 NA
ATOM      3  C   UNL     1       5.271   4.904  15.407  0.00  0.00    +0.000 A 
ATOM      4  C   UNL     1       5.295   6.284  15.568  0.00  0.00    +0.000 A 
ATOM      5  C   UNL     1       4.597   6.837  16.626  0.00  0.00    +0.000 A 
ATOM      6  C   UNL     1       3.900   6.012  17.520  0.00  0.00    +0.000 A 
ENDROOT
BRANCH   1  11
ATOM      7  C   UNL     1       1.287   2.735  21.699  0.00  0.00    +0.000 C 
ATOM      8  C   UNL     1       1.881   2.493  20.310  0.00  0.00    +0.000 C 
ATOM      9  C   UNL     1       3.399   2.779  20.324  0.00  0.00    +0.000 C 
ATOM     10  C   UNL     1       4.008   2.803  18.917  0.00  0.00    +0.000 C 
ATOM     11  N   UNL     1       3.226   3.769  18.153  0.00  0.00    +0.000 N 
ATOM     12  C   UNL     1       1.851   3.340  17.910  0.00  0.00    +0.000 C 
ATOM     13  C   UNL     1       1.133   3.342  19.264  0.00  0.00    +0.000 C 
ENDBRANCH   1  11
BRANCH   3  14
ATOM     14  C   UNL     1       6.062   4.315  14.248  0.00  0.00    +0.000 C 
ATOM     15  F   UNL     1       7.042   5.122  13.753  0.00  0.00    +0.000 F 
ATOM     16  F   UNL     1       6.680   3.143  14.583  0.00  0.00    +0.000 F 
ATOM     17  F   UNL     1       5.264   4.004  13.181  0.00  0.00    +0.000 F 
ENDBRANCH   3  14
BRANCH   6  18
ATOM     18  C   UNL     1       3.202   6.608  18.715  0.00  0.00    +0.000 C 
BRANCH  18  19
ATOM     19  N   UNL     1       2.990   8.035  18.644  0.00  0.00    +0.000 N 
ATOM     20  C   UNL     1       1.846   8.570  18.100  0.00  0.00    +0.000 C 
ATOM     21  O   UNL     1       0.984   7.911  17.526  0.00  0.00    +0.000 OA
ATOM     22  H   UNL     1       3.576   8.615  19.235  0.00  0.00    +0.000 HD
BRANCH  20  23
ATOM     23  C   UNL     1       1.726  10.067  18.293  0.00  0.00    +0.000 C 
BRANCH  23  24
ATOM     24  C   UNL     1       0.856  10.398  19.481  0.00  0.00    +0.000 A 
ATOM     25  C   UNL     1       0.623   9.397  20.434  0.00  0.00    +0.000 A 
ATOM     26  C   UNL     1      -0.144   9.658  21.574  0.00  0.00    +0.000 A 
ATOM     27  C   UNL     1      -0.673  10.931  21.770  0.00  0.00    +0.000 A 
ATOM     28 CL   UNL     1      -1.614  11.255  23.173  0.00  0.00    +0.000 Cl
ATOM     29  C   UNL     1      -0.443  11.943  20.844  0.00  0.00    +0.000 A 
ATOM     30  C   UNL     1       0.322  11.679  19.705  0.00  0.00    +0.000 A 
ATOM     31 CL   UNL     1       0.591  12.985  18.606  0.00  0.00    +0.000 Cl
ENDBRANCH  23  24
ENDBRANCH  20  23
ENDBRANCH  18  19
ENDBRANCH   6  18
TORSDOF 6
ENDMDL
MODEL 6
REMARK VINA RESULT:      -8.4      1.589      1.933
REMARK  Name = 
REMARK  7 active torsions:
REMARK  status: ('A' for Active; 'I' for Inactive)
REMARK    1  A    between atoms: C_1  and  C_2
REMARK    2  A    between atoms: N_5  and  C_6
REMARK    3  A    between atoms: C_8  and  C_9
REMARK    4  A    between atoms: C_15  and  C_16
REMARK    5  A    between atoms: C_16  and  N_17
REMARK    6  A    between atoms: C_18  and  C_20
REMARK    7  A    between atoms: C_20  and  C_21
REMARK                            x       y       z     vdW  Elec       q    Type
REMARK                         _______ _______ _______ _____ _____    ______ ____
ROOT
ATOM      1  C   UNL     1       3.826   4.688  17.406  0.00  0.00    +0.000 A 
ATOM      2  N   UNL     1       4.407   4.140  16.310  0.00  0.00    +0.000 NA
ATOM      3  C   UNL     1       5.154   4.928  15.478  0.00  0.00    +0.000 A 
ATOM      4  C   UNL     1       5.345   6.283  15.717  0.00  0.00    +0.000 A 
ATOM      5  C   UNL     1       4.767   6.843  16.841  0.00  0.00    +0.000 A 
ATOM      6  C   UNL     1       4.022   6.047  17.722  0.00  0.00    +0.000 A 
ENDROOT
BRANCH   1  11
ATOM      7  C   UNL     1       1.340   2.788  21.878  0.00  0.00    +0.000 C 
ATOM      8  C   UNL     1       1.775   2.595  20.424  0.00  0.00    +0.000 C 
ATOM      9  C   UNL     1       3.315   2.651  20.318  0.00  0.00    +0.000 C 
ATOM     10  C   UNL     1       3.805   2.720  18.866  0.00  0.00    +0.000 C 
ATOM     11  N   UNL     1       3.124   3.859  18.263  0.00  0.00    +0.000 N 
ATOM     12  C   UNL     1       1.684   3.664  18.115  0.00  0.00    +0.000 C 
ATOM     13  C   UNL     1       1.086   3.642  19.527  0.00  0.00    +0.000 C 
ENDBRANCH   1  11
BRANCH   3  14
ATOM     14  C   UNL     1       5.815   4.327  14.246  0.00  0.00    +0.000 C 
ATOM     15  F   UNL     1       4.963   4.034  13.223  0.00  0.00    +0.000 F 
ATOM     16  F   UNL     1       6.766   5.151  13.713  0.00  0.00    +0.000 F 
ATOM     17  F   UNL     1       6.471   3.160  14.527  0.00  0.00    +0.000 F 
ENDBRANCH   3  14
BRANCH   6  18
ATOM     18  C   UNL     1       3.456   6.642  18.986  0.00  0.00    +0.000 C 
BRANCH  18  19
ATOM     19  N   UNL     1       2.149   7.241  18.842  0.00  0.00    +0.000 N 
ATOM     20  C   UNL     1       1.990   8.538  18.414  0.00  0.00    +0.000 C 
ATOM     21  O   UNL     1       2.917   9.323  18.244  0.00  0.00    +0.000 OA
ATOM     22  H   UNL     1       1.357   6.607  18.810  0.00  0.00    +0.000 HD
BRANCH  20  23
ATOM     23  C   UNL     1       0.550   8.914  18.143  0.00  0.00    +0.000 C 
BRANCH  23  24
ATOM     24  C   UNL     1       0.107  10.058  19.023  0.00  0.00    +0.000 A 
ATOM     25  C   UNL     1      -0.077  11.317  18.434  0.00  0.00    +0.000 A 
ATOM     26  C   UNL     1      -0.522  12.404  19.193  0.00  0.00    +0.000 A 
ATOM     27  C   UNL     1      -0.795  12.232  20.547  0.00  0.00    +0.000 A 
ATOM     28 CL   UNL     1      -1.345  13.567  21.481  0.00  0.00    +0.000 Cl
ATOM     29  C   UNL     1      -0.632  10.988  21.149  0.00  0.00    +0.000 A 
ATOM     30  C   UNL     1      -0.186   9.904  20.389  0.00  0.00    +0.000 A 
ATOM     31 CL   UNL     1      -0.027   8.381  21.191  0.00  0.00    +0.000 Cl
ENDBRANCH  23  24
ENDBRANCH  20  23
ENDBRANCH  18  19
ENDBRANCH   6  18
TORSDOF 6
ENDMDL
MODEL 7
REMARK VINA RESULT:      -8.3      1.827      2.325
REMARK  Name = 
REMARK  7 active torsions:
REMARK  status: ('A' for Active; 'I' for Inactive)
REMARK    1  A    between atoms: C_1  and  C_2
REMARK    2  A    between atoms: N_5  and  C_6
REMARK    3  A    between atoms: C_8  and  C_9
REMARK    4  A    between atoms: C_15  and  C_16
REMARK    5  A    between atoms: C_16  and  N_17
REMARK    6  A    between atoms: C_18  and  C_20
REMARK    7  A    between atoms: C_20  and  C_21
REMARK                            x       y       z     vdW  Elec       q    Type
REMARK                         _______ _______ _______ _____ _____    ______ ____
ROOT
ATOM      1  C   UNL     1       3.791   4.668  17.474  0.00  0.00    +0.000 A 
ATOM      2  N   UNL     1       4.458   4.147  16.415  0.00  0.00    +0.000 NA
ATOM      3  C   UNL     1       5.170   4.977  15.593  0.00  0.00    +0.000 A 
ATOM      4  C   UNL     1       5.241   6.348  15.807  0.00  0.00    +0.000 A 
ATOM      5  C   UNL     1       4.574   6.881  16.895  0.00  0.00    +0.000 A 
ATOM      6  C   UNL     1       3.863   6.045  17.766  0.00  0.00    +0.000 A 
ENDROOT
BRANCH   1  11
ATOM      7  C   UNL     1       1.307   2.655  21.898  0.00  0.00    +0.000 C 
ATOM      8  C   UNL     1       1.804   2.473  20.462  0.00  0.00    +0.000 C 
ATOM      9  C   UNL     1       3.339   2.645  20.406  0.00  0.00    +0.000 C 
ATOM     10  C   UNL     1       3.871   2.728  18.970  0.00  0.00    +0.000 C 
ATOM     11  N   UNL     1       3.126   3.802  18.323  0.00  0.00    +0.000 N 
ATOM     12  C   UNL     1       1.710   3.494  18.132  0.00  0.00    +0.000 C 
ATOM     13  C   UNL     1       1.069   3.449  19.524  0.00  0.00    +0.000 C 
ENDBRANCH   1  11
BRANCH   3  14
ATOM     14  C   UNL     1       5.927   4.408  14.402  0.00  0.00    +0.000 C 
ATOM     15  F   UNL     1       6.891   5.225  13.891  0.00  0.00    +0.000 F 
ATOM     16  F   UNL     1       6.557   3.232  14.700  0.00  0.00    +0.000 F 
ATOM     17  F   UNL     1       5.098   4.113  13.354  0.00  0.00    +0.000 F 
ENDBRANCH   3  14
BRANCH   6  18
ATOM     18  C   UNL     1       3.199   6.616  18.993  0.00  0.00    +0.000 C 
BRANCH  18  19
ATOM     19  N   UNL     1       2.140   7.561  18.725  0.00  0.00    +0.000 N 
ATOM     20  C   UNL     1       1.701   8.446  19.681  0.00  0.00    +0.000 C 
ATOM     21  O   UNL     1       2.066   8.429  20.852  0.00  0.00    +0.000 OA
ATOM     22  H   UNL     1       1.916   7.732  17.750  0.00  0.00    +0.000 HD
BRANCH  20  23
ATOM     23  C   UNL     1       0.727   9.476  19.151  0.00  0.00    +0.000 C 
BRANCH  23  24
ATOM     24  C   UNL     1       0.337  10.464  20.224  0.00  0.00    +0.000 A 
ATOM     25  C   UNL     1       0.646  11.817  20.025  0.00  0.00    +0.000 A 
ATOM     26  C   UNL     1       0.275  12.782  20.967  0.00  0.00    +0.000 A 
ATOM     27  C   UNL     1      -0.418  12.396  22.111  0.00  0.00    +0.000 A 
ATOM     28 CL   UNL     1      -0.878  13.581  23.269  0.00  0.00    +0.000 Cl
ATOM     29  C   UNL     1      -0.747  11.060  22.322  0.00  0.00    +0.000 A 
ATOM     30  C   UNL     1      -0.374  10.098  21.380  0.00  0.00    +0.000 A 
ATOM     31 CL   UNL     1      -0.833   8.461  21.689  0.00  0.00    +0.000 Cl
ENDBRANCH  23  24
ENDBRANCH  20  23
ENDBRANCH  18  19
ENDBRANCH   6  18
TORSDOF 6
ENDMDL
MODEL 8
REMARK VINA RESULT:      -8.3      1.009      1.258
REMARK  Name = 
REMARK  7 active torsions:
REMARK  status: ('A' for Active; 'I' for Inactive)
REMARK    1  A    between atoms: C_1  and  C_2
REMARK    2  A    between atoms: N_5  and  C_6
REMARK    3  A    between atoms: C_8  and  C_9
REMARK    4  A    between atoms: C_15  and  C_16
REMARK    5  A    between atoms: C_16  and  N_17
REMARK    6  A    between atoms: C_18  and  C_20
REMARK    7  A    between atoms: C_20  and  C_21
REMARK                            x       y       z     vdW  Elec       q    Type
REMARK                         _______ _______ _______ _____ _____    ______ ____
ROOT
ATOM      1  C   UNL     1       3.286   5.407  17.936  0.00  0.00    +0.000 A 
ATOM      2  N   UNL     1       4.056   4.635  17.130  0.00  0.00    +0.000 NA
ATOM      3  C   UNL     1       4.919   5.230  16.252  0.00  0.00    +0.000 A 
ATOM      4  C   UNL     1       5.042   6.610  16.156  0.00  0.00    +0.000 A 
ATOM      5  C   UNL     1       4.270   7.401  16.986  0.00  0.00    +0.000 A 
ATOM      6  C   UNL     1       3.400   6.811  17.914  0.00  0.00    +0.000 A 
ENDROOT
BRANCH   1  11
ATOM      7  C   UNL     1       1.566   2.113  21.934  0.00  0.00    +0.000 C 
ATOM      8  C   UNL     1       1.268   3.184  20.883  0.00  0.00    +0.000 C 
ATOM      9  C   UNL     1       1.581   2.644  19.470  0.00  0.00    +0.000 C 
ATOM     10  C   UNL     1       1.549   3.741  18.399  0.00  0.00    +0.000 C 
ATOM     11  N   UNL     1       2.463   4.781  18.855  0.00  0.00    +0.000 N 
ATOM     12  C   UNL     1       1.999   5.477  20.053  0.00  0.00    +0.000 C 
ATOM     13  C   UNL     1       2.053   4.470  21.208  0.00  0.00    +0.000 C 
ENDBRANCH   1  11
BRANCH   3  14
ATOM     14  C   UNL     1       5.793   4.378  15.343  0.00  0.00    +0.000 C 
ATOM     15  F   UNL     1       7.092   4.780  15.254  0.00  0.00    +0.000 F 
ATOM     16  F   UNL     1       5.836   3.070  15.740  0.00  0.00    +0.000 F 
ATOM     17  F   UNL     1       5.326   4.345  14.057  0.00  0.00    +0.000 F 
ENDBRANCH   3  14
BRANCH   6  18
ATOM     18  C   UNL     1       2.614   7.672  18.870  0.00  0.00    +0.000 C 
BRANCH  18  19
ATOM     19  N   UNL     1       1.936   8.792  18.261  0.00  0.00    +0.000 N 
ATOM     20  C   UNL     1       1.033   9.559  18.959  0.00  0.00    +0.000 C 
ATOM     21  O   UNL     1       0.636   9.293  20.089  0.00  0.00    +0.000 OA
ATOM     22  H   UNL     1       2.333   9.154  17.400  0.00  0.00    +0.000 HD
BRANCH  20  23
ATOM     23  C   UNL     1       0.580  10.793  18.211  0.00  0.00    +0.000 C 
BRANCH  23  24
ATOM     24  C   UNL     1      -0.926  10.872  18.144  0.00  0.00    +0.000 A 
ATOM     25  C   UNL     1      -1.604   9.953  17.332  0.00  0.00    +0.000 A 
ATOM     26  C   UNL     1      -3.001   9.955  17.261  0.00  0.00    +0.000 A 
ATOM     27  C   UNL     1      -3.727  10.874  18.014  0.00  0.00    +0.000 A 
ATOM     28 CL   UNL     1      -5.445  10.876  17.930  0.00  0.00    +0.000 Cl
ATOM     29  C   UNL     1      -3.074  11.787  18.836  0.00  0.00    +0.000 A 
ATOM     30  C   UNL     1      -1.679  11.783  18.905  0.00  0.00    +0.000 A 
ATOM     31 CL   UNL     1      -0.931  12.927  19.964  0.00  0.00    +0.000 Cl
ENDBRANCH  23  24
ENDBRANCH  20  23
ENDBRANCH  18  19
ENDBRANCH   6  18
TORSDOF 6
ENDMDL
MODEL 9
REMARK VINA RESULT:      -8.2      1.312      1.992
REMARK  Name = 
REMARK  7 active torsions:
REMARK  status: ('A' for Active; 'I' for Inactive)
REMARK    1  A    between atoms: C_1  and  C_2
REMARK    2  A    between atoms: N_5  and  C_6
REMARK    3  A    between atoms: C_8  and  C_9
REMARK    4  A    between atoms: C_15  and  C_16
REMARK    5  A    between atoms: C_16  and  N_17
REMARK    6  A    between atoms: C_18  and  C_20
REMARK    7  A    between atoms: C_20  and  C_21
REMARK                            x       y       z     vdW  Elec       q    Type
REMARK                         _______ _______ _______ _____ _____    ______ ____
ROOT
ATOM      1  C   UNL     1       3.734   4.751  17.415  0.00  0.00    +0.000 A 
ATOM      2  N   UNL     1       4.527   4.198  16.465  0.00  0.00    +0.000 NA
ATOM      3  C   UNL     1       5.255   5.010  15.639  0.00  0.00    +0.000 A 
ATOM      4  C   UNL     1       5.216   6.395  15.741  0.00  0.00    +0.000 A 
ATOM      5  C   UNL     1       4.420   6.963  16.719  0.00  0.00    +0.000 A 
ATOM      6  C   UNL     1       3.688   6.147  17.594  0.00  0.00    +0.000 A 
ENDROOT
BRANCH   1  11
ATOM      7  C   UNL     1       1.295   2.804  21.893  0.00  0.00    +0.000 C 
ATOM      8  C   UNL     1       1.734   2.618  20.440  0.00  0.00    +0.000 C 
ATOM      9  C   UNL     1       3.273   2.710  20.333  0.00  0.00    +0.000 C 
ATOM     10  C   UNL     1       3.760   2.787  18.881  0.00  0.00    +0.000 C 
ATOM     11  N   UNL     1       3.052   3.908  18.275  0.00  0.00    +0.000 N 
ATOM     12  C   UNL     1       1.616   3.678  18.128  0.00  0.00    +0.000 C 
ATOM     13  C   UNL     1       1.020   3.645  19.540  0.00  0.00    +0.000 C 
ENDBRANCH   1  11
BRANCH   3  14
ATOM     14  C   UNL     1       6.153   4.405  14.569  0.00  0.00    +0.000 C 
ATOM     15  F   UNL     1       5.531   4.129  13.389  0.00  0.00    +0.000 F 
ATOM     16  F   UNL     1       7.205   5.218  14.254  0.00  0.00    +0.000 F 
ATOM     17  F   UNL     1       6.720   3.228  14.974  0.00  0.00    +0.000 F 
ENDBRANCH   3  14
BRANCH   6  18
ATOM     18  C   UNL     1       2.880   6.764  18.707  0.00  0.00    +0.000 C 
BRANCH  18  19
ATOM     19  N   UNL     1       2.737   8.199  18.629  0.00  0.00    +0.000 N 
ATOM     20  C   UNL     1       1.637   8.787  18.049  0.00  0.00    +0.000 C 
ATOM     21  O   UNL     1       0.765   8.168  17.447  0.00  0.00    +0.000 OA
ATOM     22  H   UNL     1       3.331   8.752  19.239  0.00  0.00    +0.000 HD
BRANCH  20  23
ATOM     23  C   UNL     1       1.582  10.287  18.238  0.00  0.00    +0.000 C 
BRANCH  23  24
ATOM     24  C   UNL     1       0.606  10.667  19.325  0.00  0.00    +0.000 A 
ATOM     25  C   UNL     1       1.096  10.839  20.627  0.00  0.00    +0.000 A 
ATOM     26  C   UNL     1       0.245  11.227  21.667  0.00  0.00    +0.000 A 
ATOM     27  C   UNL     1      -1.103  11.455  21.403  0.00  0.00    +0.000 A 
ATOM     28 CL   UNL     1      -2.151  11.936  22.680  0.00  0.00    +0.000 Cl
ATOM     29  C   UNL     1      -1.608  11.303  20.116  0.00  0.00    +0.000 A 
ATOM     30  C   UNL     1      -0.756  10.915  19.079  0.00  0.00    +0.000 A 
ATOM     31 CL   UNL     1      -1.440  10.766  17.499  0.00  0.00    +0.000 Cl
ENDBRANCH  23  24
ENDBRANCH  20  23
ENDBRANCH  18  19
ENDBRANCH   6  18
TORSDOF 6
ENDMDL
