MODEL 1
REMARK VINA RESULT:      -8.0      0.000      0.000
REMARK  Name = 
REMARK  10 active torsions:
REMARK  status: ('A' for Active; 'I' for Inactive)
REMARK    1  A    between atoms: C_1  and  O_2
REMARK    2  A    between atoms: O_2  and  C_3
REMARK    3  A    between atoms: C_6  and  C_7
REMARK    4  A    between atoms: C_7  and  N_8
REMARK    5  A    between atoms: C_10  and  C_11
REMARK    6  A    between atoms: C_15  and  N_16
REMARK    7  A    between atoms: N_16  and  C_17
REMARK    8  A    between atoms: C_19  and  O_20
REMARK    9  A    between atoms: C_22  and  O_23
REMARK   10  A    between atoms: C_24  and  C_25
REMARK                            x       y       z     vdW  Elec       q    Type
REMARK                         _______ _______ _______ _____ _____    ______ ____
ROOT
ATOM      1  C   UNL     1      -0.410  12.166  21.476  0.00  0.00    +0.000 A 
ATOM      2  C   UNL     1      -1.494  11.595  22.188  0.00  0.00    +0.000 A 
ATOM      3  C   UNL     1      -2.153  12.280  23.193  0.00  0.00    +0.000 A 
ATOM      4  C   UNL     1      -1.753  13.555  23.530  0.00  0.00    +0.000 A 
ATOM      5  C   UNL     1      -0.681  14.146  22.846  0.00  0.00    +0.000 A 
ATOM      6  C   UNL     1       0.021  13.474  21.806  0.00  0.00    +0.000 A 
ENDROOT
BRANCH   6   7
ATOM      7  C   UNL     1       1.307  14.085  21.317  0.00  0.00    +0.000 C 
ATOM      8  O   UNL     1       2.351  13.513  21.645  0.00  0.00    +0.000 OA
ATOM      9  N   UNL     1       1.393  15.178  20.460  0.00  0.00    +0.000 N 
ATOM     10  C   UNL     1       2.724  15.565  19.971  0.00  0.00    +0.000 C 
ATOM     11  C   UNL     1       2.414  16.410  18.782  0.00  0.00    +0.000 A 
ATOM     12  C   UNL     1       3.204  16.764  17.702  0.00  0.00    +0.000 A 
ATOM     13  C   UNL     1       2.601  17.489  16.680  0.00  0.00    +0.000 A 
ATOM     14  C   UNL     1       1.255  17.840  16.797  0.00  0.00    +0.000 A 
ATOM     15  N   UNL     1       0.465  17.508  17.854  0.00  0.00    +0.000 NA
ATOM     16  C   UNL     1       1.080  16.799  18.817  0.00  0.00    +0.000 A 
ATOM     17  C   UNL     1       0.399  16.169  20.019  0.00  0.00    +0.000 C 
ENDBRANCH   6   7
BRANCH   1  18
ATOM     18  N   UNL     1       0.217  11.362  20.486  0.00  0.00    +0.000 N 
ATOM     19  H   UNL     1       0.969  10.808  20.895  0.00  0.00    +0.000 HD
BRANCH  18  24
ATOM     20  N   UNL     1       0.209  10.253  18.344  0.00  0.00    +0.000 N 
ATOM     21  N   UNL     1      -0.657   9.768  17.424  0.00  0.00    +0.000 NA
ATOM     22  C   UNL     1      -1.831  10.282  17.795  0.00  0.00    +0.000 A 
ATOM     23  C   UNL     1      -1.711  11.136  18.904  0.00  0.00    +0.000 A 
ATOM     24  C   UNL     1      -0.408  10.974  19.338  0.00  0.00    +0.000 A 
BRANCH  22  25
ATOM     25  C   UNL     1      -3.125   9.884  17.101  0.00  0.00    +0.000 C 
ATOM     26  C   UNL     1      -3.918  10.934  16.342  0.00  0.00    +0.000 C 
ATOM     27  C   UNL     1      -3.206   9.863  15.592  0.00  0.00    +0.000 C 
ENDBRANCH  22  25
BRANCH  20  28
ATOM     28  C   UNL     1       1.623   9.914  18.249  0.00  0.00    +0.000 C 
BRANCH  28  32
ATOM     29  C   UNL     1       2.377   5.885  19.639  0.00  0.00    +0.000 A 
ATOM     30  C   UNL     1       1.877   6.849  20.513  0.00  0.00    +0.000 A 
ATOM     31  C   UNL     1       1.632   8.150  20.070  0.00  0.00    +0.000 A 
ATOM     32  C   UNL     1       1.908   8.517  18.745  0.00  0.00    +0.000 A 
ATOM     33  C   UNL     1       2.432   7.550  17.877  0.00  0.00    +0.000 A 
ATOM     34  C   UNL     1       2.668   6.245  18.322  0.00  0.00    +0.000 A 
BRANCH  29  36
ATOM     35  C   UNL     1       2.490   3.555  19.274  0.00  0.00    +0.000 C 
ATOM     36  O   UNL     1       2.583   4.648  20.180  0.00  0.00    +0.000 OA
ENDBRANCH  29  36
ENDBRANCH  28  32
ENDBRANCH  20  28
ENDBRANCH  18  24
ENDBRANCH   1  18
BRANCH   3  37
ATOM     37  O   UNL     1      -3.188  11.709  23.876  0.00  0.00    +0.000 OA
ATOM     38  H   UNL     1      -3.497  10.925  23.377  0.00  0.00    +0.000 HD
ENDBRANCH   3  37
BRANCH   5  39
ATOM     39  O   UNL     1      -0.339  15.423  23.222  0.00  0.00    +0.000 OA
ATOM     40  H   UNL     1      -1.056  15.804  23.757  0.00  0.00    +0.000 HD
ENDBRANCH   5  39
TORSDOF 9
ENDMDL
MODEL 2
REMARK VINA RESULT:      -7.9      2.113      4.698
REMARK  Name = 
REMARK  10 active torsions:
REMARK  status: ('A' for Active; 'I' for Inactive)
REMARK    1  A    between atoms: C_1  and  O_2
REMARK    2  A    between atoms: O_2  and  C_3
REMARK    3  A    between atoms: C_6  and  C_7
REMARK    4  A    between atoms: C_7  and  N_8
REMARK    5  A    between atoms: C_10  and  C_11
REMARK    6  A    between atoms: C_15  and  N_16
REMARK    7  A    between atoms: N_16  and  C_17
REMARK    8  A    between atoms: C_19  and  O_20
REMARK    9  A    between atoms: C_22  and  O_23
REMARK   10  A    between atoms: C_24  and  C_25
REMARK                            x       y       z     vdW  Elec       q    Type
REMARK                         _______ _______ _______ _____ _____    ______ ____
ROOT
ATOM      1  C   UNL     1       1.096  12.787  20.557  0.00  0.00    +0.000 A 
ATOM      2  C   UNL     1       1.920  13.644  19.786  0.00  0.00    +0.000 A 
ATOM      3  C   UNL     1       2.020  14.998  20.053  0.00  0.00    +0.000 A 
ATOM      4  C   UNL     1       1.300  15.548  21.091  0.00  0.00    +0.000 A 
ATOM      5  C   UNL     1       0.475  14.725  21.871  0.00  0.00    +0.000 A 
ATOM      6  C   UNL     1       0.346  13.328  21.628  0.00  0.00    +0.000 A 
ENDROOT
BRANCH   6   7
ATOM      7  C   UNL     1      -0.752  12.589  22.346  0.00  0.00    +0.000 C 
ATOM      8  O   UNL     1      -0.399  11.726  23.157  0.00  0.00    +0.000 OA
ATOM      9  N   UNL     1      -2.109  12.870  22.228  0.00  0.00    +0.000 N 
ATOM     10  C   UNL     1      -3.040  12.142  23.102  0.00  0.00    +0.000 C 
ATOM     11  C   UNL     1      -4.273  12.978  23.052  0.00  0.00    +0.000 A 
ATOM     12  C   UNL     1      -5.353  13.040  23.916  0.00  0.00    +0.000 A 
ATOM     13  C   UNL     1      -6.322  14.004  23.662  0.00  0.00    +0.000 A 
ATOM     14  C   UNL     1      -6.175  14.840  22.554  0.00  0.00    +0.000 A 
ATOM     15  N   UNL     1      -5.126  14.791  21.689  0.00  0.00    +0.000 NA
ATOM     16  C   UNL     1      -4.206  13.851  21.973  0.00  0.00    +0.000 A 
ATOM     17  C   UNL     1      -2.870  13.687  21.270  0.00  0.00    +0.000 C 
ENDBRANCH   6   7
BRANCH   1  18
ATOM     18  N   UNL     1       1.041  11.418  20.176  0.00  0.00    +0.000 N 
ATOM     19  H   UNL     1       1.312  10.817  20.954  0.00  0.00    +0.000 HD
BRANCH  18  24
ATOM     20  N   UNL     1       0.657  10.017  18.251  0.00  0.00    +0.000 N 
ATOM     21  N   UNL     1      -0.359   9.533  17.499  0.00  0.00    +0.000 NA
ATOM     22  C   UNL     1      -1.410  10.261  17.884  0.00  0.00    +0.000 A 
ATOM     23  C   UNL     1      -1.061  11.243  18.825  0.00  0.00    +0.000 A 
ATOM     24  C   UNL     1       0.250  10.960  19.165  0.00  0.00    +0.000 A 
BRANCH  22  25
ATOM     25  C   UNL     1      -2.812   9.956  17.378  0.00  0.00    +0.000 C 
ATOM     26  C   UNL     1      -3.585  11.030  16.631  0.00  0.00    +0.000 C 
ATOM     27  C   UNL     1      -3.079   9.838  15.896  0.00  0.00    +0.000 C 
ENDBRANCH  22  25
BRANCH  20  28
ATOM     28  C   UNL     1       1.996   9.467  18.088  0.00  0.00    +0.000 C 
BRANCH  28  32
ATOM     29  C   UNL     1       2.284   5.487  19.764  0.00  0.00    +0.000 A 
ATOM     30  C   UNL     1       1.883   6.558  20.561  0.00  0.00    +0.000 A 
ATOM     31  C   UNL     1       1.788   7.844  20.025  0.00  0.00    +0.000 A 
ATOM     32  C   UNL     1       2.119   8.085  18.685  0.00  0.00    +0.000 A 
ATOM     33  C   UNL     1       2.544   7.008  17.894  0.00  0.00    +0.000 A 
ATOM     34  C   UNL     1       2.629   5.720  18.432  0.00  0.00    +0.000 A 
BRANCH  29  36
ATOM     35  C   UNL     1       1.101   3.611  20.574  0.00  0.00    +0.000 C 
ATOM     36  O   UNL     1       2.346   4.275  20.392  0.00  0.00    +0.000 OA
ENDBRANCH  29  36
ENDBRANCH  28  32
ENDBRANCH  20  28
ENDBRANCH  18  24
ENDBRANCH   1  18
BRANCH   3  37
ATOM     37  O   UNL     1       2.810  15.812  19.292  0.00  0.00    +0.000 OA
ATOM     38  H   UNL     1       2.459  16.725  19.343  0.00  0.00    +0.000 HD
ENDBRANCH   3  37
BRANCH   5  39
ATOM     39  O   UNL     1      -0.208  15.333  22.898  0.00  0.00    +0.000 OA
ATOM     40  H   UNL     1      -0.812  14.690  23.307  0.00  0.00    +0.000 HD
ENDBRANCH   5  39
TORSDOF 9
ENDMDL
MODEL 3
REMARK VINA RESULT:      -7.9      3.660      9.623
REMARK  Name = 
REMARK  10 active torsions:
REMARK  status: ('A' for Active; 'I' for Inactive)
REMARK    1  A    between atoms: C_1  and  O_2
REMARK    2  A    between atoms: O_2  and  C_3
REMARK    3  A    between atoms: C_6  and  C_7
REMARK    4  A    between atoms: C_7  and  N_8
REMARK    5  A    between atoms: C_10  and  C_11
REMARK    6  A    between atoms: C_15  and  N_16
REMARK    7  A    between atoms: N_16  and  C_17
REMARK    8  A    between atoms: C_19  and  O_20
REMARK    9  A    between atoms: C_22  and  O_23
REMARK   10  A    between atoms: C_24  and  C_25
REMARK                            x       y       z     vdW  Elec       q    Type
REMARK                         _______ _______ _______ _____ _____    ______ ____
ROOT
ATOM      1  C   UNL     1       2.811   5.504  19.518  0.00  0.00    +0.000 A 
ATOM      2  C   UNL     1       1.702   4.791  20.038  0.00  0.00    +0.000 A 
ATOM      3  C   UNL     1       1.788   3.454  20.384  0.00  0.00    +0.000 A 
ATOM      4  C   UNL     1       2.977   2.778  20.219  0.00  0.00    +0.000 A 
ATOM      5  C   UNL     1       4.091   3.456  19.704  0.00  0.00    +0.000 A 
ATOM      6  C   UNL     1       4.043   4.831  19.337  0.00  0.00    +0.000 A 
ENDROOT
BRANCH   6   7
ATOM      7  C   UNL     1       5.203   5.392  18.559  0.00  0.00    +0.000 C 
ATOM      8  O   UNL     1       6.125   5.884  19.219  0.00  0.00    +0.000 OA
ATOM      9  N   UNL     1       5.348   5.313  17.178  0.00  0.00    +0.000 N 
ATOM     10  C   UNL     1       6.606   5.792  16.589  0.00  0.00    +0.000 C 
ATOM     11  C   UNL     1       6.611   5.158  15.241  0.00  0.00    +0.000 A 
ATOM     12  C   UNL     1       7.655   4.919  14.364  0.00  0.00    +0.000 A 
ATOM     13  C   UNL     1       7.367   4.207  13.205  0.00  0.00    +0.000 A 
ATOM     14  C   UNL     1       6.056   3.789  12.971  0.00  0.00    +0.000 A 
ATOM     15  N   UNL     1       5.015   4.020  13.816  0.00  0.00    +0.000 NA
ATOM     16  C   UNL     1       5.334   4.704  14.930  0.00  0.00    +0.000 A 
ATOM     17  C   UNL     1       4.406   4.956  16.105  0.00  0.00    +0.000 C 
ENDBRANCH   6   7
BRANCH   1  18
ATOM     18  N   UNL     1       2.604   6.865  19.164  0.00  0.00    +0.000 N 
ATOM     19  H   UNL     1       2.681   6.991  18.155  0.00  0.00    +0.000 HD
BRANCH  18  24
ATOM     20  N   UNL     1       1.430   8.948  19.484  0.00  0.00    +0.000 N 
ATOM     21  N   UNL     1       0.543   9.527  20.327  0.00  0.00    +0.000 NA
ATOM     22  C   UNL     1       0.521   8.702  21.376  0.00  0.00    +0.000 A 
ATOM     23  C   UNL     1       1.431   7.640  21.237  0.00  0.00    +0.000 A 
ATOM     24  C   UNL     1       1.889   7.733  19.935  0.00  0.00    +0.000 A 
BRANCH  22  25
ATOM     25  C   UNL     1      -0.456   8.906  22.524  0.00  0.00    +0.000 C 
ATOM     26  C   UNL     1       0.034   9.530  23.820  0.00  0.00    +0.000 C 
ATOM     27  C   UNL     1      -0.878  10.299  22.928  0.00  0.00    +0.000 C 
ENDBRANCH  22  25
BRANCH  20  28
ATOM     28  C   UNL     1       1.735   9.589  18.212  0.00  0.00    +0.000 C 
BRANCH  28  32
ATOM     29  C   UNL     1       1.436  13.896  18.501  0.00  0.00    +0.000 A 
ATOM     30  C   UNL     1       0.317  13.097  18.729  0.00  0.00    +0.000 A 
ATOM     31  C   UNL     1       0.408  11.706  18.637  0.00  0.00    +0.000 A 
ATOM     32  C   UNL     1       1.619  11.092  18.289  0.00  0.00    +0.000 A 
ATOM     33  C   UNL     1       2.735  11.902  18.038  0.00  0.00    +0.000 A 
ATOM     34  C   UNL     1       2.642  13.294  18.140  0.00  0.00    +0.000 A 
BRANCH  29  36
ATOM     35  C   UNL     1      -0.126  15.653  18.719  0.00  0.00    +0.000 C 
ATOM     36  O   UNL     1       1.232  15.243  18.613  0.00  0.00    +0.000 OA
ENDBRANCH  29  36
ENDBRANCH  28  32
ENDBRANCH  20  28
ENDBRANCH  18  24
ENDBRANCH   1  18
BRANCH   3  37
ATOM     37  O   UNL     1       0.706   2.780  20.874  0.00  0.00    +0.000 OA
ATOM     38  H   UNL     1       0.349   3.276  21.639  0.00  0.00    +0.000 HD
ENDBRANCH   3  37
BRANCH   5  39
ATOM     39  O   UNL     1       5.250   2.728  19.573  0.00  0.00    +0.000 OA
ATOM     40  H   UNL     1       6.014   3.325  19.639  0.00  0.00    +0.000 HD
ENDBRANCH   5  39
TORSDOF 9
ENDMDL
MODEL 4
REMARK VINA RESULT:      -7.8      2.406      5.217
REMARK  Name = 
REMARK  10 active torsions:
REMARK  status: ('A' for Active; 'I' for Inactive)
REMARK    1  A    between atoms: C_1  and  O_2
REMARK    2  A    between atoms: O_2  and  C_3
REMARK    3  A    between atoms: C_6  and  C_7
REMARK    4  A    between atoms: C_7  and  N_8
REMARK    5  A    between atoms: C_10  and  C_11
REMARK    6  A    between atoms: C_15  and  N_16
REMARK    7  A    between atoms: N_16  and  C_17
REMARK    8  A    between atoms: C_19  and  O_20
REMARK    9  A    between atoms: C_22  and  O_23
REMARK   10  A    between atoms: C_24  and  C_25
REMARK                            x       y       z     vdW  Elec       q    Type
REMARK                         _______ _______ _______ _____ _____    ______ ____
ROOT
ATOM      1  C   UNL     1      -0.003  14.392  19.337  0.00  0.00    +0.000 A 
ATOM      2  C   UNL     1       0.045  15.304  18.253  0.00  0.00    +0.000 A 
ATOM      3  C   UNL     1      -0.358  16.621  18.385  0.00  0.00    +0.000 A 
ATOM      4  C   UNL     1      -0.828  17.076  19.598  0.00  0.00    +0.000 A 
ATOM      5  C   UNL     1      -0.889  16.197  20.688  0.00  0.00    +0.000 A 
ATOM      6  C   UNL     1      -0.483  14.836  20.592  0.00  0.00    +0.000 A 
ENDROOT
BRANCH   6   7
ATOM      7  C   UNL     1      -0.829  13.917  21.734  0.00  0.00    +0.000 C 
ATOM      8  O   UNL     1       0.063  13.704  22.562  0.00  0.00    +0.000 OA
ATOM      9  N   UNL     1      -2.089  13.376  21.966  0.00  0.00    +0.000 N 
ATOM     10  C   UNL     1      -2.291  12.607  23.202  0.00  0.00    +0.000 C 
ATOM     11  C   UNL     1      -3.774  12.587  23.350  0.00  0.00    +0.000 A 
ATOM     12  C   UNL     1      -4.563  12.350  24.462  0.00  0.00    +0.000 A 
ATOM     13  C   UNL     1      -5.937  12.501  24.315  0.00  0.00    +0.000 A 
ATOM     14  C   UNL     1      -6.453  12.859  23.068  0.00  0.00    +0.000 A 
ATOM     15  N   UNL     1      -5.695  13.088  21.962  0.00  0.00    +0.000 NA
ATOM     16  C   UNL     1      -4.370  12.941  22.145  0.00  0.00    +0.000 A 
ATOM     17  C   UNL     1      -3.297  13.287  21.129  0.00  0.00    +0.000 C 
ENDBRANCH   6   7
BRANCH   1  18
ATOM     18  N   UNL     1       0.403  13.054  19.083  0.00  0.00    +0.000 N 
ATOM     19  H   UNL     1       1.260  12.835  19.591  0.00  0.00    +0.000 HD
BRANCH  18  24
ATOM     20  N   UNL     1      -0.478  10.815  19.247  0.00  0.00    +0.000 N 
ATOM     21  N   UNL     1      -1.569  10.095  18.894  0.00  0.00    +0.000 NA
ATOM     22  C   UNL     1      -2.201  10.886  18.024  0.00  0.00    +0.000 A 
ATOM     23  C   UNL     1      -1.492  12.073  17.773  0.00  0.00    +0.000 A 
ATOM     24  C   UNL     1      -0.463  12.075  18.697  0.00  0.00    +0.000 A 
BRANCH  22  25
ATOM     25  C   UNL     1      -3.567  10.517  17.466  0.00  0.00    +0.000 C 
ATOM     26  C   UNL     1      -4.800  11.250  17.967  0.00  0.00    +0.000 C 
ATOM     27  C   UNL     1      -4.315  11.485  16.579  0.00  0.00    +0.000 C 
ENDBRANCH  22  25
BRANCH  20  28
ATOM     28  C   UNL     1       0.480  10.252  20.189  0.00  0.00    +0.000 C 
BRANCH  28  32
ATOM     29  C   UNL     1       2.881   7.089  18.470  0.00  0.00    +0.000 A 
ATOM     30  C   UNL     1       2.598   8.237  17.731  0.00  0.00    +0.000 A 
ATOM     31  C   UNL     1       1.824   9.261  18.282  0.00  0.00    +0.000 A 
ATOM     32  C   UNL     1       1.297   9.141  19.575  0.00  0.00    +0.000 A 
ATOM     33  C   UNL     1       1.565   7.974  20.303  0.00  0.00    +0.000 A 
ATOM     34  C   UNL     1       2.348   6.954  19.753  0.00  0.00    +0.000 A 
BRANCH  29  36
ATOM     35  C   UNL     1       4.651   6.660  16.967  0.00  0.00    +0.000 C 
ATOM     36  O   UNL     1       3.642   6.150  17.832  0.00  0.00    +0.000 OA
ENDBRANCH  29  36
ENDBRANCH  28  32
ENDBRANCH  20  28
ENDBRANCH  18  24
ENDBRANCH   1  18
BRANCH   3  37
ATOM     37  O   UNL     1      -0.316  17.482  17.327  0.00  0.00    +0.000 OA
ATOM     38  H   UNL     1      -0.480  18.390  17.655  0.00  0.00    +0.000 HD
ENDBRANCH   3  37
BRANCH   5  39
ATOM     39  O   UNL     1      -1.358  16.715  21.872  0.00  0.00    +0.000 OA
ATOM     40  H   UNL     1      -1.888  17.509  21.689  0.00  0.00    +0.000 HD
ENDBRANCH   5  39
TORSDOF 9
ENDMDL
MODEL 5
REMARK VINA RESULT:      -7.8      2.976      6.187
REMARK  Name = 
REMARK  10 active torsions:
REMARK  status: ('A' for Active; 'I' for Inactive)
REMARK    1  A    between atoms: C_1  and  O_2
REMARK    2  A    between atoms: O_2  and  C_3
REMARK    3  A    between atoms: C_6  and  C_7
REMARK    4  A    between atoms: C_7  and  N_8
REMARK    5  A    between atoms: C_10  and  C_11
REMARK    6  A    between atoms: C_15  and  N_16
REMARK    7  A    between atoms: N_16  and  C_17
REMARK    8  A    between atoms: C_19  and  O_20
REMARK    9  A    between atoms: C_22  and  O_23
REMARK   10  A    between atoms: C_24  and  C_25
REMARK                            x       y       z     vdW  Elec       q    Type
REMARK                         _______ _______ _______ _____ _____    ______ ____
ROOT
ATOM      1  C   UNL     1      -2.800  11.268  18.175  0.00  0.00    +0.000 A 
ATOM      2  C   UNL     1      -2.267  10.824  16.939  0.00  0.00    +0.000 A 
ATOM      3  C   UNL     1      -3.026  10.796  15.782  0.00  0.00    +0.000 A 
ATOM      4  C   UNL     1      -4.342  11.203  15.815  0.00  0.00    +0.000 A 
ATOM      5  C   UNL     1      -4.898  11.645  17.024  0.00  0.00    +0.000 A 
ATOM      6  C   UNL     1      -4.150  11.689  18.234  0.00  0.00    +0.000 A 
ENDROOT
BRANCH   6   7
ATOM      7  C   UNL     1      -4.902  11.928  19.517  0.00  0.00    +0.000 C 
ATOM      8  O   UNL     1      -5.862  11.184  19.742  0.00  0.00    +0.000 OA
ATOM      9  N   UNL     1      -4.539  12.853  20.491  0.00  0.00    +0.000 N 
ATOM     10  C   UNL     1      -5.304  12.866  21.745  0.00  0.00    +0.000 C 
ATOM     11  C   UNL     1      -4.403  13.596  22.682  0.00  0.00    +0.000 A 
ATOM     12  C   UNL     1      -4.376  13.622  24.066  0.00  0.00    +0.000 A 
ATOM     13  C   UNL     1      -3.341  14.324  24.672  0.00  0.00    +0.000 A 
ATOM     14  C   UNL     1      -2.403  14.979  23.873  0.00  0.00    +0.000 A 
ATOM     15  N   UNL     1      -2.417  14.973  22.512  0.00  0.00    +0.000 NA
ATOM     16  C   UNL     1      -3.427  14.275  21.962  0.00  0.00    +0.000 A 
ATOM     17  C   UNL     1      -3.587  13.975  20.483  0.00  0.00    +0.000 C 
ENDBRANCH   6   7
BRANCH   1  18
ATOM     18  N   UNL     1      -1.943  11.225  19.308  0.00  0.00    +0.000 N 
ATOM     19  H   UNL     1      -2.085  10.362  19.833  0.00  0.00    +0.000 HD
BRANCH  18  24
ATOM     20  N   UNL     1       0.360  11.431  19.995  0.00  0.00    +0.000 N 
ATOM     21  N   UNL     1       1.465  12.168  19.732  0.00  0.00    +0.000 NA
ATOM     22  C   UNL     1       0.997  13.194  19.018  0.00  0.00    +0.000 A 
ATOM     23  C   UNL     1      -0.400  13.150  18.877  0.00  0.00    +0.000 A 
ATOM     24  C   UNL     1      -0.770  11.916  19.380  0.00  0.00    +0.000 A 
BRANCH  22  25
ATOM     25  C   UNL     1       1.934  14.216  18.392  0.00  0.00    +0.000 C 
ATOM     26  C   UNL     1       2.067  15.591  19.025  0.00  0.00    +0.000 C 
ATOM     27  C   UNL     1       3.200  14.628  19.107  0.00  0.00    +0.000 C 
ENDBRANCH  22  25
BRANCH  20  28
ATOM     28  C   UNL     1       0.480  10.215  20.788  0.00  0.00    +0.000 C 
BRANCH  28  32
ATOM     29  C   UNL     1       2.492   7.048  18.633  0.00  0.00    +0.000 A 
ATOM     30  C   UNL     1       2.051   8.186  17.960  0.00  0.00    +0.000 A 
ATOM     31  C   UNL     1       1.401   9.212  18.651  0.00  0.00    +0.000 A 
ATOM     32  C   UNL     1       1.158   9.102  20.027  0.00  0.00    +0.000 A 
ATOM     33  C   UNL     1       1.584   7.945  20.694  0.00  0.00    +0.000 A 
ATOM     34  C   UNL     1       2.243   6.925  20.001  0.00  0.00    +0.000 A 
BRANCH  29  36
ATOM     35  C   UNL     1       2.482   4.832  17.819  0.00  0.00    +0.000 C 
ATOM     36  O   UNL     1       3.111   6.108  17.858  0.00  0.00    +0.000 OA
ENDBRANCH  29  36
ENDBRANCH  28  32
ENDBRANCH  20  28
ENDBRANCH  18  24
ENDBRANCH   1  18
BRANCH   3  37
ATOM     37  O   UNL     1      -2.499  10.355  14.602  0.00  0.00    +0.000 OA
ATOM     38  H   UNL     1      -2.350  11.126  14.018  0.00  0.00    +0.000 HD
ENDBRANCH   3  37
BRANCH   5  39
ATOM     39  O   UNL     1      -6.212  12.046  16.987  0.00  0.00    +0.000 OA
ATOM     40  H   UNL     1      -6.715  11.448  16.408  0.00  0.00    +0.000 HD
ENDBRANCH   5  39
TORSDOF 9
ENDMDL
MODEL 6
REMARK VINA RESULT:      -7.8      2.415      4.897
REMARK  Name = 
REMARK  10 active torsions:
REMARK  status: ('A' for Active; 'I' for Inactive)
REMARK    1  A    between atoms: C_1  and  O_2
REMARK    2  A    between atoms: O_2  and  C_3
REMARK    3  A    between atoms: C_6  and  C_7
REMARK    4  A    between atoms: C_7  and  N_8
REMARK    5  A    between atoms: C_10  and  C_11
REMARK    6  A    between atoms: C_15  and  N_16
REMARK    7  A    between atoms: N_16  and  C_17
REMARK    8  A    between atoms: C_19  and  O_20
REMARK    9  A    between atoms: C_22  and  O_23
REMARK   10  A    between atoms: C_24  and  C_25
REMARK                            x       y       z     vdW  Elec       q    Type
REMARK                         _______ _______ _______ _____ _____    ______ ____
ROOT
ATOM      1  C   UNL     1       1.650  14.188  19.470  0.00  0.00    +0.000 A 
ATOM      2  C   UNL     1       2.825  13.757  18.805  0.00  0.00    +0.000 A 
ATOM      3  C   UNL     1       3.682  14.646  18.181  0.00  0.00    +0.000 A 
ATOM      4  C   UNL     1       3.397  15.994  18.190  0.00  0.00    +0.000 A 
ATOM      5  C   UNL     1       2.240  16.451  18.838  0.00  0.00    +0.000 A 
ATOM      6  C   UNL     1       1.336  15.568  19.492  0.00  0.00    +0.000 A 
ENDROOT
BRANCH   6   7
ATOM      7  C   UNL     1       0.005  16.121  19.927  0.00  0.00    +0.000 C 
ATOM      8  O   UNL     1      -0.789  16.423  19.030  0.00  0.00    +0.000 OA
ATOM      9  N   UNL     1      -0.419  16.227  21.248  0.00  0.00    +0.000 N 
ATOM     10  C   UNL     1      -1.801  16.663  21.494  0.00  0.00    +0.000 C 
ATOM     11  C   UNL     1      -2.046  16.231  22.899  0.00  0.00    +0.000 A 
ATOM     12  C   UNL     1      -3.233  16.022  23.581  0.00  0.00    +0.000 A 
ATOM     13  C   UNL     1      -3.147  15.514  24.873  0.00  0.00    +0.000 A 
ATOM     14  C   UNL     1      -1.890  15.262  25.423  0.00  0.00    +0.000 A 
ATOM     15  N   UNL     1      -0.713  15.468  24.773  0.00  0.00    +0.000 NA
ATOM     16  C   UNL     1      -0.836  15.951  23.523  0.00  0.00    +0.000 A 
ATOM     17  C   UNL     1       0.299  16.121  22.528  0.00  0.00    +0.000 C 
ENDBRANCH   6   7
BRANCH   1  18
ATOM     18  N   UNL     1       0.824  13.187  20.050  0.00  0.00    +0.000 N 
ATOM     19  H   UNL     1       0.602  13.420  21.017  0.00  0.00    +0.000 HD
BRANCH  18  24
ATOM     20  N   UNL     1      -0.092  11.017  19.533  0.00  0.00    +0.000 N 
ATOM     21  N   UNL     1      -1.121  10.453  18.858  0.00  0.00    +0.000 NA
ATOM     22  C   UNL     1      -1.603  11.457  18.121  0.00  0.00    +0.000 A 
ATOM     23  C   UNL     1      -0.853  12.635  18.273  0.00  0.00    +0.000 A 
ATOM     24  C   UNL     1       0.020  12.370  19.313  0.00  0.00    +0.000 A 
BRANCH  22  25
ATOM     25  C   UNL     1      -2.868  11.295  17.293  0.00  0.00    +0.000 C 
ATOM     26  C   UNL     1      -2.755  11.028  15.801  0.00  0.00    +0.000 C 
ATOM     27  C   UNL     1      -3.232   9.949  16.710  0.00  0.00    +0.000 C 
ENDBRANCH  22  25
BRANCH  20  28
ATOM     28  C   UNL     1       0.702  10.203  20.442  0.00  0.00    +0.000 C 
BRANCH  28  32
ATOM     29  C   UNL     1       2.779   6.980  18.434  0.00  0.00    +0.000 A 
ATOM     30  C   UNL     1       2.518   8.174  17.763  0.00  0.00    +0.000 A 
ATOM     31  C   UNL     1       1.848   9.217  18.407  0.00  0.00    +0.000 A 
ATOM     32  C   UNL     1       1.404   9.072  19.728  0.00  0.00    +0.000 A 
ATOM     33  C   UNL     1       1.649   7.861  20.390  0.00  0.00    +0.000 A 
ATOM     34  C   UNL     1       2.328   6.822  19.745  0.00  0.00    +0.000 A 
BRANCH  29  36
ATOM     35  C   UNL     1       4.821   5.883  17.990  0.00  0.00    +0.000 C 
ATOM     36  O   UNL     1       3.435   6.027  17.707  0.00  0.00    +0.000 OA
ENDBRANCH  29  36
ENDBRANCH  28  32
ENDBRANCH  20  28
ENDBRANCH  18  24
ENDBRANCH   1  18
BRANCH   3  37
ATOM     37  O   UNL     1       4.803  14.212  17.535  0.00  0.00    +0.000 OA
ATOM     38  H   UNL     1       4.598  13.365  17.087  0.00  0.00    +0.000 HD
ENDBRANCH   3  37
BRANCH   5  39
ATOM     39  O   UNL     1       2.019  17.808  18.821  0.00  0.00    +0.000 OA
ATOM     40  H   UNL     1       2.833  18.270  19.083  0.00  0.00    +0.000 HD
ENDBRANCH   5  39
TORSDOF 9
ENDMDL
MODEL 7
REMARK VINA RESULT:      -7.7      1.384      1.851
REMARK  Name = 
REMARK  10 active torsions:
REMARK  status: ('A' for Active; 'I' for Inactive)
REMARK    1  A    between atoms: C_1  and  O_2
REMARK    2  A    between atoms: O_2  and  C_3
REMARK    3  A    between atoms: C_6  and  C_7
REMARK    4  A    between atoms: C_7  and  N_8
REMARK    5  A    between atoms: C_10  and  C_11
REMARK    6  A    between atoms: C_15  and  N_16
REMARK    7  A    between atoms: N_16  and  C_17
REMARK    8  A    between atoms: C_19  and  O_20
REMARK    9  A    between atoms: C_22  and  O_23
REMARK   10  A    between atoms: C_24  and  C_25
REMARK                            x       y       z     vdW  Elec       q    Type
REMARK                         _______ _______ _______ _____ _____    ______ ____
ROOT
ATOM      1  C   UNL     1      -1.732  12.719  22.298  0.00  0.00    +0.000 A 
ATOM      2  C   UNL     1      -2.763  12.038  22.993  0.00  0.00    +0.000 A 
ATOM      3  C   UNL     1      -3.541  12.667  23.949  0.00  0.00    +0.000 A 
ATOM      4  C   UNL     1      -3.318  13.993  24.251  0.00  0.00    +0.000 A 
ATOM      5  C   UNL     1      -2.304  14.692  23.582  0.00  0.00    +0.000 A 
ATOM      6  C   UNL     1      -1.483  14.081  22.593  0.00  0.00    +0.000 A 
ENDROOT
BRANCH   6   7
ATOM      7  C   UNL     1      -0.266  14.834  22.126  0.00  0.00    +0.000 C 
ATOM      8  O   UNL     1       0.823  14.457  22.571  0.00  0.00    +0.000 OA
ATOM      9  N   UNL     1      -0.275  15.848  21.174  0.00  0.00    +0.000 N 
ATOM     10  C   UNL     1       1.019  16.388  20.731  0.00  0.00    +0.000 C 
ATOM     11  C   UNL     1       0.680  17.068  19.449  0.00  0.00    +0.000 A 
ATOM     12  C   UNL     1       1.489  17.442  18.389  0.00  0.00    +0.000 A 
ATOM     13  C   UNL     1       0.866  17.976  17.267  0.00  0.00    +0.000 A 
ATOM     14  C   UNL     1      -0.522  18.128  17.267  0.00  0.00    +0.000 A 
ATOM     15  N   UNL     1      -1.333  17.774  18.300  0.00  0.00    +0.000 NA
ATOM     16  C   UNL     1      -0.695  17.253  19.364  0.00  0.00    +0.000 A 
ATOM     17  C   UNL     1      -1.366  16.635  20.578  0.00  0.00    +0.000 C 
ENDBRANCH   6   7
BRANCH   1  18
ATOM     18  N   UNL     1      -0.971  11.969  21.361  0.00  0.00    +0.000 N 
ATOM     19  H   UNL     1      -0.421  11.253  21.835  0.00  0.00    +0.000 HD
BRANCH  18  24
ATOM     20  N   UNL     1      -0.436  11.495  19.057  0.00  0.00    +0.000 N 
ATOM     21  N   UNL     1      -1.044  11.188  17.887  0.00  0.00    +0.000 NA
ATOM     22  C   UNL     1      -2.332  11.448  18.124  0.00  0.00    +0.000 A 
ATOM     23  C   UNL     1      -2.541  11.974  19.409  0.00  0.00    +0.000 A 
ATOM     24  C   UNL     1      -1.322  11.844  20.050  0.00  0.00    +0.000 A 
BRANCH  22  25
ATOM     25  C   UNL     1      -3.407  11.116  17.101  0.00  0.00    +0.000 C 
ATOM     26  C   UNL     1      -3.043  11.056  15.627  0.00  0.00    +0.000 C 
ATOM     27  C   UNL     1      -3.373   9.801  16.357  0.00  0.00    +0.000 C 
ENDBRANCH  22  25
BRANCH  20  28
ATOM     28  C   UNL     1       1.009  11.352  19.175  0.00  0.00    +0.000 C 
BRANCH  28  32
ATOM     29  C   UNL     1       2.322   7.231  19.043  0.00  0.00    +0.000 A 
ATOM     30  C   UNL     1       2.465   8.050  17.925  0.00  0.00    +0.000 A 
ATOM     31  C   UNL     1       2.043   9.381  17.962  0.00  0.00    +0.000 A 
ATOM     32  C   UNL     1       1.445   9.908  19.115  0.00  0.00    +0.000 A 
ATOM     33  C   UNL     1       1.283   9.073  20.229  0.00  0.00    +0.000 A 
ATOM     34  C   UNL     1       1.715   7.743  20.191  0.00  0.00    +0.000 A 
BRANCH  29  36
ATOM     35  C   UNL     1       2.770   5.156  20.076  0.00  0.00    +0.000 C 
ATOM     36  O   UNL     1       2.765   5.947  18.894  0.00  0.00    +0.000 OA
ENDBRANCH  29  36
ENDBRANCH  28  32
ENDBRANCH  20  28
ENDBRANCH  18  24
ENDBRANCH   1  18
BRANCH   3  37
ATOM     37  O   UNL     1      -4.522  11.992  24.617  0.00  0.00    +0.000 OA
ATOM     38  H   UNL     1      -4.475  12.230  25.566  0.00  0.00    +0.000 HD
ENDBRANCH   3  37
BRANCH   5  39
ATOM     39  O   UNL     1      -2.139  16.014  23.922  0.00  0.00    +0.000 OA
ATOM     40  H   UNL     1      -1.377  16.378  23.441  0.00  0.00    +0.000 HD
ENDBRANCH   5  39
TORSDOF 9
ENDMDL
MODEL 8
REMARK VINA RESULT:      -7.6      2.228      4.890
REMARK  Name = 
REMARK  10 active torsions:
REMARK  status: ('A' for Active; 'I' for Inactive)
REMARK    1  A    between atoms: C_1  and  O_2
REMARK    2  A    between atoms: O_2  and  C_3
REMARK    3  A    between atoms: C_6  and  C_7
REMARK    4  A    between atoms: C_7  and  N_8
REMARK    5  A    between atoms: C_10  and  C_11
REMARK    6  A    between atoms: C_15  and  N_16
REMARK    7  A    between atoms: N_16  and  C_17
REMARK    8  A    between atoms: C_19  and  O_20
REMARK    9  A    between atoms: C_22  and  O_23
REMARK   10  A    between atoms: C_24  and  C_25
REMARK                            x       y       z     vdW  Elec       q    Type
REMARK                         _______ _______ _______ _____ _____    ______ ____
ROOT
ATOM      1  C   UNL     1       0.683  13.289  20.181  0.00  0.00    +0.000 A 
ATOM      2  C   UNL     1       1.313  14.194  19.291  0.00  0.00    +0.000 A 
ATOM      3  C   UNL     1       1.246  15.565  19.471  0.00  0.00    +0.000 A 
ATOM      4  C   UNL     1       0.546  16.083  20.538  0.00  0.00    +0.000 A 
ATOM      5  C   UNL     1      -0.090  15.212  21.435  0.00  0.00    +0.000 A 
ATOM      6  C   UNL     1      -0.043  13.798  21.284  0.00  0.00    +0.000 A 
ENDROOT
BRANCH   6   7
ATOM      7  C   UNL     1      -0.965  12.969  22.140  0.00  0.00    +0.000 C 
ATOM      8  O   UNL     1      -0.430  12.231  22.974  0.00  0.00    +0.000 OA
ATOM      9  N   UNL     1      -2.354  13.046  22.118  0.00  0.00    +0.000 N 
ATOM     10  C   UNL     1      -3.101  12.265  23.114  0.00  0.00    +0.000 C 
ATOM     11  C   UNL     1      -4.443  12.912  23.113  0.00  0.00    +0.000 A 
ATOM     12  C   UNL     1      -5.454  12.888  24.059  0.00  0.00    +0.000 A 
ATOM     13  C   UNL     1      -6.569  13.683  23.824  0.00  0.00    +0.000 A 
ATOM     14  C   UNL     1      -6.630  14.442  22.654  0.00  0.00    +0.000 A 
ATOM     15  N   UNL     1      -5.652  14.473  21.709  0.00  0.00    +0.000 NA
ATOM     16  C   UNL     1      -4.585  13.699  21.976  0.00  0.00    +0.000 A 
ATOM     17  C   UNL     1      -3.295  13.670  21.175  0.00  0.00    +0.000 C 
ENDBRANCH   6   7
BRANCH   1  18
ATOM     18  N   UNL     1       0.787  11.903  19.884  0.00  0.00    +0.000 N 
ATOM     19  H   UNL     1       1.155  11.390  20.685  0.00  0.00    +0.000 HD
BRANCH  18  24
ATOM     20  N   UNL     1       0.481  10.247  18.157  0.00  0.00    +0.000 N 
ATOM     21  N   UNL     1      -0.507   9.633  17.465  0.00  0.00    +0.000 NA
ATOM     22  C   UNL     1      -1.587  10.368  17.737  0.00  0.00    +0.000 A 
ATOM     23  C   UNL     1      -1.286  11.478  18.544  0.00  0.00    +0.000 A 
ATOM     24  C   UNL     1       0.028  11.288  18.934  0.00  0.00    +0.000 A 
BRANCH  22  25
ATOM     25  C   UNL     1      -2.970   9.951  17.260  0.00  0.00    +0.000 C 
ATOM     26  C   UNL     1      -3.877  10.982  16.608  0.00  0.00    +0.000 C 
ATOM     27  C   UNL     1      -3.282   9.895  15.782  0.00  0.00    +0.000 C 
ENDBRANCH  22  25
BRANCH  20  28
ATOM     28  C   UNL     1       1.839   9.727  18.085  0.00  0.00    +0.000 C 
BRANCH  28  32
ATOM     29  C   UNL     1       2.266   5.877  20.015  0.00  0.00    +0.000 A 
ATOM     30  C   UNL     1       2.640   6.040  18.682  0.00  0.00    +0.000 A 
ATOM     31  C   UNL     1       2.505   7.281  18.055  0.00  0.00    +0.000 A 
ATOM     32  C   UNL     1       1.966   8.375  18.746  0.00  0.00    +0.000 A 
ATOM     33  C   UNL     1       1.570   8.198  20.079  0.00  0.00    +0.000 A 
ATOM     34  C   UNL     1       1.717   6.957  20.707  0.00  0.00    +0.000 A 
BRANCH  29  36
ATOM     35  C   UNL     1       2.366   3.558  19.584  0.00  0.00    +0.000 C 
ATOM     36  O   UNL     1       2.438   4.621  20.526  0.00  0.00    +0.000 OA
ENDBRANCH  29  36
ENDBRANCH  28  32
ENDBRANCH  20  28
ENDBRANCH  18  24
ENDBRANCH   1  18
BRANCH   3  37
ATOM     37  O   UNL     1       1.849  16.422  18.596  0.00  0.00    +0.000 OA
ATOM     38  H   UNL     1       1.188  16.711  17.934  0.00  0.00    +0.000 HD
ENDBRANCH   3  37
BRANCH   5  39
ATOM     39  O   UNL     1      -0.763  15.792  22.484  0.00  0.00    +0.000 OA
ATOM     40  H   UNL     1      -1.544  15.256  22.701  0.00  0.00    +0.000 HD
ENDBRANCH   5  39
TORSDOF 9
ENDMDL
MODEL 9
REMARK VINA RESULT:      -7.5      0.646      1.113
REMARK  Name = 
REMARK  10 active torsions:
REMARK  status: ('A' for Active; 'I' for Inactive)
REMARK    1  A    between atoms: C_1  and  O_2
REMARK    2  A    between atoms: O_2  and  C_3
REMARK    3  A    between atoms: C_6  and  C_7
REMARK    4  A    between atoms: C_7  and  N_8
REMARK    5  A    between atoms: C_10  and  C_11
REMARK    6  A    between atoms: C_15  and  N_16
REMARK    7  A    between atoms: N_16  and  C_17
REMARK    8  A    between atoms: C_19  and  O_20
REMARK    9  A    between atoms: C_22  and  O_23
REMARK   10  A    between atoms: C_24  and  C_25
REMARK                            x       y       z     vdW  Elec       q    Type
REMARK                         _______ _______ _______ _____ _____    ______ ____
ROOT
ATOM      1  C   UNL     1      -0.305  12.453  21.187  0.00  0.00    +0.000 A 
ATOM      2  C   UNL     1      -1.188  11.641  21.941  0.00  0.00    +0.000 A 
ATOM      3  C   UNL     1      -1.868  12.126  23.044  0.00  0.00    +0.000 A 
ATOM      4  C   UNL     1      -1.689  13.433  23.439  0.00  0.00    +0.000 A 
ATOM      5  C   UNL     1      -0.820  14.261  22.715  0.00  0.00    +0.000 A 
ATOM      6  C   UNL     1      -0.103  13.799  21.575  0.00  0.00    +0.000 A 
ENDROOT
BRANCH   6   7
ATOM      7  C   UNL     1       0.991  14.678  21.029  0.00  0.00    +0.000 C 
ATOM      8  O   UNL     1       2.152  14.345  21.293  0.00  0.00    +0.000 OA
ATOM      9  N   UNL     1       0.791  15.767  20.187  0.00  0.00    +0.000 N 
ATOM     10  C   UNL     1       1.978  16.436  19.635  0.00  0.00    +0.000 C 
ATOM     11  C   UNL     1       1.428  17.198  18.478  0.00  0.00    +0.000 A 
ATOM     12  C   UNL     1       2.061  17.721  17.364  0.00  0.00    +0.000 A 
ATOM     13  C   UNL     1       1.260  18.302  16.387  0.00  0.00    +0.000 A 
ATOM     14  C   UNL     1      -0.121  18.351  16.580  0.00  0.00    +0.000 A 
ATOM     15  N   UNL     1      -0.762  17.850  17.671  0.00  0.00    +0.000 NA
ATOM     16  C   UNL     1       0.045  17.288  18.589  0.00  0.00    +0.000 A 
ATOM     17  C   UNL     1      -0.417  16.520  19.814  0.00  0.00    +0.000 C 
ENDBRANCH   6   7
BRANCH   1  18
ATOM     18  N   UNL     1       0.369  11.844  20.093  0.00  0.00    +0.000 N 
ATOM     19  H   UNL     1       1.305  11.547  20.367  0.00  0.00    +0.000 HD
BRANCH  18  24
ATOM     20  N   UNL     1       0.286  10.319  18.227  0.00  0.00    +0.000 N 
ATOM     21  N   UNL     1      -0.612   9.698  17.425  0.00  0.00    +0.000 NA
ATOM     22  C   UNL     1      -1.756  10.335  17.683  0.00  0.00    +0.000 A 
ATOM     23  C   UNL     1      -1.584  11.393  18.591  0.00  0.00    +0.000 A 
ATOM     24  C   UNL     1      -0.286  11.260  19.050  0.00  0.00    +0.000 A 
BRANCH  22  25
ATOM     25  C   UNL     1      -3.074   9.867  17.085  0.00  0.00    +0.000 C 
ATOM     26  C   UNL     1      -4.379  10.439  17.614  0.00  0.00    +0.000 C 
ATOM     27  C   UNL     1      -3.910  10.809  16.249  0.00  0.00    +0.000 C 
ENDBRANCH  22  25
BRANCH  20  28
ATOM     28  C   UNL     1       1.680   9.898  18.204  0.00  0.00    +0.000 C 
BRANCH  28  32
ATOM     29  C   UNL     1       2.283   5.973  19.924  0.00  0.00    +0.000 A 
ATOM     30  C   UNL     1       2.611   6.214  18.591  0.00  0.00    +0.000 A 
ATOM     31  C   UNL     1       2.420   7.479  18.031  0.00  0.00    +0.000 A 
ATOM     32  C   UNL     1       1.869   8.520  18.791  0.00  0.00    +0.000 A 
ATOM     33  C   UNL     1       1.518   8.265  20.124  0.00  0.00    +0.000 A 
ATOM     34  C   UNL     1       1.721   6.999  20.685  0.00  0.00    +0.000 A 
BRANCH  29  36
ATOM     35  C   UNL     1       2.145   3.661  19.462  0.00  0.00    +0.000 C 
ATOM     36  O   UNL     1       2.507   4.699  20.365  0.00  0.00    +0.000 OA
ENDBRANCH  29  36
ENDBRANCH  28  32
ENDBRANCH  20  28
ENDBRANCH  18  24
ENDBRANCH   1  18
BRANCH   3  37
ATOM     37  O   UNL     1      -2.707  11.326  23.765  0.00  0.00    +0.000 OA
ATOM     38  H   UNL     1      -3.402  10.981  23.167  0.00  0.00    +0.000 HD
ENDBRANCH   3  37
BRANCH   5  39
ATOM     39  O   UNL     1      -0.693  15.557  23.155  0.00  0.00    +0.000 OA
ATOM     40  H   UNL     1       0.194  15.888  22.932  0.00  0.00    +0.000 HD
ENDBRANCH   5  39
TORSDOF 9
ENDMDL
