MODEL 1
REMARK VINA RESULT:      -7.7      0.000      0.000
REMARK  Name = 
REMARK  12 active torsions:
REMARK  status: ('A' for Active; 'I' for Inactive)
REMARK    1  A    between atoms: C_2  and  C_3
REMARK    2  A    between atoms: C_3  and  O_4
REMARK    3  A    between atoms: O_4  and  C_5
REMARK    4  A    between atoms: C_8  and  C_9
REMARK    5  A    between atoms: C_10  and  C_11
REMARK    6  A    between atoms: C_11  and  C_13
REMARK    7  A    between atoms: C_16  and  C_17
REMARK    8  A    between atoms: C_17  and  C_18
REMARK    9  A    between atoms: C_19  and  C_20
REMARK   10  A    between atoms: C_19  and  C_21
REMARK   11  A    between atoms: C_25  and  O_26
REMARK   12  A    between atoms: O_26  and  C_27
REMARK                            x       y       z     vdW  Elec       q    Type
REMARK                         _______ _______ _______ _____ _____    ______ ____
ROOT
ATOM      1  C   UNL     1       1.934   8.125  18.876  0.00  0.00    +0.000 C 
ATOM      2  C   UNL     1       1.456   9.151  18.162  0.00  0.00    +0.000 C 
ENDROOT
BRANCH   1   6
ATOM      3  C   UNL     1       4.042   4.876  17.009  0.00  0.00    +0.000 A 
ATOM      4  C   UNL     1       4.489   6.213  16.925  0.00  0.00    +0.000 A 
ATOM      5  C   UNL     1       3.822   7.265  17.552  0.00  0.00    +0.000 A 
ATOM      6  C   UNL     1       2.641   7.019  18.233  0.00  0.00    +0.000 A 
ATOM      7  C   UNL     1       2.175   5.698  18.293  0.00  0.00    +0.000 A 
ATOM      8  C   UNL     1       2.841   4.622  17.680  0.00  0.00    +0.000 A 
BRANCH   8   9
ATOM      9  O   UNL     1       2.141   3.471  17.883  0.00  0.00    +0.000 OA
ATOM     10  C   UNL     1       1.180   3.363  18.911  0.00  0.00    +0.000 C 
ENDBRANCH   8   9
BRANCH   3  11
ATOM     11  O   UNL     1       4.764   3.853  16.434  0.00  0.00    +0.000 OA
BRANCH  11  12
ATOM     12  C   UNL     1       5.992   4.311  15.847  0.00  0.00    +0.000 C 
BRANCH  12  14
ATOM     13  C   UNL     1       6.142   3.692  13.096  0.00  0.00    +0.000 C 
ATOM     14  C   UNL     1       6.072   3.979  14.367  0.00  0.00    +0.000 C 
ENDBRANCH  12  14
ENDBRANCH  11  12
ENDBRANCH   3  11
ENDBRANCH   1   6
BRANCH   2  15
ATOM     15  C   UNL     1       0.696  10.265  18.794  0.00  0.00    +0.000 C 
ATOM     16  O   UNL     1       1.173  10.987  19.652  0.00  0.00    +0.000 OA
BRANCH  15  17
ATOM     17  C   UNL     1      -0.686  10.467  18.277  0.00  0.00    +0.000 A 
ATOM     18  C   UNL     1      -1.206   9.662  17.257  0.00  0.00    +0.000 A 
ATOM     19  C   UNL     1      -2.495   9.889  16.771  0.00  0.00    +0.000 A 
ATOM     20  C   UNL     1      -3.280  10.921  17.297  0.00  0.00    +0.000 A 
ATOM     21  C   UNL     1      -2.765  11.706  18.341  0.00  0.00    +0.000 A 
ATOM     22  C   UNL     1      -1.472  11.481  18.830  0.00  0.00    +0.000 A 
BRANCH  20  23
ATOM     23  C   UNL     1      -4.659  11.180  16.727  0.00  0.00    +0.000 C 
BRANCH  23  24
ATOM     24  C   UNL     1      -5.502  12.112  17.555  0.00  0.00    +0.000 C 
ATOM     25  C   UNL     1      -6.435  11.723  18.449  0.00  0.00    +0.000 C 
ATOM     26  C   UNL     1      -6.773  10.287  18.751  0.00  0.00    +0.000 C 
ATOM     27  C   UNL     1      -7.234  12.730  19.234  0.00  0.00    +0.000 C 
ENDBRANCH  23  24
ENDBRANCH  20  23
ENDBRANCH  15  17
ENDBRANCH   2  15
TORSDOF 9
ENDMDL
MODEL 2
REMARK VINA RESULT:      -7.6      6.305     10.233
REMARK  Name = 
REMARK  12 active torsions:
REMARK  status: ('A' for Active; 'I' for Inactive)
REMARK    1  A    between atoms: C_2  and  C_3
REMARK    2  A    between atoms: C_3  and  O_4
REMARK    3  A    between atoms: O_4  and  C_5
REMARK    4  A    between atoms: C_8  and  C_9
REMARK    5  A    between atoms: C_10  and  C_11
REMARK    6  A    between atoms: C_11  and  C_13
REMARK    7  A    between atoms: C_16  and  C_17
REMARK    8  A    between atoms: C_17  and  C_18
REMARK    9  A    between atoms: C_19  and  C_20
REMARK   10  A    between atoms: C_19  and  C_21
REMARK   11  A    between atoms: C_25  and  O_26
REMARK   12  A    between atoms: O_26  and  C_27
REMARK                            x       y       z     vdW  Elec       q    Type
REMARK                         _______ _______ _______ _____ _____    ______ ____
ROOT
ATOM      1  C   UNL     1       8.660   8.670  18.485  0.00  0.00    +0.000 C 
ATOM      2  C   UNL     1       7.634   8.507  17.642  0.00  0.00    +0.000 C 
ENDROOT
BRANCH   1   6
ATOM      3  C   UNL     1      10.043  12.576  19.632  0.00  0.00    +0.000 A 
ATOM      4  C   UNL     1       9.660  11.603  20.581  0.00  0.00    +0.000 A 
ATOM      5  C   UNL     1       9.237  10.326  20.212  0.00  0.00    +0.000 A 
ATOM      6  C   UNL     1       9.120  10.003  18.870  0.00  0.00    +0.000 A 
ATOM      7  C   UNL     1       9.469  10.976  17.923  0.00  0.00    +0.000 A 
ATOM      8  C   UNL     1       9.912  12.264  18.274  0.00  0.00    +0.000 A 
BRANCH   8   9
ATOM      9  O   UNL     1      10.146  12.994  17.149  0.00  0.00    +0.000 OA
ATOM     10  C   UNL     1      11.458  13.307  16.732  0.00  0.00    +0.000 C 
ENDBRANCH   8   9
BRANCH   3  11
ATOM     11  O   UNL     1      10.521  13.804  20.035  0.00  0.00    +0.000 OA
BRANCH  11  12
ATOM     12  C   UNL     1       9.525  14.584  20.713  0.00  0.00    +0.000 C 
BRANCH  12  14
ATOM     13  C   UNL     1      10.626  16.084  22.838  0.00  0.00    +0.000 C 
ATOM     14  C   UNL     1      10.117  15.391  21.856  0.00  0.00    +0.000 C 
ENDBRANCH  12  14
ENDBRANCH  11  12
ENDBRANCH   3  11
ENDBRANCH   1   6
BRANCH   2  15
ATOM     15  C   UNL     1       7.180   7.158  17.205  0.00  0.00    +0.000 C 
ATOM     16  O   UNL     1       7.855   6.430  16.498  0.00  0.00    +0.000 OA
BRANCH  15  17
ATOM     17  C   UNL     1       5.851   6.734  17.726  0.00  0.00    +0.000 A 
ATOM     18  C   UNL     1       5.733   5.710  18.671  0.00  0.00    +0.000 A 
ATOM     19  C   UNL     1       4.474   5.312  19.124  0.00  0.00    +0.000 A 
ATOM     20  C   UNL     1       3.316   5.933  18.638  0.00  0.00    +0.000 A 
ATOM     21  C   UNL     1       3.442   6.981  17.713  0.00  0.00    +0.000 A 
ATOM     22  C   UNL     1       4.705   7.381  17.257  0.00  0.00    +0.000 A 
BRANCH  20  23
ATOM     23  C   UNL     1       1.958   5.458  19.108  0.00  0.00    +0.000 C 
BRANCH  23  24
ATOM     24  C   UNL     1       2.000   4.594  20.340  0.00  0.00    +0.000 C 
ATOM     25  C   UNL     1       1.515   3.337  20.420  0.00  0.00    +0.000 C 
ATOM     26  C   UNL     1       0.854   2.610  19.279  0.00  0.00    +0.000 C 
ATOM     27  C   UNL     1       1.601   2.545  21.698  0.00  0.00    +0.000 C 
ENDBRANCH  23  24
ENDBRANCH  20  23
ENDBRANCH  15  17
ENDBRANCH   2  15
TORSDOF 9
ENDMDL
MODEL 3
REMARK VINA RESULT:      -7.4      6.288      9.813
REMARK  Name = 
REMARK  12 active torsions:
REMARK  status: ('A' for Active; 'I' for Inactive)
REMARK    1  A    between atoms: C_2  and  C_3
REMARK    2  A    between atoms: C_3  and  O_4
REMARK    3  A    between atoms: O_4  and  C_5
REMARK    4  A    between atoms: C_8  and  C_9
REMARK    5  A    between atoms: C_10  and  C_11
REMARK    6  A    between atoms: C_11  and  C_13
REMARK    7  A    between atoms: C_16  and  C_17
REMARK    8  A    between atoms: C_17  and  C_18
REMARK    9  A    between atoms: C_19  and  C_20
REMARK   10  A    between atoms: C_19  and  C_21
REMARK   11  A    between atoms: C_25  and  O_26
REMARK   12  A    between atoms: O_26  and  C_27
REMARK                            x       y       z     vdW  Elec       q    Type
REMARK                         _______ _______ _______ _____ _____    ______ ____
ROOT
ATOM      1  C   UNL     1       8.371   8.481  18.489  0.00  0.00    +0.000 C 
ATOM      2  C   UNL     1       7.757   8.159  17.345  0.00  0.00    +0.000 C 
ENDROOT
BRANCH   1   6
ATOM      3  C   UNL     1       9.984  12.420  19.097  0.00  0.00    +0.000 A 
ATOM      4  C   UNL     1       9.742  11.894  17.808  0.00  0.00    +0.000 A 
ATOM      5  C   UNL     1       9.193  10.627  17.610  0.00  0.00    +0.000 A 
ATOM      6  C   UNL     1       8.930   9.814  18.700  0.00  0.00    +0.000 A 
ATOM      7  C   UNL     1       9.198  10.319  19.981  0.00  0.00    +0.000 A 
ATOM      8  C   UNL     1       9.737  11.599  20.203  0.00  0.00    +0.000 A 
BRANCH   8   9
ATOM      9  O   UNL     1       9.915  11.799  21.539  0.00  0.00    +0.000 OA
ATOM     10  C   UNL     1       9.017  12.582  22.293  0.00  0.00    +0.000 C 
ENDBRANCH   8   9
BRANCH   3  11
ATOM     11  O   UNL     1      10.463  13.701  19.257  0.00  0.00    +0.000 OA
BRANCH  11  12
ATOM     12  C   UNL     1      10.228  14.522  18.102  0.00  0.00    +0.000 C 
BRANCH  12  14
ATOM     13  C   UNL     1       8.073  16.305  18.494  0.00  0.00    +0.000 C 
ATOM     14  C   UNL     1       9.069  15.481  18.313  0.00  0.00    +0.000 C 
ENDBRANCH  12  14
ENDBRANCH  11  12
ENDBRANCH   3  11
ENDBRANCH   1   6
BRANCH   2  15
ATOM     15  C   UNL     1       7.220   6.793  17.096  0.00  0.00    +0.000 C 
ATOM     16  O   UNL     1       7.804   5.967  16.416  0.00  0.00    +0.000 OA
BRANCH  15  17
ATOM     17  C   UNL     1       5.928   6.485  17.769  0.00  0.00    +0.000 A 
ATOM     18  C   UNL     1       5.866   5.610  18.859  0.00  0.00    +0.000 A 
ATOM     19  C   UNL     1       4.639   5.316  19.456  0.00  0.00    +0.000 A 
ATOM     20  C   UNL     1       3.458   5.892  18.973  0.00  0.00    +0.000 A 
ATOM     21  C   UNL     1       3.530   6.793  17.898  0.00  0.00    +0.000 A 
ATOM     22  C   UNL     1       4.760   7.089  17.297  0.00  0.00    +0.000 A 
BRANCH  20  23
ATOM     23  C   UNL     1       2.132   5.528  19.605  0.00  0.00    +0.000 C 
BRANCH  23  24
ATOM     24  C   UNL     1       1.481   4.307  19.011  0.00  0.00    +0.000 C 
ATOM     25  C   UNL     1       1.243   3.157  19.676  0.00  0.00    +0.000 C 
ATOM     26  C   UNL     1       1.599   2.923  21.120  0.00  0.00    +0.000 C 
ATOM     27  C   UNL     1       0.585   1.984  18.998  0.00  0.00    +0.000 C 
ENDBRANCH  23  24
ENDBRANCH  20  23
ENDBRANCH  15  17
ENDBRANCH   2  15
TORSDOF 9
ENDMDL
MODEL 4
REMARK VINA RESULT:      -7.4      3.611      9.966
REMARK  Name = 
REMARK  12 active torsions:
REMARK  status: ('A' for Active; 'I' for Inactive)
REMARK    1  A    between atoms: C_2  and  C_3
REMARK    2  A    between atoms: C_3  and  O_4
REMARK    3  A    between atoms: O_4  and  C_5
REMARK    4  A    between atoms: C_8  and  C_9
REMARK    5  A    between atoms: C_10  and  C_11
REMARK    6  A    between atoms: C_11  and  C_13
REMARK    7  A    between atoms: C_16  and  C_17
REMARK    8  A    between atoms: C_17  and  C_18
REMARK    9  A    between atoms: C_19  and  C_20
REMARK   10  A    between atoms: C_19  and  C_21
REMARK   11  A    between atoms: C_25  and  O_26
REMARK   12  A    between atoms: O_26  and  C_27
REMARK                            x       y       z     vdW  Elec       q    Type
REMARK                         _______ _______ _______ _____ _____    ______ ____
ROOT
ATOM      1  C   UNL     1       3.362   6.422  18.465  0.00  0.00    +0.000 C 
ATOM      2  C   UNL     1       3.860   5.682  19.461  0.00  0.00    +0.000 C 
ENDROOT
BRANCH   1   6
ATOM      3  C   UNL     1       0.868   9.840  19.232  0.00  0.00    +0.000 A 
ATOM      4  C   UNL     1       1.462   9.607  17.972  0.00  0.00    +0.000 A 
ATOM      5  C   UNL     1       2.249   8.485  17.713  0.00  0.00    +0.000 A 
ATOM      6  C   UNL     1       2.523   7.589  18.734  0.00  0.00    +0.000 A 
ATOM      7  C   UNL     1       1.962   7.831  19.995  0.00  0.00    +0.000 A 
ATOM      8  C   UNL     1       1.154   8.948  20.272  0.00  0.00    +0.000 A 
BRANCH   8   9
ATOM      9  O   UNL     1       0.780   8.933  21.583  0.00  0.00    +0.000 OA
ATOM     10  C   UNL     1      -0.426   8.331  21.999  0.00  0.00    +0.000 C 
ENDBRANCH   8   9
BRANCH   3  11
ATOM     11  O   UNL     1       0.040  10.922  19.433  0.00  0.00    +0.000 OA
BRANCH  11  12
ATOM     12  C   UNL     1       0.744  12.062  19.950  0.00  0.00    +0.000 C 
BRANCH  12  14
ATOM     13  C   UNL     1      -0.156  14.474  18.790  0.00  0.00    +0.000 C 
ATOM     14  C   UNL     1       0.260  13.360  19.326  0.00  0.00    +0.000 C 
ENDBRANCH  12  14
ENDBRANCH  11  12
ENDBRANCH   3  11
ENDBRANCH   1   6
BRANCH   2  15
ATOM     15  C   UNL     1       4.680   4.466  19.206  0.00  0.00    +0.000 C 
ATOM     16  O   UNL     1       4.940   3.649  20.073  0.00  0.00    +0.000 OA
BRANCH  15  17
ATOM     17  C   UNL     1       5.136   4.289  17.799  0.00  0.00    +0.000 A 
ATOM     18  C   UNL     1       6.423   4.665  17.399  0.00  0.00    +0.000 A 
ATOM     19  C   UNL     1       6.817   4.514  16.068  0.00  0.00    +0.000 A 
ATOM     20  C   UNL     1       5.932   3.986  15.121  0.00  0.00    +0.000 A 
ATOM     21  C   UNL     1       4.652   3.582  15.535  0.00  0.00    +0.000 A 
ATOM     22  C   UNL     1       4.254   3.733  16.869  0.00  0.00    +0.000 A 
BRANCH  20  23
ATOM     23  C   UNL     1       6.363   3.870  13.674  0.00  0.00    +0.000 C 
BRANCH  23  24
ATOM     24  C   UNL     1       5.237   4.006  12.684  0.00  0.00    +0.000 C 
ATOM     25  C   UNL     1       4.949   3.113  11.714  0.00  0.00    +0.000 C 
ATOM     26  C   UNL     1       5.720   1.842  11.476  0.00  0.00    +0.000 C 
ATOM     27  C   UNL     1       3.801   3.333  10.765  0.00  0.00    +0.000 C 
ENDBRANCH  23  24
ENDBRANCH  20  23
ENDBRANCH  15  17
ENDBRANCH   2  15
TORSDOF 9
ENDMDL
MODEL 5
REMARK VINA RESULT:      -7.4      6.137      9.850
REMARK  Name = 
REMARK  12 active torsions:
REMARK  status: ('A' for Active; 'I' for Inactive)
REMARK    1  A    between atoms: C_2  and  C_3
REMARK    2  A    between atoms: C_3  and  O_4
REMARK    3  A    between atoms: O_4  and  C_5
REMARK    4  A    between atoms: C_8  and  C_9
REMARK    5  A    between atoms: C_10  and  C_11
REMARK    6  A    between atoms: C_11  and  C_13
REMARK    7  A    between atoms: C_16  and  C_17
REMARK    8  A    between atoms: C_17  and  C_18
REMARK    9  A    between atoms: C_19  and  C_20
REMARK   10  A    between atoms: C_19  and  C_21
REMARK   11  A    between atoms: C_25  and  O_26
REMARK   12  A    between atoms: O_26  and  C_27
REMARK                            x       y       z     vdW  Elec       q    Type
REMARK                         _______ _______ _______ _____ _____    ______ ____
ROOT
ATOM      1  C   UNL     1       8.546   8.945  17.777  0.00  0.00    +0.000 C 
ATOM      2  C   UNL     1       7.310   8.435  17.742  0.00  0.00    +0.000 C 
ENDROOT
BRANCH   1   6
ATOM      3  C   UNL     1       9.385  12.709  19.678  0.00  0.00    +0.000 A 
ATOM      4  C   UNL     1       9.636  11.472  20.312  0.00  0.00    +0.000 A 
ATOM      5  C   UNL     1       9.390  10.250  19.686  0.00  0.00    +0.000 A 
ATOM      6  C   UNL     1       8.818  10.227  18.424  0.00  0.00    +0.000 A 
ATOM      7  C   UNL     1       8.538  11.452  17.803  0.00  0.00    +0.000 A 
ATOM      8  C   UNL     1       8.792  12.695  18.411  0.00  0.00    +0.000 A 
BRANCH   8   9
ATOM      9  O   UNL     1       8.391  13.702  17.585  0.00  0.00    +0.000 OA
ATOM     10  C   UNL     1       7.159  14.364  17.773  0.00  0.00    +0.000 C 
ENDBRANCH   8   9
BRANCH   3  11
ATOM     11  O   UNL     1       9.704  13.897  20.299  0.00  0.00    +0.000 OA
BRANCH  11  12
ATOM     12  C   UNL     1      11.121  14.120  20.361  0.00  0.00    +0.000 C 
BRANCH  12  14
ATOM     13  C   UNL     1      12.151  15.049  17.901  0.00  0.00    +0.000 C 
ATOM     14  C   UNL     1      11.675  14.620  19.038  0.00  0.00    +0.000 C 
ENDBRANCH  12  14
ENDBRANCH  11  12
ENDBRANCH   3  11
ENDBRANCH   1   6
BRANCH   2  15
ATOM     15  C   UNL     1       7.006   7.152  17.051  0.00  0.00    +0.000 C 
ATOM     16  O   UNL     1       7.808   6.583  16.331  0.00  0.00    +0.000 OA
BRANCH  15  17
ATOM     17  C   UNL     1       5.659   6.582  17.329  0.00  0.00    +0.000 A 
ATOM     18  C   UNL     1       4.530   7.402  17.436  0.00  0.00    +0.000 A 
ATOM     19  C   UNL     1       3.282   6.847  17.723  0.00  0.00    +0.000 A 
ATOM     20  C   UNL     1       3.145   5.466  17.908  0.00  0.00    +0.000 A 
ATOM     21  C   UNL     1       4.276   4.644  17.770  0.00  0.00    +0.000 A 
ATOM     22  C   UNL     1       5.529   5.200  17.481  0.00  0.00    +0.000 A 
BRANCH  20  23
ATOM     23  C   UNL     1       1.792   4.887  18.263  0.00  0.00    +0.000 C 
BRANCH  23  24
ATOM     24  C   UNL     1       1.690   4.383  19.678  0.00  0.00    +0.000 C 
ATOM     25  C   UNL     1       1.343   3.126  20.028  0.00  0.00    +0.000 C 
ATOM     26  C   UNL     1       1.003   2.037  19.046  0.00  0.00    +0.000 C 
ATOM     27  C   UNL     1       1.267   2.710  21.473  0.00  0.00    +0.000 C 
ENDBRANCH  23  24
ENDBRANCH  20  23
ENDBRANCH  15  17
ENDBRANCH   2  15
TORSDOF 9
ENDMDL
MODEL 6
REMARK VINA RESULT:      -7.4      6.179      9.808
REMARK  Name = 
REMARK  12 active torsions:
REMARK  status: ('A' for Active; 'I' for Inactive)
REMARK    1  A    between atoms: C_2  and  C_3
REMARK    2  A    between atoms: C_3  and  O_4
REMARK    3  A    between atoms: O_4  and  C_5
REMARK    4  A    between atoms: C_8  and  C_9
REMARK    5  A    between atoms: C_10  and  C_11
REMARK    6  A    between atoms: C_11  and  C_13
REMARK    7  A    between atoms: C_16  and  C_17
REMARK    8  A    between atoms: C_17  and  C_18
REMARK    9  A    between atoms: C_19  and  C_20
REMARK   10  A    between atoms: C_19  and  C_21
REMARK   11  A    between atoms: C_25  and  O_26
REMARK   12  A    between atoms: O_26  and  C_27
REMARK                            x       y       z     vdW  Elec       q    Type
REMARK                         _______ _______ _______ _____ _____    ______ ____
ROOT
ATOM      1  C   UNL     1       8.398   8.318  18.251  0.00  0.00    +0.000 C 
ATOM      2  C   UNL     1       7.352   7.887  17.536  0.00  0.00    +0.000 C 
ENDROOT
BRANCH   1   6
ATOM      3  C   UNL     1       9.091  12.522  18.824  0.00  0.00    +0.000 A 
ATOM      4  C   UNL     1       8.519  12.006  17.640  0.00  0.00    +0.000 A 
ATOM      5  C   UNL     1       8.268  10.646  17.463  0.00  0.00    +0.000 A 
ATOM      6  C   UNL     1       8.646   9.745  18.446  0.00  0.00    +0.000 A 
ATOM      7  C   UNL     1       9.243  10.248  19.610  0.00  0.00    +0.000 A 
ATOM      8  C   UNL     1       9.490  11.617  19.814  0.00  0.00    +0.000 A 
BRANCH   8   9
ATOM      9  O   UNL     1      10.103  11.801  21.017  0.00  0.00    +0.000 OA
ATOM     10  C   UNL     1       9.398  12.291  22.136  0.00  0.00    +0.000 C 
ENDBRANCH   8   9
BRANCH   3  11
ATOM     11  O   UNL     1       9.261  13.879  18.992  0.00  0.00    +0.000 OA
BRANCH  11  12
ATOM     12  C   UNL     1       8.077  14.523  19.488  0.00  0.00    +0.000 C 
BRANCH  12  14
ATOM     13  C   UNL     1       8.539  17.234  20.126  0.00  0.00    +0.000 C 
ATOM     14  C   UNL     1       8.326  15.982  19.831  0.00  0.00    +0.000 C 
ENDBRANCH  12  14
ENDBRANCH  11  12
ENDBRANCH   3  11
ENDBRANCH   1   6
BRANCH   2  15
ATOM     15  C   UNL     1       7.107   6.439  17.292  0.00  0.00    +0.000 C 
ATOM     16  O   UNL     1       8.003   5.649  17.049  0.00  0.00    +0.000 OA
BRANCH  15  17
ATOM     17  C   UNL     1       5.687   6.005  17.404  0.00  0.00    +0.000 A 
ATOM     18  C   UNL     1       4.654   6.934  17.572  0.00  0.00    +0.000 A 
ATOM     19  C   UNL     1       3.334   6.501  17.701  0.00  0.00    +0.000 A 
ATOM     20  C   UNL     1       3.027   5.135  17.664  0.00  0.00    +0.000 A 
ATOM     21  C   UNL     1       4.064   4.210  17.463  0.00  0.00    +0.000 A 
ATOM     22  C   UNL     1       5.390   4.642  17.334  0.00  0.00    +0.000 A 
BRANCH  20  23
ATOM     23  C   UNL     1       1.595   4.682  17.849  0.00  0.00    +0.000 C 
BRANCH  23  24
ATOM     24  C   UNL     1       1.409   3.655  18.934  0.00  0.00    +0.000 C 
ATOM     25  C   UNL     1       1.457   3.912  20.258  0.00  0.00    +0.000 C 
ATOM     26  C   UNL     1       1.709   5.274  20.849  0.00  0.00    +0.000 C 
ATOM     27  C   UNL     1       1.260   2.818  21.274  0.00  0.00    +0.000 C 
ENDBRANCH  23  24
ENDBRANCH  20  23
ENDBRANCH  15  17
ENDBRANCH   2  15
TORSDOF 9
ENDMDL
MODEL 7
REMARK VINA RESULT:      -7.3      1.043      1.510
REMARK  Name = 
REMARK  12 active torsions:
REMARK  status: ('A' for Active; 'I' for Inactive)
REMARK    1  A    between atoms: C_2  and  C_3
REMARK    2  A    between atoms: C_3  and  O_4
REMARK    3  A    between atoms: O_4  and  C_5
REMARK    4  A    between atoms: C_8  and  C_9
REMARK    5  A    between atoms: C_10  and  C_11
REMARK    6  A    between atoms: C_11  and  C_13
REMARK    7  A    between atoms: C_16  and  C_17
REMARK    8  A    between atoms: C_17  and  C_18
REMARK    9  A    between atoms: C_19  and  C_20
REMARK   10  A    between atoms: C_19  and  C_21
REMARK   11  A    between atoms: C_25  and  O_26
REMARK   12  A    between atoms: O_26  and  C_27
REMARK                            x       y       z     vdW  Elec       q    Type
REMARK                         _______ _______ _______ _____ _____    ______ ____
ROOT
ATOM      1  C   UNL     1       1.917   8.297  19.126  0.00  0.00    +0.000 C 
ATOM      2  C   UNL     1       1.316   9.273  18.437  0.00  0.00    +0.000 C 
ENDROOT
BRANCH   1   6
ATOM      3  C   UNL     1       4.275   5.289  17.156  0.00  0.00    +0.000 A 
ATOM      4  C   UNL     1       4.367   6.658  16.822  0.00  0.00    +0.000 A 
ATOM      5  C   UNL     1       3.624   7.638  17.478  0.00  0.00    +0.000 A 
ATOM      6  C   UNL     1       2.708   7.269  18.451  0.00  0.00    +0.000 A 
ATOM      7  C   UNL     1       2.590   5.908  18.765  0.00  0.00    +0.000 A 
ATOM      8  C   UNL     1       3.341   4.906  18.125  0.00  0.00    +0.000 A 
BRANCH   8   9
ATOM      9  O   UNL     1       2.992   3.684  18.616  0.00  0.00    +0.000 OA
ATOM     10  C   UNL     1       3.815   2.993  19.529  0.00  0.00    +0.000 C 
ENDBRANCH   8   9
BRANCH   3  11
ATOM     11  O   UNL     1       5.075   4.356  16.534  0.00  0.00    +0.000 OA
BRANCH  11  12
ATOM     12  C   UNL     1       6.397   4.854  16.273  0.00  0.00    +0.000 C 
BRANCH  12  14
ATOM     13  C   UNL     1       7.850   5.291  18.655  0.00  0.00    +0.000 C 
ATOM     14  C   UNL     1       7.178   5.089  17.555  0.00  0.00    +0.000 C 
ENDBRANCH  12  14
ENDBRANCH  11  12
ENDBRANCH   3  11
ENDBRANCH   1   6
BRANCH   2  15
ATOM     15  C   UNL     1       0.472  10.303  19.103  0.00  0.00    +0.000 C 
ATOM     16  O   UNL     1       0.854  10.954  20.059  0.00  0.00    +0.000 OA
BRANCH  15  17
ATOM     17  C   UNL     1      -0.870  10.517  18.494  0.00  0.00    +0.000 A 
ATOM     18  C   UNL     1      -1.281   9.796  17.367  0.00  0.00    +0.000 A 
ATOM     19  C   UNL     1      -2.534  10.034  16.798  0.00  0.00    +0.000 A 
ATOM     20  C   UNL     1      -3.392  10.995  17.348  0.00  0.00    +0.000 A 
ATOM     21  C   UNL     1      -2.987  11.693  18.497  0.00  0.00    +0.000 A 
ATOM     22  C   UNL     1      -1.730  11.456  19.068  0.00  0.00    +0.000 A 
BRANCH  20  23
ATOM     23  C   UNL     1      -4.728  11.269  16.691  0.00  0.00    +0.000 C 
BRANCH  23  24
ATOM     24  C   UNL     1      -5.643  12.148  17.502  0.00  0.00    +0.000 C 
ATOM     25  C   UNL     1      -6.538  11.704  18.409  0.00  0.00    +0.000 C 
ATOM     26  C   UNL     1      -6.757  10.253  18.744  0.00  0.00    +0.000 C 
ATOM     27  C   UNL     1      -7.415  12.659  19.176  0.00  0.00    +0.000 C 
ENDBRANCH  23  24
ENDBRANCH  20  23
ENDBRANCH  15  17
ENDBRANCH   2  15
TORSDOF 9
ENDMDL
MODEL 8
REMARK VINA RESULT:      -7.3      1.380      3.175
REMARK  Name = 
REMARK  12 active torsions:
REMARK  status: ('A' for Active; 'I' for Inactive)
REMARK    1  A    between atoms: C_2  and  C_3
REMARK    2  A    between atoms: C_3  and  O_4
REMARK    3  A    between atoms: O_4  and  C_5
REMARK    4  A    between atoms: C_8  and  C_9
REMARK    5  A    between atoms: C_10  and  C_11
REMARK    6  A    between atoms: C_11  and  C_13
REMARK    7  A    between atoms: C_16  and  C_17
REMARK    8  A    between atoms: C_17  and  C_18
REMARK    9  A    between atoms: C_19  and  C_20
REMARK   10  A    between atoms: C_19  and  C_21
REMARK   11  A    between atoms: C_25  and  O_26
REMARK   12  A    between atoms: O_26  and  C_27
REMARK                            x       y       z     vdW  Elec       q    Type
REMARK                         _______ _______ _______ _____ _____    ______ ____
ROOT
ATOM      1  C   UNL     1       2.256   8.538  17.855  0.00  0.00    +0.000 C 
ATOM      2  C   UNL     1       1.312   9.034  18.663  0.00  0.00    +0.000 C 
ENDROOT
BRANCH   1   6
ATOM      3  C   UNL     1       3.575   4.460  18.193  0.00  0.00    +0.000 A 
ATOM      4  C   UNL     1       2.218   4.828  18.335  0.00  0.00    +0.000 A 
ATOM      5  C   UNL     1       1.785   6.147  18.198  0.00  0.00    +0.000 A 
ATOM      6  C   UNL     1       2.710   7.155  17.981  0.00  0.00    +0.000 A 
ATOM      7  C   UNL     1       4.062   6.799  17.871  0.00  0.00    +0.000 A 
ATOM      8  C   UNL     1       4.518   5.474  17.990  0.00  0.00    +0.000 A 
BRANCH   8   9
ATOM      9  O   UNL     1       5.874   5.440  17.869  0.00  0.00    +0.000 OA
ATOM     10  C   UNL     1       6.498   4.970  16.694  0.00  0.00    +0.000 C 
ENDBRANCH   8   9
BRANCH   3  11
ATOM     11  O   UNL     1       3.958   3.139  18.266  0.00  0.00    +0.000 OA
BRANCH  11  12
ATOM     12  C   UNL     1       4.413   2.772  19.578  0.00  0.00    +0.000 C 
BRANCH  12  14
ATOM     13  C   UNL     1       2.298   2.690  21.446  0.00  0.00    +0.000 C 
ATOM     14  C   UNL     1       3.275   2.728  20.583  0.00  0.00    +0.000 C 
ENDBRANCH  12  14
ENDBRANCH  11  12
ENDBRANCH   3  11
ENDBRANCH   1   6
BRANCH   2  15
ATOM     15  C   UNL     1       0.867  10.453  18.577  0.00  0.00    +0.000 C 
ATOM     16  O   UNL     1       1.638  11.393  18.661  0.00  0.00    +0.000 OA
BRANCH  15  17
ATOM     17  C   UNL     1      -0.589  10.650  18.340  0.00  0.00    +0.000 A 
ATOM     18  C   UNL     1      -1.309  11.639  19.019  0.00  0.00    +0.000 A 
ATOM     19  C   UNL     1      -2.680  11.787  18.799  0.00  0.00    +0.000 A 
ATOM     20  C   UNL     1      -3.349  10.949  17.899  0.00  0.00    +0.000 A 
ATOM     21  C   UNL     1      -2.615   9.978  17.197  0.00  0.00    +0.000 A 
ATOM     22  C   UNL     1      -1.241   9.828  17.417  0.00  0.00    +0.000 A 
BRANCH  20  23
ATOM     23  C   UNL     1      -4.843  11.096  17.706  0.00  0.00    +0.000 C 
BRANCH  23  24
ATOM     24  C   UNL     1      -5.562  11.683  18.892  0.00  0.00    +0.000 C 
ATOM     25  C   UNL     1      -6.504  11.045  19.618  0.00  0.00    +0.000 C 
ATOM     26  C   UNL     1      -6.981   9.644  19.344  0.00  0.00    +0.000 C 
ATOM     27  C   UNL     1      -7.172  11.713  20.791  0.00  0.00    +0.000 C 
ENDBRANCH  23  24
ENDBRANCH  20  23
ENDBRANCH  15  17
ENDBRANCH   2  15
TORSDOF 9
ENDMDL
MODEL 9
REMARK VINA RESULT:      -7.3      3.691     10.301
REMARK  Name = 
REMARK  12 active torsions:
REMARK  status: ('A' for Active; 'I' for Inactive)
REMARK    1  A    between atoms: C_2  and  C_3
REMARK    2  A    between atoms: C_3  and  O_4
REMARK    3  A    between atoms: O_4  and  C_5
REMARK    4  A    between atoms: C_8  and  C_9
REMARK    5  A    between atoms: C_10  and  C_11
REMARK    6  A    between atoms: C_11  and  C_13
REMARK    7  A    between atoms: C_16  and  C_17
REMARK    8  A    between atoms: C_17  and  C_18
REMARK    9  A    between atoms: C_19  and  C_20
REMARK   10  A    between atoms: C_19  and  C_21
REMARK   11  A    between atoms: C_25  and  O_26
REMARK   12  A    between atoms: O_26  and  C_27
REMARK                            x       y       z     vdW  Elec       q    Type
REMARK                         _______ _______ _______ _____ _____    ______ ____
ROOT
ATOM      1  C   UNL     1       3.124   6.123  19.591  0.00  0.00    +0.000 C 
ATOM      2  C   UNL     1       4.361   6.355  19.139  0.00  0.00    +0.000 C 
ENDROOT
BRANCH   1   6
ATOM      3  C   UNL     1       0.410   9.361  20.387  0.00  0.00    +0.000 A 
ATOM      4  C   UNL     1       0.514   8.238  21.237  0.00  0.00    +0.000 A 
ATOM      5  C   UNL     1       1.413   7.199  20.996  0.00  0.00    +0.000 A 
ATOM      6  C   UNL     1       2.194   7.220  19.852  0.00  0.00    +0.000 A 
ATOM      7  C   UNL     1       2.072   8.317  18.988  0.00  0.00    +0.000 A 
ATOM      8  C   UNL     1       1.183   9.382  19.221  0.00  0.00    +0.000 A 
BRANCH   8   9
ATOM      9  O   UNL     1       1.264  10.282  18.202  0.00  0.00    +0.000 OA
ATOM     10  C   UNL     1       1.723  11.599  18.417  0.00  0.00    +0.000 C 
ENDBRANCH   8   9
BRANCH   3  11
ATOM     11  O   UNL     1      -0.440  10.401  20.694  0.00  0.00    +0.000 OA
BRANCH  11  12
ATOM     12  C   UNL     1      -0.079  11.062  21.917  0.00  0.00    +0.000 C 
BRANCH  12  14
ATOM     13  C   UNL     1      -2.337  12.079  23.273  0.00  0.00    +0.000 C 
ATOM     14  C   UNL     1      -1.294  11.609  22.646  0.00  0.00    +0.000 C 
ENDBRANCH  12  14
ENDBRANCH  11  12
ENDBRANCH   3  11
ENDBRANCH   1   6
BRANCH   2  15
ATOM     15  C   UNL     1       5.336   5.253  18.910  0.00  0.00    +0.000 C 
ATOM     16  O   UNL     1       5.871   4.644  19.819  0.00  0.00    +0.000 OA
BRANCH  15  17
ATOM     17  C   UNL     1       5.587   4.913  17.482  0.00  0.00    +0.000 A 
ATOM     18  C   UNL     1       4.582   4.367  16.676  0.00  0.00    +0.000 A 
ATOM     19  C   UNL     1       4.850   4.032  15.348  0.00  0.00    +0.000 A 
ATOM     20  C   UNL     1       6.125   4.237  14.807  0.00  0.00    +0.000 A 
ATOM     21  C   UNL     1       7.122   4.813  15.611  0.00  0.00    +0.000 A 
ATOM     22  C   UNL     1       6.855   5.149  16.944  0.00  0.00    +0.000 A 
BRANCH  20  23
ATOM     23  C   UNL     1       6.408   3.826  13.378  0.00  0.00    +0.000 C 
BRANCH  23  24
ATOM     24  C   UNL     1       5.209   3.888  12.470  0.00  0.00    +0.000 C 
ATOM     25  C   UNL     1       4.874   2.942  11.567  0.00  0.00    +0.000 C 
ATOM     26  C   UNL     1       5.659   1.680  11.330  0.00  0.00    +0.000 C 
ATOM     27  C   UNL     1       3.652   3.089  10.699  0.00  0.00    +0.000 C 
ENDBRANCH  23  24
ENDBRANCH  20  23
ENDBRANCH  15  17
ENDBRANCH   2  15
TORSDOF 9
ENDMDL
