MODEL 1
REMARK VINA RESULT:      -7.9      0.000      0.000
REMARK  Name = 
REMARK  3 active torsions:
REMARK  status: ('A' for Active; 'I' for Inactive)
REMARK    1  A    between atoms: C_2  and  C_3
REMARK    2  A    between atoms: C_2  and  C_10
REMARK    3  A    between atoms: C_14  and  N_15
REMARK                            x       y       z     vdW  Elec       q    Type
REMARK                         _______ _______ _______ _____ _____    ______ ____
ROOT
ATOM      1  C   UNL     1       1.034   9.278  19.939  0.00  0.00    +0.000 A 
ATOM      2  C   UNL     1       0.921   8.404  21.032  0.00  0.00    +0.000 A 
ATOM      3 CL   UNL     1       0.263   8.853  22.573  0.00  0.00    +0.000 Cl
ATOM      4  C   UNL     1       1.440   7.103  20.970  0.00  0.00    +0.000 A 
ATOM      5  C   UNL     1       2.192   6.668  19.878  0.00  0.00    +0.000 A 
ATOM      6  C   UNL     1       2.397   7.579  18.832  0.00  0.00    +0.000 A 
ATOM      7  C   UNL     1       1.804   8.855  18.843  0.00  0.00    +0.000 A 
ATOM      8 CL   UNL     1       2.059   9.817  17.425  0.00  0.00    +0.000 Cl
ENDROOT
BRANCH   5   9
ATOM      9  N   UNL     1       2.792   5.368  19.853  0.00  0.00    +0.000 N 
ATOM     10  N   UNL     1       4.103   5.371  19.409  0.00  0.00    +0.000 NA
ATOM     11  C   UNL     1       4.771   4.267  19.473  0.00  0.00    +0.000 A 
ATOM     12  C   UNL     1       4.185   2.989  19.978  0.00  0.00    +0.000 A 
ATOM     13  O   UNL     1       4.875   1.982  20.019  0.00  0.00    +0.000 OA
ATOM     14  N   UNL     1       2.885   3.068  20.350  0.00  0.00    +0.000 N 
ATOM     15  C   UNL     1       2.136   4.208  20.306  0.00  0.00    +0.000 A 
ATOM     16  O   UNL     1       0.948   4.128  20.632  0.00  0.00    +0.000 OA
ATOM     17  H   UNL     1       2.426   2.231  20.674  0.00  0.00    +0.000 HD
ENDBRANCH   5   9
BRANCH   1  19
ATOM     18  O   UNL     1       1.026  11.580  20.434  0.00  0.00    +0.000 OA
ATOM     19  C   UNL     1       0.410  10.633  19.954  0.00  0.00    +0.000 C 
BRANCH  19  20
ATOM     20  C   UNL     1      -0.980  10.863  19.465  0.00  0.00    +0.000 A 
ATOM     21  C   UNL     1      -1.797  11.880  19.975  0.00  0.00    +0.000 A 
ATOM     22  C   UNL     1      -2.998  12.197  19.332  0.00  0.00    +0.000 A 
ATOM     23  C   UNL     1      -3.410  11.459  18.223  0.00  0.00    +0.000 A 
ATOM     24 CL   UNL     1      -4.862  11.885  17.406  0.00  0.00    +0.000 Cl
ATOM     25  C   UNL     1      -2.646  10.388  17.763  0.00  0.00    +0.000 A 
ATOM     26  C   UNL     1      -1.430  10.089  18.384  0.00  0.00    +0.000 A 
ENDBRANCH  19  20
ENDBRANCH   1  19
TORSDOF 3
ENDMDL
MODEL 2
REMARK VINA RESULT:      -7.8      0.203      2.082
REMARK  Name = 
REMARK  3 active torsions:
REMARK  status: ('A' for Active; 'I' for Inactive)
REMARK    1  A    between atoms: C_2  and  C_3
REMARK    2  A    between atoms: C_2  and  C_10
REMARK    3  A    between atoms: C_14  and  N_15
REMARK                            x       y       z     vdW  Elec       q    Type
REMARK                         _______ _______ _______ _____ _____    ______ ____
ROOT
ATOM      1  C   UNL     1       1.038   9.213  19.973  0.00  0.00    +0.000 A 
ATOM      2  C   UNL     1       1.848   8.806  18.901  0.00  0.00    +0.000 A 
ATOM      3 CL   UNL     1       2.058   9.718  17.440  0.00  0.00    +0.000 Cl
ATOM      4  C   UNL     1       2.476   7.553  18.908  0.00  0.00    +0.000 A 
ATOM      5  C   UNL     1       2.227   6.617  19.913  0.00  0.00    +0.000 A 
ATOM      6  C   UNL     1       1.333   6.983  20.928  0.00  0.00    +0.000 A 
ATOM      7  C   UNL     1       0.768   8.271  20.980  0.00  0.00    +0.000 A 
ATOM      8 CL   UNL     1      -0.225   8.605  22.360  0.00  0.00    +0.000 Cl
ENDROOT
BRANCH   5   9
ATOM      9  N   UNL     1       2.804   5.307  19.874  0.00  0.00    +0.000 N 
ATOM     10  N   UNL     1       4.119   5.292  19.445  0.00  0.00    +0.000 NA
ATOM     11  C   UNL     1       4.766   4.175  19.500  0.00  0.00    +0.000 A 
ATOM     12  C   UNL     1       4.149   2.899  19.976  0.00  0.00    +0.000 A 
ATOM     13  O   UNL     1       4.819   1.879  20.009  0.00  0.00    +0.000 OA
ATOM     14  N   UNL     1       2.847   2.997  20.334  0.00  0.00    +0.000 N 
ATOM     15  C   UNL     1       2.119   4.152  20.300  0.00  0.00    +0.000 A 
ATOM     16  O   UNL     1       0.927   4.090  20.610  0.00  0.00    +0.000 OA
ATOM     17  H   UNL     1       2.367   2.165  20.639  0.00  0.00    +0.000 HD
ENDBRANCH   5   9
BRANCH   1  19
ATOM     18  O   UNL     1       0.951  11.444  20.721  0.00  0.00    +0.000 OA
ATOM     19  C   UNL     1       0.435  10.577  20.024  0.00  0.00    +0.000 C 
BRANCH  19  20
ATOM     20  C   UNL     1      -0.831  10.902  19.303  0.00  0.00    +0.000 A 
ATOM     21  C   UNL     1      -1.284  10.155  18.208  0.00  0.00    +0.000 A 
ATOM     22  C   UNL     1      -2.577  10.357  17.715  0.00  0.00    +0.000 A 
ATOM     23  C   UNL     1      -3.389  11.344  18.273  0.00  0.00    +0.000 A 
ATOM     24 CL   UNL     1      -4.996  11.554  17.695  0.00  0.00    +0.000 Cl
ATOM     25  C   UNL     1      -2.913  12.151  19.304  0.00  0.00    +0.000 A 
ATOM     26  C   UNL     1      -1.633  11.931  19.820  0.00  0.00    +0.000 A 
ENDBRANCH  19  20
ENDBRANCH   1  19
TORSDOF 3
ENDMDL
MODEL 3
REMARK VINA RESULT:      -7.5      1.173      2.524
REMARK  Name = 
REMARK  3 active torsions:
REMARK  status: ('A' for Active; 'I' for Inactive)
REMARK    1  A    between atoms: C_2  and  C_3
REMARK    2  A    between atoms: C_2  and  C_10
REMARK    3  A    between atoms: C_14  and  N_15
REMARK                            x       y       z     vdW  Elec       q    Type
REMARK                         _______ _______ _______ _____ _____    ______ ____
ROOT
ATOM      1  C   UNL     1       1.134   9.152  20.002  0.00  0.00    +0.000 A 
ATOM      2  C   UNL     1       1.897   8.772  18.886  0.00  0.00    +0.000 A 
ATOM      3 CL   UNL     1       2.131   9.766  17.483  0.00  0.00    +0.000 Cl
ATOM      4  C   UNL     1       2.452   7.488  18.797  0.00  0.00    +0.000 A 
ATOM      5  C   UNL     1       2.169   6.503  19.744  0.00  0.00    +0.000 A 
ATOM      6  C   UNL     1       1.317   6.850  20.802  0.00  0.00    +0.000 A 
ATOM      7  C   UNL     1       0.830   8.162  20.951  0.00  0.00    +0.000 A 
ATOM      8 CL   UNL     1      -0.115   8.459  22.373  0.00  0.00    +0.000 Cl
ENDROOT
BRANCH   5   9
ATOM      9  N   UNL     1       2.668   5.167  19.607  0.00  0.00    +0.000 N 
ATOM     10  N   UNL     1       1.675   4.204  19.581  0.00  0.00    +0.000 NA
ATOM     11  C   UNL     1       2.015   2.983  19.330  0.00  0.00    +0.000 A 
ATOM     12  C   UNL     1       3.430   2.564  19.096  0.00  0.00    +0.000 A 
ATOM     13  O   UNL     1       3.683   1.394  18.857  0.00  0.00    +0.000 OA
ATOM     14  N   UNL     1       4.340   3.564  19.183  0.00  0.00    +0.000 N 
ATOM     15  C   UNL     1       4.034   4.869  19.441  0.00  0.00    +0.000 A 
ATOM     16  O   UNL     1       4.967   5.670  19.539  0.00  0.00    +0.000 OA
ATOM     17  H   UNL     1       5.315   3.339  19.062  0.00  0.00    +0.000 HD
ENDBRANCH   5   9
BRANCH   1  19
ATOM     18  O   UNL     1       1.212  11.341  20.866  0.00  0.00    +0.000 OA
ATOM     19  C   UNL     1       0.611  10.541  20.155  0.00  0.00    +0.000 C 
BRANCH  19  20
ATOM     20  C   UNL     1      -0.670  10.972  19.524  0.00  0.00    +0.000 A 
ATOM     21  C   UNL     1      -1.216  10.317  18.412  0.00  0.00    +0.000 A 
ATOM     22  C   UNL     1      -2.520  10.612  18.002  0.00  0.00    +0.000 A 
ATOM     23  C   UNL     1      -3.250  11.602  18.659  0.00  0.00    +0.000 A 
ATOM     24 CL   UNL     1      -4.870  11.926  18.181  0.00  0.00    +0.000 Cl
ATOM     25  C   UNL     1      -2.681  12.320  19.708  0.00  0.00    +0.000 A 
ATOM     26  C   UNL     1      -1.390  12.005  20.142  0.00  0.00    +0.000 A 
ENDBRANCH  19  20
ENDBRANCH   1  19
TORSDOF 3
ENDMDL
MODEL 4
REMARK VINA RESULT:      -7.5      1.156      1.724
REMARK  Name = 
REMARK  3 active torsions:
REMARK  status: ('A' for Active; 'I' for Inactive)
REMARK    1  A    between atoms: C_2  and  C_3
REMARK    2  A    between atoms: C_2  and  C_10
REMARK    3  A    between atoms: C_14  and  N_15
REMARK                            x       y       z     vdW  Elec       q    Type
REMARK                         _______ _______ _______ _____ _____    ______ ____
ROOT
ATOM      1  C   UNL     1       1.152   9.181  19.932  0.00  0.00    +0.000 A 
ATOM      2  C   UNL     1       0.976   8.244  20.963  0.00  0.00    +0.000 A 
ATOM      3 CL   UNL     1       0.344   8.630  22.532  0.00  0.00    +0.000 Cl
ATOM      4  C   UNL     1       1.408   6.918  20.813  0.00  0.00    +0.000 A 
ATOM      5  C   UNL     1       2.132   6.509  19.693  0.00  0.00    +0.000 A 
ATOM      6  C   UNL     1       2.402   7.472  18.711  0.00  0.00    +0.000 A 
ATOM      7  C   UNL     1       1.895   8.782  18.809  0.00  0.00    +0.000 A 
ATOM      8 CL   UNL     1       2.219   9.819  17.459  0.00  0.00    +0.000 Cl
ENDROOT
BRANCH   5   9
ATOM      9  N   UNL     1       2.645   5.177  19.580  0.00  0.00    +0.000 N 
ATOM     10  N   UNL     1       1.661   4.204  19.552  0.00  0.00    +0.000 NA
ATOM     11  C   UNL     1       2.016   2.983  19.322  0.00  0.00    +0.000 A 
ATOM     12  C   UNL     1       3.439   2.574  19.114  0.00  0.00    +0.000 A 
ATOM     13  O   UNL     1       3.706   1.404  18.893  0.00  0.00    +0.000 OA
ATOM     14  N   UNL     1       4.338   3.584  19.202  0.00  0.00    +0.000 N 
ATOM     15  C   UNL     1       4.016   4.889  19.438  0.00  0.00    +0.000 A 
ATOM     16  O   UNL     1       4.941   5.700  19.540  0.00  0.00    +0.000 OA
ATOM     17  H   UNL     1       5.317   3.366  19.098  0.00  0.00    +0.000 HD
ENDBRANCH   5   9
BRANCH   1  19
ATOM     18  O   UNL     1       1.224  11.402  20.709  0.00  0.00    +0.000 OA
ATOM     19  C   UNL     1       0.620  10.570  20.040  0.00  0.00    +0.000 C 
BRANCH  19  20
ATOM     20  C   UNL     1      -0.675  10.966  19.412  0.00  0.00    +0.000 A 
ATOM     21  C   UNL     1      -1.225  10.273  18.325  0.00  0.00    +0.000 A 
ATOM     22  C   UNL     1      -2.537  10.539  17.923  0.00  0.00    +0.000 A 
ATOM     23  C   UNL     1      -3.274  11.536  18.562  0.00  0.00    +0.000 A 
ATOM     24 CL   UNL     1      -4.904  11.824  18.095  0.00  0.00    +0.000 Cl
ATOM     25  C   UNL     1      -2.703  12.290  19.585  0.00  0.00    +0.000 A 
ATOM     26  C   UNL     1      -1.403  12.005  20.011  0.00  0.00    +0.000 A 
ENDBRANCH  19  20
ENDBRANCH   1  19
TORSDOF 3
ENDMDL
MODEL 5
REMARK VINA RESULT:      -7.5      1.043      1.382
REMARK  Name = 
REMARK  3 active torsions:
REMARK  status: ('A' for Active; 'I' for Inactive)
REMARK    1  A    between atoms: C_2  and  C_3
REMARK    2  A    between atoms: C_2  and  C_10
REMARK    3  A    between atoms: C_14  and  N_15
REMARK                            x       y       z     vdW  Elec       q    Type
REMARK                         _______ _______ _______ _____ _____    ______ ____
ROOT
ATOM      1  C   UNL     1       1.099   9.200  19.921  0.00  0.00    +0.000 A 
ATOM      2  C   UNL     1       0.984   8.312  21.003  0.00  0.00    +0.000 A 
ATOM      3 CL   UNL     1       0.346   8.749  22.557  0.00  0.00    +0.000 Cl
ATOM      4  C   UNL     1       1.485   7.005  20.919  0.00  0.00    +0.000 A 
ATOM      5  C   UNL     1       2.220   6.576  19.814  0.00  0.00    +0.000 A 
ATOM      6  C   UNL     1       2.428   7.498  18.778  0.00  0.00    +0.000 A 
ATOM      7  C   UNL     1       1.852   8.781  18.812  0.00  0.00    +0.000 A 
ATOM      8 CL   UNL     1       2.107   9.760  17.405  0.00  0.00    +0.000 Cl
ENDROOT
BRANCH   5   9
ATOM      9  N   UNL     1       2.803   5.268  19.766  0.00  0.00    +0.000 N 
ATOM     10  N   UNL     1       1.894   4.247  19.981  0.00  0.00    +0.000 NA
ATOM     11  C   UNL     1       2.298   3.030  19.829  0.00  0.00    +0.000 A 
ATOM     12  C   UNL     1       3.702   2.677  19.461  0.00  0.00    +0.000 A 
ATOM     13  O   UNL     1       4.016   1.505  19.326  0.00  0.00    +0.000 OA
ATOM     14  N   UNL     1       4.534   3.736  19.313  0.00  0.00    +0.000 N 
ATOM     15  C   UNL     1       4.158   5.041  19.458  0.00  0.00    +0.000 A 
ATOM     16  O   UNL     1       5.029   5.906  19.340  0.00  0.00    +0.000 OA
ATOM     17  H   UNL     1       5.501   3.561  19.091  0.00  0.00    +0.000 HD
ENDBRANCH   5   9
BRANCH   1  19
ATOM     18  O   UNL     1       1.124  11.494  20.452  0.00  0.00    +0.000 OA
ATOM     19  C   UNL     1       0.493  10.563  19.961  0.00  0.00    +0.000 C 
BRANCH  19  20
ATOM     20  C   UNL     1      -0.897  10.818  19.483  0.00  0.00    +0.000 A 
ATOM     21  C   UNL     1      -1.692  11.848  20.004  0.00  0.00    +0.000 A 
ATOM     22  C   UNL     1      -2.892  12.189  19.371  0.00  0.00    +0.000 A 
ATOM     23  C   UNL     1      -3.325  11.462  18.262  0.00  0.00    +0.000 A 
ATOM     24 CL   UNL     1      -4.776  11.917  17.458  0.00  0.00    +0.000 Cl
ATOM     25  C   UNL     1      -2.584  10.380  17.793  0.00  0.00    +0.000 A 
ATOM     26  C   UNL     1      -1.369  10.058  18.403  0.00  0.00    +0.000 A 
ENDBRANCH  19  20
ENDBRANCH   1  19
TORSDOF 3
ENDMDL
MODEL 6
REMARK VINA RESULT:      -7.2      0.567      1.935
REMARK  Name = 
REMARK  3 active torsions:
REMARK  status: ('A' for Active; 'I' for Inactive)
REMARK    1  A    between atoms: C_2  and  C_3
REMARK    2  A    between atoms: C_2  and  C_10
REMARK    3  A    between atoms: C_14  and  N_15
REMARK                            x       y       z     vdW  Elec       q    Type
REMARK                         _______ _______ _______ _____ _____    ______ ____
ROOT
ATOM      1  C   UNL     1       0.986   9.600  20.133  0.00  0.00    +0.000 A 
ATOM      2  C   UNL     1       1.681   9.188  18.985  0.00  0.00    +0.000 A 
ATOM      3 CL   UNL     1       1.767  10.109  17.517  0.00  0.00    +0.000 Cl
ATOM      4  C   UNL     1       2.284   7.924  18.922  0.00  0.00    +0.000 A 
ATOM      5  C   UNL     1       2.116   6.984  19.940  0.00  0.00    +0.000 A 
ATOM      6  C   UNL     1       1.330   7.357  21.040  0.00  0.00    +0.000 A 
ATOM      7  C   UNL     1       0.797   8.654  21.154  0.00  0.00    +0.000 A 
ATOM      8 CL   UNL     1      -0.052   8.994  22.626  0.00  0.00    +0.000 Cl
ENDROOT
BRANCH   5   9
ATOM      9  N   UNL     1       2.661   5.664  19.837  0.00  0.00    +0.000 N 
ATOM     10  N   UNL     1       3.996   5.642  19.470  0.00  0.00    +0.000 NA
ATOM     11  C   UNL     1       4.611   4.507  19.476  0.00  0.00    +0.000 A 
ATOM     12  C   UNL     1       3.942   3.219  19.833  0.00  0.00    +0.000 A 
ATOM     13  O   UNL     1       4.584   2.181  19.826  0.00  0.00    +0.000 OA
ATOM     14  N   UNL     1       2.626   3.328  20.136  0.00  0.00    +0.000 N 
ATOM     15  C   UNL     1       1.929   4.502  20.148  0.00  0.00    +0.000 A 
ATOM     16  O   UNL     1       0.722   4.452  20.397  0.00  0.00    +0.000 OA
ATOM     17  H   UNL     1       2.112   2.490  20.358  0.00  0.00    +0.000 HD
ENDBRANCH   5   9
BRANCH   1  19
ATOM     18  O   UNL     1       1.121  11.892  20.657  0.00  0.00    +0.000 OA
ATOM     19  C   UNL     1       0.416  10.974  20.251  0.00  0.00    +0.000 C 
BRANCH  19  20
ATOM     20  C   UNL     1      -1.020  11.255  19.957  0.00  0.00    +0.000 A 
ATOM     21  C   UNL     1      -1.809  12.069  20.780  0.00  0.00    +0.000 A 
ATOM     22  C   UNL     1      -3.071  12.483  20.344  0.00  0.00    +0.000 A 
ATOM     23  C   UNL     1      -3.568  12.035  19.121  0.00  0.00    +0.000 A 
ATOM     24 CL   UNL     1      -5.100  12.588  18.567  0.00  0.00    +0.000 Cl
ATOM     25  C   UNL     1      -2.826  11.155  18.337  0.00  0.00    +0.000 A 
ATOM     26  C   UNL     1      -1.550  10.764  18.754  0.00  0.00    +0.000 A 
ENDBRANCH  19  20
ENDBRANCH   1  19
TORSDOF 3
ENDMDL
MODEL 7
REMARK VINA RESULT:      -7.1      1.157      2.370
REMARK  Name = 
REMARK  3 active torsions:
REMARK  status: ('A' for Active; 'I' for Inactive)
REMARK    1  A    between atoms: C_2  and  C_3
REMARK    2  A    between atoms: C_2  and  C_10
REMARK    3  A    between atoms: C_14  and  N_15
REMARK                            x       y       z     vdW  Elec       q    Type
REMARK                         _______ _______ _______ _____ _____    ______ ____
ROOT
ATOM      1  C   UNL     1       1.206   9.025  19.979  0.00  0.00    +0.000 A 
ATOM      2  C   UNL     1       1.949   8.764  18.817  0.00  0.00    +0.000 A 
ATOM      3 CL   UNL     1       2.187   9.911  17.536  0.00  0.00    +0.000 Cl
ATOM      4  C   UNL     1       2.478   7.489  18.570  0.00  0.00    +0.000 A 
ATOM      5  C   UNL     1       2.186   6.406  19.400  0.00  0.00    +0.000 A 
ATOM      6  C   UNL     1       1.353   6.643  20.503  0.00  0.00    +0.000 A 
ATOM      7  C   UNL     1       0.893   7.937  20.810  0.00  0.00    +0.000 A 
ATOM      8 CL   UNL     1      -0.029   8.082  22.270  0.00  0.00    +0.000 Cl
ENDROOT
BRANCH   5   9
ATOM      9  N   UNL     1       2.656   5.086  19.101  0.00  0.00    +0.000 N 
ATOM     10  N   UNL     1       3.755   4.705  19.851  0.00  0.00    +0.000 NA
ATOM     11  C   UNL     1       4.172   3.488  19.747  0.00  0.00    +0.000 A 
ATOM     12  C   UNL     1       3.541   2.486  18.835  0.00  0.00    +0.000 A 
ATOM     13  O   UNL     1       3.981   1.348  18.789  0.00  0.00    +0.000 OA
ATOM     14  N   UNL     1       2.501   2.957  18.106  0.00  0.00    +0.000 N 
ATOM     15  C   UNL     1       2.018   4.232  18.182  0.00  0.00    +0.000 A 
ATOM     16  O   UNL     1       1.093   4.542  17.426  0.00  0.00    +0.000 OA
ATOM     17  H   UNL     1       2.051   2.336  17.452  0.00  0.00    +0.000 HD
ENDBRANCH   5   9
BRANCH   1  19
ATOM     18  O   UNL     1       1.325  11.088  21.109  0.00  0.00    +0.000 OA
ATOM     19  C   UNL     1       0.713  10.396  20.301  0.00  0.00    +0.000 C 
BRANCH  19  20
ATOM     20  C   UNL     1      -0.553  10.931  19.721  0.00  0.00    +0.000 A 
ATOM     21  C   UNL     1      -1.152  10.374  18.583  0.00  0.00    +0.000 A 
ATOM     22  C   UNL     1      -2.444  10.761  18.216  0.00  0.00    +0.000 A 
ATOM     23  C   UNL     1      -3.109  11.747  18.945  0.00  0.00    +0.000 A 
ATOM     24 CL   UNL     1      -4.717  12.183  18.518  0.00  0.00    +0.000 Cl
ATOM     25  C   UNL     1      -2.486  12.369  20.024  0.00  0.00    +0.000 A 
ATOM     26  C   UNL     1      -1.207  11.961  20.413  0.00  0.00    +0.000 A 
ENDBRANCH  19  20
ENDBRANCH   1  19
TORSDOF 3
ENDMDL
MODEL 8
REMARK VINA RESULT:      -7.1      1.082      1.454
REMARK  Name = 
REMARK  3 active torsions:
REMARK  status: ('A' for Active; 'I' for Inactive)
REMARK    1  A    between atoms: C_2  and  C_3
REMARK    2  A    between atoms: C_2  and  C_10
REMARK    3  A    between atoms: C_14  and  N_15
REMARK                            x       y       z     vdW  Elec       q    Type
REMARK                         _______ _______ _______ _____ _____    ______ ____
ROOT
ATOM      1  C   UNL     1       1.208   9.055  19.805  0.00  0.00    +0.000 A 
ATOM      2  C   UNL     1       1.015   8.017  20.730  0.00  0.00    +0.000 A 
ATOM      3 CL   UNL     1       0.363   8.243  22.322  0.00  0.00    +0.000 Cl
ATOM      4  C   UNL     1       1.442   6.712  20.449  0.00  0.00    +0.000 A 
ATOM      5  C   UNL     1       2.181   6.417  19.302  0.00  0.00    +0.000 A 
ATOM      6  C   UNL     1       2.468   7.476  18.429  0.00  0.00    +0.000 A 
ATOM      7  C   UNL     1       1.965   8.771  18.656  0.00  0.00    +0.000 A 
ATOM      8 CL   UNL     1       2.311   9.941  17.425  0.00  0.00    +0.000 Cl
ENDROOT
BRANCH   5   9
ATOM      9  N   UNL     1       2.689   5.101  19.058  0.00  0.00    +0.000 N 
ATOM     10  N   UNL     1       3.814   4.793  19.804  0.00  0.00    +0.000 NA
ATOM     11  C   UNL     1       4.270   3.586  19.751  0.00  0.00    +0.000 A 
ATOM     12  C   UNL     1       3.656   2.521  18.901  0.00  0.00    +0.000 A 
ATOM     13  O   UNL     1       4.133   1.396  18.902  0.00  0.00    +0.000 OA
ATOM     14  N   UNL     1       2.587   2.921  18.172  0.00  0.00    +0.000 N 
ATOM     15  C   UNL     1       2.064   4.182  18.194  0.00  0.00    +0.000 A 
ATOM     16  O   UNL     1       1.115   4.424  17.443  0.00  0.00    +0.000 OA
ATOM     17  H   UNL     1       2.146   2.255  17.558  0.00  0.00    +0.000 HD
ENDBRANCH   5   9
BRANCH   1  19
ATOM     18  O   UNL     1       1.273  11.179  20.818  0.00  0.00    +0.000 OA
ATOM     19  C   UNL     1       0.680  10.429  20.049  0.00  0.00    +0.000 C 
BRANCH  19  20
ATOM     20  C   UNL     1      -0.597  10.900  19.437  0.00  0.00    +0.000 A 
ATOM     21  C   UNL     1      -1.157  10.289  18.307  0.00  0.00    +0.000 A 
ATOM     22  C   UNL     1      -2.458  10.617  17.912  0.00  0.00    +0.000 A 
ATOM     23  C   UNL     1      -3.170  11.596  18.604  0.00  0.00    +0.000 A 
ATOM     24 CL   UNL     1      -4.787  11.960  18.145  0.00  0.00    +0.000 Cl
ATOM     25  C   UNL     1      -2.586  12.271  19.674  0.00  0.00    +0.000 A 
ATOM     26  C   UNL     1      -1.299  11.923  20.092  0.00  0.00    +0.000 A 
ENDBRANCH  19  20
ENDBRANCH   1  19
TORSDOF 3
ENDMDL
MODEL 9
REMARK VINA RESULT:      -7.1      2.350      3.497
REMARK  Name = 
REMARK  3 active torsions:
REMARK  status: ('A' for Active; 'I' for Inactive)
REMARK    1  A    between atoms: C_2  and  C_3
REMARK    2  A    between atoms: C_2  and  C_10
REMARK    3  A    between atoms: C_14  and  N_15
REMARK                            x       y       z     vdW  Elec       q    Type
REMARK                         _______ _______ _______ _____ _____    ______ ____
ROOT
ATOM      1  C   UNL     1       0.378  10.691  21.086  0.00  0.00    +0.000 A 
ATOM      2  C   UNL     1       0.755  10.561  19.739  0.00  0.00    +0.000 A 
ATOM      3 CL   UNL     1       0.384  11.725  18.508  0.00  0.00    +0.000 Cl
ATOM      4  C   UNL     1       1.388   9.398  19.278  0.00  0.00    +0.000 A 
ATOM      5  C   UNL     1       1.557   8.283  20.101  0.00  0.00    +0.000 A 
ATOM      6  C   UNL     1       1.082   8.374  21.417  0.00  0.00    +0.000 A 
ATOM      7  C   UNL     1       0.529   9.568  21.916  0.00  0.00    +0.000 A 
ATOM      8 CL   UNL     1       0.097   9.555  23.594  0.00  0.00    +0.000 Cl
ENDROOT
BRANCH   5   9
ATOM      9  N   UNL     1       2.127   7.067  19.604  0.00  0.00    +0.000 N 
ATOM     10  N   UNL     1       1.884   5.970  20.412  0.00  0.00    +0.000 NA
ATOM     11  C   UNL     1       2.245   4.806  19.985  0.00  0.00    +0.000 A 
ATOM     12  C   UNL     1       2.936   4.597  18.676  0.00  0.00    +0.000 A 
ATOM     13  O   UNL     1       3.244   3.468  18.328  0.00  0.00    +0.000 OA
ATOM     14  N   UNL     1       3.173   5.729  17.972  0.00  0.00    +0.000 N 
ATOM     15  C   UNL     1       2.809   6.982  18.375  0.00  0.00    +0.000 A 
ATOM     16  O   UNL     1       3.128   7.933  17.657  0.00  0.00    +0.000 OA
ATOM     17  H   UNL     1       3.661   5.656  17.093  0.00  0.00    +0.000 HD
ENDBRANCH   5   9
BRANCH   1  19
ATOM     18  O   UNL     1       0.522  12.870  21.967  0.00  0.00    +0.000 OA
ATOM     19  C   UNL     1      -0.215  11.955  21.613  0.00  0.00    +0.000 C 
BRANCH  19  20
ATOM     20  C   UNL     1      -1.687  12.115  21.793  0.00  0.00    +0.000 A 
ATOM     21  C   UNL     1      -2.299  12.067  23.052  0.00  0.00    +0.000 A 
ATOM     22  C   UNL     1      -3.638  12.447  23.191  0.00  0.00    +0.000 A 
ATOM     23  C   UNL     1      -4.378  12.811  22.066  0.00  0.00    +0.000 A 
ATOM     24 CL   UNL     1      -6.010  13.325  22.249  0.00  0.00    +0.000 Cl
ATOM     25  C   UNL     1      -3.802  12.776  20.799  0.00  0.00    +0.000 A 
ATOM     26  C   UNL     1      -2.456  12.428  20.661  0.00  0.00    +0.000 A 
ENDBRANCH  19  20
ENDBRANCH   1  19
TORSDOF 3
ENDMDL
