MODEL 1
REMARK VINA RESULT:      -6.7      0.000      0.000
REMARK  Name = 
REMARK  2 active torsions:
REMARK  status: ('A' for Active; 'I' for Inactive)
REMARK    1  A    between atoms: C_2  and  C_3
REMARK    2  A    between atoms: C_6  and  C_7
REMARK                            x       y       z     vdW  Elec       q    Type
REMARK                         _______ _______ _______ _____ _____    ______ ____
ROOT
ATOM      1  C   UNL     1       6.065   4.472  16.472  0.00  0.00    +0.000 A 
ATOM      2  C   UNL     1       4.795   4.065  16.066  0.00  0.00    +0.000 A 
ATOM      3  C   UNL     1       3.822   3.761  17.025  0.00  0.00    +0.000 A 
ATOM      4  C   UNL     1       4.097   3.849  18.403  0.00  0.00    +0.000 A 
ATOM      5  C   UNL     1       5.387   4.273  18.781  0.00  0.00    +0.000 A 
ATOM      6  C   UNL     1       6.367   4.579  17.828  0.00  0.00    +0.000 A 
ENDROOT
BRANCH   4   7
ATOM      7  C   UNL     1       3.076   3.526  19.422  0.00  0.00    +0.000 A 
ATOM      8  C   UNL     1       1.736   3.897  19.293  0.00  0.00    +0.000 A 
ATOM      9  C   UNL     1       0.834   3.580  20.307  0.00  0.00    +0.000 A 
ATOM     10  C   UNL     1       1.285   2.893  21.425  0.00  0.00    +0.000 A 
ATOM     11  C   UNL     1       2.622   2.544  21.477  0.00  0.00    +0.000 A 
ATOM     12  N   UNL     1       3.517   2.837  20.507  0.00  0.00    +0.000 NA
ENDBRANCH   4   7
BRANCH   1  14
ATOM     13  O   UNL     1       7.684   5.871  15.459  0.00  0.00    +0.000 OA
ATOM     14  C   UNL     1       7.096   4.795  15.466  0.00  0.00    +0.000 C 
ENDBRANCH   1  14
TORSDOF 2
ENDMDL
MODEL 2
REMARK VINA RESULT:      -6.6      0.067      1.291
REMARK  Name = 
REMARK  2 active torsions:
REMARK  status: ('A' for Active; 'I' for Inactive)
REMARK    1  A    between atoms: C_2  and  C_3
REMARK    2  A    between atoms: C_6  and  C_7
REMARK                            x       y       z     vdW  Elec       q    Type
REMARK                         _______ _______ _______ _____ _____    ______ ____
ROOT
ATOM      1  C   UNL     1       6.060   4.505  16.434  0.00  0.00    +0.000 A 
ATOM      2  C   UNL     1       6.382   4.592  17.788  0.00  0.00    +0.000 A 
ATOM      3  C   UNL     1       5.416   4.291  18.753  0.00  0.00    +0.000 A 
ATOM      4  C   UNL     1       4.111   3.904  18.391  0.00  0.00    +0.000 A 
ATOM      5  C   UNL     1       3.820   3.816  17.016  0.00  0.00    +0.000 A 
ATOM      6  C   UNL     1       4.781   4.116  16.041  0.00  0.00    +0.000 A 
ENDROOT
BRANCH   4   7
ATOM      7  C   UNL     1       3.084   3.588  19.406  0.00  0.00    +0.000 A 
ATOM      8  C   UNL     1       1.754   3.998  19.288  0.00  0.00    +0.000 A 
ATOM      9  C   UNL     1       0.846   3.685  20.297  0.00  0.00    +0.000 A 
ATOM     10  C   UNL     1       1.280   2.962  21.399  0.00  0.00    +0.000 A 
ATOM     11  C   UNL     1       2.607   2.575  21.441  0.00  0.00    +0.000 A 
ATOM     12  N   UNL     1       3.508   2.864  20.475  0.00  0.00    +0.000 NA
ENDBRANCH   4   7
BRANCH   1  14
ATOM     13  O   UNL     1       7.668   5.893  15.388  0.00  0.00    +0.000 OA
ATOM     14  C   UNL     1       7.075   4.820  15.409  0.00  0.00    +0.000 C 
ENDBRANCH   1  14
TORSDOF 2
ENDMDL
MODEL 3
REMARK VINA RESULT:      -6.5      1.610      1.982
REMARK  Name = 
REMARK  2 active torsions:
REMARK  status: ('A' for Active; 'I' for Inactive)
REMARK    1  A    between atoms: C_2  and  C_3
REMARK    2  A    between atoms: C_6  and  C_7
REMARK                            x       y       z     vdW  Elec       q    Type
REMARK                         _______ _______ _______ _____ _____    ______ ____
ROOT
ATOM      1  C   UNL     1       5.938   4.882  15.391  0.00  0.00    +0.000 A 
ATOM      2  C   UNL     1       5.468   6.063  15.962  0.00  0.00    +0.000 A 
ATOM      3  C   UNL     1       4.517   6.011  16.986  0.00  0.00    +0.000 A 
ATOM      4  C   UNL     1       4.010   4.785  17.456  0.00  0.00    +0.000 A 
ATOM      5  C   UNL     1       4.511   3.608  16.865  0.00  0.00    +0.000 A 
ATOM      6  C   UNL     1       5.464   3.650  15.839  0.00  0.00    +0.000 A 
ENDROOT
BRANCH   4   7
ATOM      7  C   UNL     1       3.001   4.721  18.535  0.00  0.00    +0.000 A 
ATOM      8  C   UNL     1       2.898   5.695  19.531  0.00  0.00    +0.000 A 
ATOM      9  C   UNL     1       1.939   5.556  20.531  0.00  0.00    +0.000 A 
ATOM     10  C   UNL     1       1.096   4.453  20.514  0.00  0.00    +0.000 A 
ATOM     11  C   UNL     1       1.246   3.538  19.489  0.00  0.00    +0.000 A 
ATOM     12  N   UNL     1       2.166   3.650  18.505  0.00  0.00    +0.000 NA
ENDBRANCH   4   7
BRANCH   1  14
ATOM     13  O   UNL     1       7.942   5.635  14.381  0.00  0.00    +0.000 OA
ATOM     14  C   UNL     1       6.943   4.929  14.310  0.00  0.00    +0.000 C 
ENDBRANCH   1  14
TORSDOF 2
ENDMDL
MODEL 4
REMARK VINA RESULT:      -6.5      1.639      1.886
REMARK  Name = 
REMARK  2 active torsions:
REMARK  status: ('A' for Active; 'I' for Inactive)
REMARK    1  A    between atoms: C_2  and  C_3
REMARK    2  A    between atoms: C_6  and  C_7
REMARK                            x       y       z     vdW  Elec       q    Type
REMARK                         _______ _______ _______ _____ _____    ______ ____
ROOT
ATOM      1  C   UNL     1       5.872   4.862  15.412  0.00  0.00    +0.000 A 
ATOM      2  C   UNL     1       5.383   6.016  16.023  0.00  0.00    +0.000 A 
ATOM      3  C   UNL     1       4.432   5.912  17.044  0.00  0.00    +0.000 A 
ATOM      4  C   UNL     1       3.946   4.661  17.471  0.00  0.00    +0.000 A 
ATOM      5  C   UNL     1       4.468   3.514  16.841  0.00  0.00    +0.000 A 
ATOM      6  C   UNL     1       5.420   3.608  15.817  0.00  0.00    +0.000 A 
ENDROOT
BRANCH   4   7
ATOM      7  C   UNL     1       2.939   4.544  18.547  0.00  0.00    +0.000 A 
ATOM      8  C   UNL     1       1.986   3.523  18.581  0.00  0.00    +0.000 A 
ATOM      9  C   UNL     1       1.051   3.491  19.613  0.00  0.00    +0.000 A 
ATOM     10  C   UNL     1       1.089   4.472  20.594  0.00  0.00    +0.000 A 
ATOM     11  C   UNL     1       2.070   5.442  20.504  0.00  0.00    +0.000 A 
ATOM     12  N   UNL     1       2.990   5.496  19.515  0.00  0.00    +0.000 NA
ENDBRANCH   4   7
BRANCH   1  14
ATOM     13  O   UNL     1       7.901   5.625  14.459  0.00  0.00    +0.000 OA
ATOM     14  C   UNL     1       6.877   4.963  14.334  0.00  0.00    +0.000 C 
ENDBRANCH   1  14
TORSDOF 2
ENDMDL
MODEL 5
REMARK VINA RESULT:      -6.4      3.020      5.788
REMARK  Name = 
REMARK  2 active torsions:
REMARK  status: ('A' for Active; 'I' for Inactive)
REMARK    1  A    between atoms: C_2  and  C_3
REMARK    2  A    between atoms: C_6  and  C_7
REMARK                            x       y       z     vdW  Elec       q    Type
REMARK                         _______ _______ _______ _____ _____    ______ ____
ROOT
ATOM      1  C   UNL     1       2.189   3.216  20.119  0.00  0.00    +0.000 A 
ATOM      2  C   UNL     1       1.827   4.018  19.037  0.00  0.00    +0.000 A 
ATOM      3  C   UNL     1       2.774   4.334  18.058  0.00  0.00    +0.000 A 
ATOM      4  C   UNL     1       4.100   3.866  18.140  0.00  0.00    +0.000 A 
ATOM      5  C   UNL     1       4.432   3.051  19.240  0.00  0.00    +0.000 A 
ATOM      6  C   UNL     1       3.490   2.728  20.226  0.00  0.00    +0.000 A 
ENDROOT
BRANCH   4   7
ATOM      7  C   UNL     1       5.108   4.200  17.112  0.00  0.00    +0.000 A 
ATOM      8  C   UNL     1       4.807   4.255  15.749  0.00  0.00    +0.000 A 
ATOM      9  C   UNL     1       5.815   4.551  14.834  0.00  0.00    +0.000 A 
ATOM     10  C   UNL     1       7.101   4.794  15.297  0.00  0.00    +0.000 A 
ATOM     11  C   UNL     1       7.322   4.737  16.661  0.00  0.00    +0.000 A 
ATOM     12  N   UNL     1       6.362   4.454  17.569  0.00  0.00    +0.000 NA
ENDBRANCH   4   7
BRANCH   1  14
ATOM     13  O   UNL     1       1.523   2.513  22.279  0.00  0.00    +0.000 OA
ATOM     14  C   UNL     1       1.194   2.877  21.156  0.00  0.00    +0.000 C 
ENDBRANCH   1  14
TORSDOF 2
ENDMDL
MODEL 6
REMARK VINA RESULT:      -6.4      3.023      5.893
REMARK  Name = 
REMARK  2 active torsions:
REMARK  status: ('A' for Active; 'I' for Inactive)
REMARK    1  A    between atoms: C_2  and  C_3
REMARK    2  A    between atoms: C_6  and  C_7
REMARK                            x       y       z     vdW  Elec       q    Type
REMARK                         _______ _______ _______ _____ _____    ______ ____
ROOT
ATOM      1  C   UNL     1       2.189   3.232  20.106  0.00  0.00    +0.000 A 
ATOM      2  C   UNL     1       3.511   2.818  20.264  0.00  0.00    +0.000 A 
ATOM      3  C   UNL     1       4.461   3.132  19.288  0.00  0.00    +0.000 A 
ATOM      4  C   UNL     1       4.114   3.858  18.132  0.00  0.00    +0.000 A 
ATOM      5  C   UNL     1       2.773   4.272  18.006  0.00  0.00    +0.000 A 
ATOM      6  C   UNL     1       1.814   3.962  18.979  0.00  0.00    +0.000 A 
ENDROOT
BRANCH   4   7
ATOM      7  C   UNL     1       5.111   4.192  17.093  0.00  0.00    +0.000 A 
ATOM      8  C   UNL     1       4.797   4.243  15.733  0.00  0.00    +0.000 A 
ATOM      9  C   UNL     1       5.796   4.539  14.808  0.00  0.00    +0.000 A 
ATOM     10  C   UNL     1       7.085   4.786  15.258  0.00  0.00    +0.000 A 
ATOM     11  C   UNL     1       7.319   4.733  16.620  0.00  0.00    +0.000 A 
ATOM     12  N   UNL     1       6.369   4.450  17.538  0.00  0.00    +0.000 NA
ENDBRANCH   4   7
BRANCH   1  14
ATOM     13  O   UNL     1       1.493   2.471  22.236  0.00  0.00    +0.000 OA
ATOM     14  C   UNL     1       1.181   2.905  21.133  0.00  0.00    +0.000 C 
ENDBRANCH   1  14
TORSDOF 2
ENDMDL
MODEL 7
REMARK VINA RESULT:      -6.4      1.657      1.933
REMARK  Name = 
REMARK  2 active torsions:
REMARK  status: ('A' for Active; 'I' for Inactive)
REMARK    1  A    between atoms: C_2  and  C_3
REMARK    2  A    between atoms: C_6  and  C_7
REMARK                            x       y       z     vdW  Elec       q    Type
REMARK                         _______ _______ _______ _____ _____    ______ ____
ROOT
ATOM      1  C   UNL     1       5.867   4.941  15.353  0.00  0.00    +0.000 A 
ATOM      2  C   UNL     1       5.430   3.703  15.819  0.00  0.00    +0.000 A 
ATOM      3  C   UNL     1       4.497   3.640  16.859  0.00  0.00    +0.000 A 
ATOM      4  C   UNL     1       3.987   4.808  17.459  0.00  0.00    +0.000 A 
ATOM      5  C   UNL     1       4.441   6.044  16.959  0.00  0.00    +0.000 A 
ATOM      6  C   UNL     1       5.375   6.117  15.918  0.00  0.00    +0.000 A 
ENDROOT
BRANCH   4   7
ATOM      7  C   UNL     1       3.004   4.750  18.562  0.00  0.00    +0.000 A 
ATOM      8  C   UNL     1       2.178   3.645  18.781  0.00  0.00    +0.000 A 
ATOM      9  C   UNL     1       1.257   3.672  19.825  0.00  0.00    +0.000 A 
ATOM     10  C   UNL     1       1.182   4.797  20.635  0.00  0.00    +0.000 A 
ATOM     11  C   UNL     1       2.041   5.847  20.368  0.00  0.00    +0.000 A 
ATOM     12  N   UNL     1       2.946   5.846  19.363  0.00  0.00    +0.000 NA
ENDBRANCH   4   7
BRANCH   1  14
ATOM     13  O   UNL     1       7.990   5.431  14.428  0.00  0.00    +0.000 OA
ATOM     14  C   UNL     1       6.851   5.015  14.254  0.00  0.00    +0.000 C 
ENDBRANCH   1  14
TORSDOF 2
ENDMDL
MODEL 8
REMARK VINA RESULT:      -6.4      0.988      1.075
REMARK  Name = 
REMARK  2 active torsions:
REMARK  status: ('A' for Active; 'I' for Inactive)
REMARK    1  A    between atoms: C_2  and  C_3
REMARK    2  A    between atoms: C_6  and  C_7
REMARK                            x       y       z     vdW  Elec       q    Type
REMARK                         _______ _______ _______ _____ _____    ______ ____
ROOT
ATOM      1  C   UNL     1       5.538   4.908  15.809  0.00  0.00    +0.000 A 
ATOM      2  C   UNL     1       5.325   3.571  16.141  0.00  0.00    +0.000 A 
ATOM      3  C   UNL     1       4.487   3.245  17.213  0.00  0.00    +0.000 A 
ATOM      4  C   UNL     1       3.851   4.242  17.977  0.00  0.00    +0.000 A 
ATOM      5  C   UNL     1       4.078   5.583  17.610  0.00  0.00    +0.000 A 
ATOM      6  C   UNL     1       4.916   5.920  16.539  0.00  0.00    +0.000 A 
ENDROOT
BRANCH   4   7
ATOM      7  C   UNL     1       2.967   3.906  19.114  0.00  0.00    +0.000 A 
ATOM      8  C   UNL     1       1.679   4.427  19.248  0.00  0.00    +0.000 A 
ATOM      9  C   UNL     1       0.912   4.085  20.360  0.00  0.00    +0.000 A 
ATOM     10  C   UNL     1       1.442   3.225  21.311  0.00  0.00    +0.000 A 
ATOM     11  C   UNL     1       2.719   2.736  21.104  0.00  0.00    +0.000 A 
ATOM     12  N   UNL     1       3.483   3.049  20.034  0.00  0.00    +0.000 NA
ENDBRANCH   4   7
BRANCH   1  14
ATOM     13  O   UNL     1       7.610   5.509  14.834  0.00  0.00    +0.000 OA
ATOM     14  C   UNL     1       6.420   5.260  14.679  0.00  0.00    +0.000 C 
ENDBRANCH   1  14
TORSDOF 2
ENDMDL
MODEL 9
REMARK VINA RESULT:      -6.3      2.001      2.452
REMARK  Name = 
REMARK  2 active torsions:
REMARK  status: ('A' for Active; 'I' for Inactive)
REMARK    1  A    between atoms: C_2  and  C_3
REMARK    2  A    between atoms: C_6  and  C_7
REMARK                            x       y       z     vdW  Elec       q    Type
REMARK                         _______ _______ _______ _____ _____    ______ ____
ROOT
ATOM      1  C   UNL     1       6.423   6.497  17.775  0.00  0.00    +0.000 A 
ATOM      2  C   UNL     1       6.499   5.553  18.798  0.00  0.00    +0.000 A 
ATOM      3  C   UNL     1       5.354   4.846  19.179  0.00  0.00    +0.000 A 
ATOM      4  C   UNL     1       4.111   5.070  18.556  0.00  0.00    +0.000 A 
ATOM      5  C   UNL     1       4.069   6.023  17.519  0.00  0.00    +0.000 A 
ATOM      6  C   UNL     1       5.211   6.736  17.129  0.00  0.00    +0.000 A 
ENDROOT
BRANCH   4   7
ATOM      7  C   UNL     1       2.895   4.330  18.956  0.00  0.00    +0.000 A 
ATOM      8  C   UNL     1       2.143   4.667  20.083  0.00  0.00    +0.000 A 
ATOM      9  C   UNL     1       1.022   3.909  20.413  0.00  0.00    +0.000 A 
ATOM     10  C   UNL     1       0.670   2.835  19.608  0.00  0.00    +0.000 A 
ATOM     11  C   UNL     1       1.452   2.570  18.499  0.00  0.00    +0.000 A 
ATOM     12  N   UNL     1       2.542   3.291  18.156  0.00  0.00    +0.000 NA
ENDBRANCH   4   7
BRANCH   1  14
ATOM     13  O   UNL     1       7.645   8.469  17.305  0.00  0.00    +0.000 OA
ATOM     14  C   UNL     1       7.628   7.245  17.366  0.00  0.00    +0.000 C 
ENDBRANCH   1  14
TORSDOF 2
ENDMDL
