MODEL 1
REMARK VINA RESULT:      -7.0      0.000      0.000
REMARK  Name = 
REMARK  13 active torsions:
REMARK  status: ('A' for Active; 'I' for Inactive)
REMARK    1  A    between atoms: C_1  and  C_2
REMARK    2  A    between atoms: C_5  and  C_6
REMARK    3  A    between atoms: C_6  and  N_7
REMARK    4  A    between atoms: N_10  and  C_11
REMARK    5  A    between atoms: C_11  and  C_12
REMARK    6  A    between atoms: C_12  and  C_13
REMARK    7  A    between atoms: C_12  and  C_14
REMARK    8  A    between atoms: C_14  and  O_16
REMARK    9  A    between atoms: N_21  and  C_22
REMARK   10  A    between atoms: C_25  and  O_26
REMARK   11  A    between atoms: O_26  and  C_27
REMARK   12  A    between atoms: C_27  and  C_28
REMARK   13  A    between atoms: C_27  and  C_29
REMARK                            x       y       z     vdW  Elec       q    Type
REMARK                         _______ _______ _______ _____ _____    ______ ____
ROOT
ATOM      1  N   UNL     1      -0.662  11.881  19.853  0.00  0.00    +0.000 N 
ATOM      2  C   UNL     1      -1.963  12.274  19.611  0.00  0.00    +0.000 A 
ATOM      3  O   UNL     1      -2.496  13.205  20.236  0.00  0.00    +0.000 OA
ATOM      4  N   UNL     1      -2.664  11.588  18.640  0.00  0.00    +0.000 N 
ATOM      5  C   UNL     1      -2.259  10.338  18.245  0.00  0.00    +0.000 A 
ATOM      6  O   UNL     1      -2.865   9.611  17.457  0.00  0.00    +0.000 OA
ATOM      7  N   UNL     1      -1.124   9.882  18.795  0.00  0.00    +0.000 N 
ATOM      8  C   UNL     1      -0.216  10.638  19.467  0.00  0.00    +0.000 A 
ATOM      9  N   UNL     1       0.997  10.263  19.744  0.00  0.00    +0.000 NA
ATOM     10  H   UNL     1      -0.916   8.943  18.495  0.00  0.00    +0.000 HD
ENDROOT
BRANCH   9  11
ATOM     11  C   UNL     1       1.548   9.061  19.275  0.00  0.00    +0.000 A 
ATOM     12  C   UNL     1       2.149   9.005  18.029  0.00  0.00    +0.000 A 
ATOM     13  C   UNL     1       2.702   7.797  17.590  0.00  0.00    +0.000 A 
ATOM     14  C   UNL     1       2.722   6.659  18.409  0.00  0.00    +0.000 A 
ATOM     15  C   UNL     1       2.158   6.738  19.680  0.00  0.00    +0.000 A 
ATOM     16 CL   UNL     1       2.306   5.580  20.949  0.00  0.00    +0.000 Cl
ATOM     17  C   UNL     1       1.482   7.897  20.040  0.00  0.00    +0.000 A 
BRANCH  14  18
ATOM     18  O   UNL     1       3.317   5.585  17.808  0.00  0.00    +0.000 OA
BRANCH  18  19
ATOM     19  C   UNL     1       4.742   5.509  17.725  0.00  0.00    +0.000 C 
ATOM     20  C   UNL     1       5.387   4.889  18.967  0.00  0.00    +0.000 C 
ATOM     21  C   UNL     1       5.067   4.641  16.516  0.00  0.00    +0.000 C 
ENDBRANCH  18  19
ENDBRANCH  14  18
ENDBRANCH   9  11
BRANCH   1  22
ATOM     22  C   UNL     1       0.241  12.792  20.543  0.00  0.00    +0.000 C 
BRANCH  22  27
ATOM     23  C   UNL     1       3.238  16.738  17.494  0.00  0.00    +0.000 C 
ATOM     24  C   UNL     1       2.411  15.703  18.194  0.00  0.00    +0.000 A 
ATOM     25  C   UNL     1       1.180  16.027  18.767  0.00  0.00    +0.000 A 
ATOM     26  C   UNL     1       0.470  15.070  19.488  0.00  0.00    +0.000 A 
ATOM     27  C   UNL     1       0.967  13.768  19.642  0.00  0.00    +0.000 A 
ATOM     28  C   UNL     1       2.166  13.426  19.009  0.00  0.00    +0.000 A 
ATOM     29  C   UNL     1       2.892  14.394  18.307  0.00  0.00    +0.000 A 
ENDBRANCH  22  27
ENDBRANCH   1  22
BRANCH   4  30
ATOM     30  C   UNL     1      -4.006  12.003  18.216  0.00  0.00    +0.000 C 
BRANCH  30  31
ATOM     31  C   UNL     1      -5.189  11.573  19.096  0.00  0.00    +0.000 C 
ATOM     32  C   UNL     1      -6.270  10.961  18.191  0.00  0.00    +0.000 C 
BRANCH  31  33
ATOM     33  C   UNL     1      -5.759  12.750  19.874  0.00  0.00    +0.000 C 
ATOM     34  O   UNL     1      -6.613  12.670  20.738  0.00  0.00    +0.000 OA
BRANCH  33  35
ATOM     35  O   UNL     1      -5.274  13.945  19.467  0.00  0.00    +0.000 OA
ATOM     36  H   UNL     1      -4.326  14.090  19.644  0.00  0.00    +0.000 HD
ENDBRANCH  33  35
ENDBRANCH  31  33
ENDBRANCH  30  31
ENDBRANCH   4  30
TORSDOF 9
ENDMDL
MODEL 2
REMARK VINA RESULT:      -7.0      0.783      1.013
REMARK  Name = 
REMARK  13 active torsions:
REMARK  status: ('A' for Active; 'I' for Inactive)
REMARK    1  A    between atoms: C_1  and  C_2
REMARK    2  A    between atoms: C_5  and  C_6
REMARK    3  A    between atoms: C_6  and  N_7
REMARK    4  A    between atoms: N_10  and  C_11
REMARK    5  A    between atoms: C_11  and  C_12
REMARK    6  A    between atoms: C_12  and  C_13
REMARK    7  A    between atoms: C_12  and  C_14
REMARK    8  A    between atoms: C_14  and  O_16
REMARK    9  A    between atoms: N_21  and  C_22
REMARK   10  A    between atoms: C_25  and  O_26
REMARK   11  A    between atoms: O_26  and  C_27
REMARK   12  A    between atoms: C_27  and  C_28
REMARK   13  A    between atoms: C_27  and  C_29
REMARK                            x       y       z     vdW  Elec       q    Type
REMARK                         _______ _______ _______ _____ _____    ______ ____
ROOT
ATOM      1  N   UNL     1      -0.776  11.941  19.931  0.00  0.00    +0.000 N 
ATOM      2  C   UNL     1      -2.090  12.300  19.706  0.00  0.00    +0.000 A 
ATOM      3  O   UNL     1      -2.642  13.212  20.342  0.00  0.00    +0.000 OA
ATOM      4  N   UNL     1      -2.784  11.600  18.739  0.00  0.00    +0.000 N 
ATOM      5  C   UNL     1      -2.348  10.364  18.332  0.00  0.00    +0.000 A 
ATOM      6  O   UNL     1      -2.943   9.624  17.548  0.00  0.00    +0.000 OA
ATOM      7  N   UNL     1      -1.195   9.936  18.867  0.00  0.00    +0.000 N 
ATOM      8  C   UNL     1      -0.301  10.713  19.533  0.00  0.00    +0.000 A 
ATOM      9  N   UNL     1       0.925  10.370  19.794  0.00  0.00    +0.000 NA
ATOM     10  H   UNL     1      -0.965   9.004  18.559  0.00  0.00    +0.000 HD
ENDROOT
BRANCH   9  11
ATOM     11  C   UNL     1       1.503   9.186  19.313  0.00  0.00    +0.000 A 
ATOM     12  C   UNL     1       2.095   9.155  18.062  0.00  0.00    +0.000 A 
ATOM     13  C   UNL     1       2.677   7.964  17.609  0.00  0.00    +0.000 A 
ATOM     14  C   UNL     1       2.733   6.822  18.420  0.00  0.00    +0.000 A 
ATOM     15  C   UNL     1       2.176   6.876  19.696  0.00  0.00    +0.000 A 
ATOM     16 CL   UNL     1       2.364   5.714  20.956  0.00  0.00    +0.000 Cl
ATOM     17  C   UNL     1       1.473   8.015  20.070  0.00  0.00    +0.000 A 
BRANCH  14  18
ATOM     18  O   UNL     1       3.350   5.768  17.806  0.00  0.00    +0.000 OA
BRANCH  18  19
ATOM     19  C   UNL     1       2.899   4.433  18.049  0.00  0.00    +0.000 C 
ATOM     20  C   UNL     1       1.454   4.194  17.603  0.00  0.00    +0.000 C 
ATOM     21  C   UNL     1       3.817   3.508  17.260  0.00  0.00    +0.000 C 
ENDBRANCH  18  19
ENDBRANCH  14  18
ENDBRANCH   9  11
BRANCH   1  22
ATOM     22  C   UNL     1       0.109  12.873  20.617  0.00  0.00    +0.000 C 
BRANCH  22  27
ATOM     23  C   UNL     1       3.074  16.820  17.537  0.00  0.00    +0.000 C 
ATOM     24  C   UNL     1       2.262  15.777  18.243  0.00  0.00    +0.000 A 
ATOM     25  C   UNL     1       0.982  16.059  18.723  0.00  0.00    +0.000 A 
ATOM     26  C   UNL     1       0.281  15.102  19.452  0.00  0.00    +0.000 A 
ATOM     27  C   UNL     1       0.837  13.840  19.708  0.00  0.00    +0.000 A 
ATOM     28  C   UNL     1       2.089  13.536  19.167  0.00  0.00    +0.000 A 
ATOM     29  C   UNL     1       2.805  14.505  18.458  0.00  0.00    +0.000 A 
ENDBRANCH  22  27
ENDBRANCH   1  22
BRANCH   4  30
ATOM     30  C   UNL     1      -4.141  11.980  18.333  0.00  0.00    +0.000 C 
BRANCH  30  31
ATOM     31  C   UNL     1      -5.309  11.404  19.146  0.00  0.00    +0.000 C 
ATOM     32  C   UNL     1      -6.440  11.030  18.175  0.00  0.00    +0.000 C 
BRANCH  31  33
ATOM     33  C   UNL     1      -5.812  12.403  20.179  0.00  0.00    +0.000 C 
ATOM     34  O   UNL     1      -6.537  13.352  19.941  0.00  0.00    +0.000 OA
BRANCH  33  35
ATOM     35  O   UNL     1      -5.316  12.186  21.419  0.00  0.00    +0.000 OA
ATOM     36  H   UNL     1      -5.948  11.803  22.056  0.00  0.00    +0.000 HD
ENDBRANCH  33  35
ENDBRANCH  31  33
ENDBRANCH  30  31
ENDBRANCH   4  30
TORSDOF 9
ENDMDL
MODEL 3
REMARK VINA RESULT:      -6.9      3.214      9.463
REMARK  Name = 
REMARK  13 active torsions:
REMARK  status: ('A' for Active; 'I' for Inactive)
REMARK    1  A    between atoms: C_1  and  C_2
REMARK    2  A    between atoms: C_5  and  C_6
REMARK    3  A    between atoms: C_6  and  N_7
REMARK    4  A    between atoms: N_10  and  C_11
REMARK    5  A    between atoms: C_11  and  C_12
REMARK    6  A    between atoms: C_12  and  C_13
REMARK    7  A    between atoms: C_12  and  C_14
REMARK    8  A    between atoms: C_14  and  O_16
REMARK    9  A    between atoms: N_21  and  C_22
REMARK   10  A    between atoms: C_25  and  O_26
REMARK   11  A    between atoms: O_26  and  C_27
REMARK   12  A    between atoms: C_27  and  C_28
REMARK   13  A    between atoms: C_27  and  C_29
REMARK                            x       y       z     vdW  Elec       q    Type
REMARK                         _______ _______ _______ _____ _____    ______ ____
ROOT
ATOM      1  N   UNL     1       4.034   5.922  18.825  0.00  0.00    +0.000 N 
ATOM      2  C   UNL     1       4.063   4.572  19.110  0.00  0.00    +0.000 A 
ATOM      3  O   UNL     1       4.943   3.822  18.656  0.00  0.00    +0.000 OA
ATOM      4  N   UNL     1       3.068   4.072  19.925  0.00  0.00    +0.000 N 
ATOM      5  C   UNL     1       1.896   4.766  20.092  0.00  0.00    +0.000 A 
ATOM      6  O   UNL     1       0.916   4.364  20.721  0.00  0.00    +0.000 OA
ATOM      7  N   UNL     1       1.824   5.962  19.489  0.00  0.00    +0.000 N 
ATOM      8  C   UNL     1       2.880   6.653  18.985  0.00  0.00    +0.000 A 
ATOM      9  N   UNL     1       2.853   7.913  18.667  0.00  0.00    +0.000 NA
ATOM     10  H   UNL     1       0.920   6.389  19.616  0.00  0.00    +0.000 HD
ENDROOT
BRANCH   9  11
ATOM     11  C   UNL     1       1.747   8.738  18.917  0.00  0.00    +0.000 A 
ATOM     12  C   UNL     1       1.073   9.341  17.869  0.00  0.00    +0.000 A 
ATOM     13  C   UNL     1      -0.036  10.150  18.144  0.00  0.00    +0.000 A 
ATOM     14  C   UNL     1      -0.521  10.311  19.449  0.00  0.00    +0.000 A 
ATOM     15  C   UNL     1       0.136   9.662  20.493  0.00  0.00    +0.000 A 
ATOM     16 CL   UNL     1      -0.425   9.484  22.114  0.00  0.00    +0.000 Cl
ATOM     17  C   UNL     1       1.320   8.988  20.221  0.00  0.00    +0.000 A 
BRANCH  14  18
ATOM     18  O   UNL     1      -1.617  11.125  19.510  0.00  0.00    +0.000 OA
BRANCH  18  19
ATOM     19  C   UNL     1      -1.605  12.280  20.352  0.00  0.00    +0.000 C 
ATOM     20  C   UNL     1      -0.611  13.351  19.896  0.00  0.00    +0.000 C 
ATOM     21  C   UNL     1      -3.010  12.866  20.316  0.00  0.00    +0.000 C 
ENDBRANCH  18  19
ENDBRANCH  14  18
ENDBRANCH   9  11
BRANCH   1  22
ATOM     22  C   UNL     1       5.241   6.572  18.331  0.00  0.00    +0.000 C 
BRANCH  22  27
ATOM     23  C   UNL     1       6.927   4.206  13.290  0.00  0.00    +0.000 C 
ATOM     24  C   UNL     1       6.549   4.899  14.564  0.00  0.00    +0.000 A 
ATOM     25  C   UNL     1       7.366   4.831  15.694  0.00  0.00    +0.000 A 
ATOM     26  C   UNL     1       6.953   5.410  16.892  0.00  0.00    +0.000 A 
ATOM     27  C   UNL     1       5.722   6.075  16.985  0.00  0.00    +0.000 A 
ATOM     28  C   UNL     1       4.938   6.202  15.834  0.00  0.00    +0.000 A 
ATOM     29  C   UNL     1       5.340   5.600  14.638  0.00  0.00    +0.000 A 
ENDBRANCH  22  27
ENDBRANCH   1  22
BRANCH   4  30
ATOM     30  C   UNL     1       3.075   2.682  20.392  0.00  0.00    +0.000 C 
BRANCH  30  31
ATOM     31  C   UNL     1       2.601   1.603  19.407  0.00  0.00    +0.000 C 
ATOM     32  C   UNL     1       3.834   0.998  18.719  0.00  0.00    +0.000 C 
BRANCH  31  33
ATOM     33  C   UNL     1       1.649   2.179  18.369  0.00  0.00    +0.000 C 
ATOM     34  O   UNL     1       1.985   2.671  17.307  0.00  0.00    +0.000 OA
BRANCH  33  35
ATOM     35  O   UNL     1       0.355   2.164  18.762  0.00  0.00    +0.000 OA
ATOM     36  H   UNL     1       0.192   2.502  19.663  0.00  0.00    +0.000 HD
ENDBRANCH  33  35
ENDBRANCH  31  33
ENDBRANCH  30  31
ENDBRANCH   4  30
TORSDOF 9
ENDMDL
MODEL 4
REMARK VINA RESULT:      -6.6      4.098     10.762
REMARK  Name = 
REMARK  13 active torsions:
REMARK  status: ('A' for Active; 'I' for Inactive)
REMARK    1  A    between atoms: C_1  and  C_2
REMARK    2  A    between atoms: C_5  and  C_6
REMARK    3  A    between atoms: C_6  and  N_7
REMARK    4  A    between atoms: N_10  and  C_11
REMARK    5  A    between atoms: C_11  and  C_12
REMARK    6  A    between atoms: C_12  and  C_13
REMARK    7  A    between atoms: C_12  and  C_14
REMARK    8  A    between atoms: C_14  and  O_16
REMARK    9  A    between atoms: N_21  and  C_22
REMARK   10  A    between atoms: C_25  and  O_26
REMARK   11  A    between atoms: O_26  and  C_27
REMARK   12  A    between atoms: C_27  and  C_28
REMARK   13  A    between atoms: C_27  and  C_29
REMARK                            x       y       z     vdW  Elec       q    Type
REMARK                         _______ _______ _______ _____ _____    ______ ____
ROOT
ATOM      1  N   UNL     1       3.773   4.444  16.916  0.00  0.00    +0.000 N 
ATOM      2  C   UNL     1       4.961   4.137  16.283  0.00  0.00    +0.000 A 
ATOM      3  O   UNL     1       5.324   2.965  16.096  0.00  0.00    +0.000 OA
ATOM      4  N   UNL     1       5.747   5.191  15.859  0.00  0.00    +0.000 N 
ATOM      5  C   UNL     1       5.581   6.440  16.401  0.00  0.00    +0.000 A 
ATOM      6  O   UNL     1       6.288   7.419  16.159  0.00  0.00    +0.000 OA
ATOM      7  N   UNL     1       4.579   6.576  17.283  0.00  0.00    +0.000 N 
ATOM      8  C   UNL     1       3.567   5.688  17.466  0.00  0.00    +0.000 A 
ATOM      9  N   UNL     1       2.463   5.948  18.101  0.00  0.00    +0.000 NA
ATOM     10  H   UNL     1       4.550   7.505  17.673  0.00  0.00    +0.000 HD
ENDROOT
BRANCH   9  11
ATOM     11  C   UNL     1       2.143   7.227  18.579  0.00  0.00    +0.000 A 
ATOM     12  C   UNL     1       1.977   8.282  17.698  0.00  0.00    +0.000 A 
ATOM     13  C   UNL     1       1.645   9.547  18.199  0.00  0.00    +0.000 A 
ATOM     14  C   UNL     1       1.410   9.755  19.565  0.00  0.00    +0.000 A 
ATOM     15  C   UNL     1       1.532   8.676  20.439  0.00  0.00    +0.000 A 
ATOM     16 CL   UNL     1       1.031   8.621  22.088  0.00  0.00    +0.000 Cl
ATOM     17  C   UNL     1       2.008   7.468  19.946  0.00  0.00    +0.000 A 
BRANCH  14  18
ATOM     18  O   UNL     1       1.085  11.051  19.855  0.00  0.00    +0.000 OA
BRANCH  18  19
ATOM     19  C   UNL     1      -0.265  11.397  20.170  0.00  0.00    +0.000 C 
ATOM     20  C   UNL     1      -0.407  12.101  21.523  0.00  0.00    +0.000 C 
ATOM     21  C   UNL     1      -0.746  12.337  19.073  0.00  0.00    +0.000 C 
ENDBRANCH  18  19
ENDBRANCH  14  18
ENDBRANCH   9  11
BRANCH   1  22
ATOM     22  C   UNL     1       2.736   3.427  17.015  0.00  0.00    +0.000 C 
BRANCH  22  27
ATOM     23  C   UNL     1       1.308   2.504  22.579  0.00  0.00    +0.000 C 
ATOM     24  C   UNL     1       1.676   2.640  21.133  0.00  0.00    +0.000 A 
ATOM     25  C   UNL     1       3.006   2.569  20.715  0.00  0.00    +0.000 A 
ATOM     26  C   UNL     1       3.332   2.784  19.378  0.00  0.00    +0.000 A 
ATOM     27  C   UNL     1       2.338   3.063  18.429  0.00  0.00    +0.000 A 
ATOM     28  C   UNL     1       1.001   3.064  18.837  0.00  0.00    +0.000 A 
ATOM     29  C   UNL     1       0.675   2.874  20.183  0.00  0.00    +0.000 A 
ENDBRANCH  22  27
ENDBRANCH   1  22
BRANCH   4  30
ATOM     30  C   UNL     1       6.963   4.979  15.068  0.00  0.00    +0.000 C 
BRANCH  30  31
ATOM     31  C   UNL     1       6.843   5.096  13.541  0.00  0.00    +0.000 C 
ATOM     32  C   UNL     1       6.726   3.681  12.954  0.00  0.00    +0.000 C 
BRANCH  31  33
ATOM     33  C   UNL     1       8.043   5.816  12.943  0.00  0.00    +0.000 C 
ATOM     34  O   UNL     1       8.116   6.221  11.797  0.00  0.00    +0.000 OA
BRANCH  33  35
ATOM     35  O   UNL     1       9.088   5.915  13.796  0.00  0.00    +0.000 OA
ATOM     36  H   UNL     1       9.955   6.061  13.373  0.00  0.00    +0.000 HD
ENDBRANCH  33  35
ENDBRANCH  31  33
ENDBRANCH  30  31
ENDBRANCH   4  30
TORSDOF 9
ENDMDL
MODEL 5
REMARK VINA RESULT:      -6.6      4.185     10.682
REMARK  Name = 
REMARK  13 active torsions:
REMARK  status: ('A' for Active; 'I' for Inactive)
REMARK    1  A    between atoms: C_1  and  C_2
REMARK    2  A    between atoms: C_5  and  C_6
REMARK    3  A    between atoms: C_6  and  N_7
REMARK    4  A    between atoms: N_10  and  C_11
REMARK    5  A    between atoms: C_11  and  C_12
REMARK    6  A    between atoms: C_12  and  C_13
REMARK    7  A    between atoms: C_12  and  C_14
REMARK    8  A    between atoms: C_14  and  O_16
REMARK    9  A    between atoms: N_21  and  C_22
REMARK   10  A    between atoms: C_25  and  O_26
REMARK   11  A    between atoms: O_26  and  C_27
REMARK   12  A    between atoms: C_27  and  C_28
REMARK   13  A    between atoms: C_27  and  C_29
REMARK                            x       y       z     vdW  Elec       q    Type
REMARK                         _______ _______ _______ _____ _____    ______ ____
ROOT
ATOM      1  N   UNL     1       3.864   4.542  17.085  0.00  0.00    +0.000 N 
ATOM      2  C   UNL     1       5.052   4.251  16.446  0.00  0.00    +0.000 A 
ATOM      3  O   UNL     1       5.464   3.087  16.319  0.00  0.00    +0.000 OA
ATOM      4  N   UNL     1       5.781   5.312  15.946  0.00  0.00    +0.000 N 
ATOM      5  C   UNL     1       5.569   6.583  16.420  0.00  0.00    +0.000 A 
ATOM      6  O   UNL     1       6.226   7.576  16.107  0.00  0.00    +0.000 OA
ATOM      7  N   UNL     1       4.579   6.724  17.314  0.00  0.00    +0.000 N 
ATOM      8  C   UNL     1       3.611   5.805  17.568  0.00  0.00    +0.000 A 
ATOM      9  N   UNL     1       2.508   6.052  18.210  0.00  0.00    +0.000 NA
ATOM     10  H   UNL     1       4.514   7.672  17.650  0.00  0.00    +0.000 HD
ENDROOT
BRANCH   9  11
ATOM     11  C   UNL     1       2.139   7.341  18.621  0.00  0.00    +0.000 A 
ATOM     12  C   UNL     1       1.972   8.351  17.689  0.00  0.00    +0.000 A 
ATOM     13  C   UNL     1       1.591   9.627  18.123  0.00  0.00    +0.000 A 
ATOM     14  C   UNL     1       1.309   9.888  19.471  0.00  0.00    +0.000 A 
ATOM     15  C   UNL     1       1.434   8.853  20.396  0.00  0.00    +0.000 A 
ATOM     16 CL   UNL     1       0.885   8.856  22.030  0.00  0.00    +0.000 Cl
ATOM     17  C   UNL     1       1.956   7.638  19.971  0.00  0.00    +0.000 A 
BRANCH  14  18
ATOM     18  O   UNL     1       0.941  11.186  19.693  0.00  0.00    +0.000 OA
BRANCH  18  19
ATOM     19  C   UNL     1       1.775  12.254  19.241  0.00  0.00    +0.000 C 
ATOM     20  C   UNL     1       1.046  13.248  18.333  0.00  0.00    +0.000 C 
ATOM     21  C   UNL     1       2.262  12.989  20.484  0.00  0.00    +0.000 C 
ENDBRANCH  18  19
ENDBRANCH  14  18
ENDBRANCH   9  11
BRANCH   1  22
ATOM     22  C   UNL     1       2.875   3.487  17.264  0.00  0.00    +0.000 C 
BRANCH  22  27
ATOM     23  C   UNL     1       1.044   2.186  22.631  0.00  0.00    +0.000 C 
ATOM     24  C   UNL     1       1.516   2.620  21.277  0.00  0.00    +0.000 A 
ATOM     25  C   UNL     1       0.614   3.034  20.295  0.00  0.00    +0.000 A 
ATOM     26  C   UNL     1       1.069   3.350  19.017  0.00  0.00    +0.000 A 
ATOM     27  C   UNL     1       2.431   3.270  18.695  0.00  0.00    +0.000 A 
ATOM     28  C   UNL     1       3.339   2.923  19.699  0.00  0.00    +0.000 A 
ATOM     29  C   UNL     1       2.882   2.580  20.975  0.00  0.00    +0.000 A 
ENDBRANCH  22  27
ENDBRANCH   1  22
BRANCH   4  30
ATOM     30  C   UNL     1       6.991   5.109  15.143  0.00  0.00    +0.000 C 
BRANCH  30  31
ATOM     31  C   UNL     1       6.843   5.164  13.616  0.00  0.00    +0.000 C 
ATOM     32  C   UNL     1       6.588   3.739  13.101  0.00  0.00    +0.000 C 
BRANCH  31  33
ATOM     33  C   UNL     1       8.086   5.745  12.958  0.00  0.00    +0.000 C 
ATOM     34  O   UNL     1       9.170   5.871  13.497  0.00  0.00    +0.000 OA
BRANCH  33  35
ATOM     35  O   UNL     1       7.866   6.193  11.700  0.00  0.00    +0.000 OA
ATOM     36  H   UNL     1       8.654   6.217  11.125  0.00  0.00    +0.000 HD
ENDBRANCH  33  35
ENDBRANCH  31  33
ENDBRANCH  30  31
ENDBRANCH   4  30
TORSDOF 9
ENDMDL
MODEL 6
REMARK VINA RESULT:      -6.6      2.762      3.440
REMARK  Name = 
REMARK  13 active torsions:
REMARK  status: ('A' for Active; 'I' for Inactive)
REMARK    1  A    between atoms: C_1  and  C_2
REMARK    2  A    between atoms: C_5  and  C_6
REMARK    3  A    between atoms: C_6  and  N_7
REMARK    4  A    between atoms: N_10  and  C_11
REMARK    5  A    between atoms: C_11  and  C_12
REMARK    6  A    between atoms: C_12  and  C_13
REMARK    7  A    between atoms: C_12  and  C_14
REMARK    8  A    between atoms: C_14  and  O_16
REMARK    9  A    between atoms: N_21  and  C_22
REMARK   10  A    between atoms: C_25  and  O_26
REMARK   11  A    between atoms: O_26  and  C_27
REMARK   12  A    between atoms: C_27  and  C_28
REMARK   13  A    between atoms: C_27  and  C_29
REMARK                            x       y       z     vdW  Elec       q    Type
REMARK                         _______ _______ _______ _____ _____    ______ ____
ROOT
ATOM      1  N   UNL     1      -0.045  12.069  20.068  0.00  0.00    +0.000 N 
ATOM      2  C   UNL     1      -0.661  12.826  21.043  0.00  0.00    +0.000 A 
ATOM      3  O   UNL     1      -0.793  14.056  20.936  0.00  0.00    +0.000 OA
ATOM      4  N   UNL     1      -1.130  12.165  22.161  0.00  0.00    +0.000 N 
ATOM      5  C   UNL     1      -0.646  10.923  22.485  0.00  0.00    +0.000 A 
ATOM      6  O   UNL     1      -0.930  10.293  23.504  0.00  0.00    +0.000 OA
ATOM      7  N   UNL     1       0.228  10.383  21.621  0.00  0.00    +0.000 N 
ATOM      8  C   UNL     1       0.448  10.816  20.352  0.00  0.00    +0.000 A 
ATOM      9  N   UNL     1       1.068  10.133  19.436  0.00  0.00    +0.000 NA
ATOM     10  H   UNL     1       0.574   9.495  21.949  0.00  0.00    +0.000 HD
ENDROOT
BRANCH   9  11
ATOM     11  C   UNL     1       1.487   8.809  19.628  0.00  0.00    +0.000 A 
ATOM     12  C   UNL     1       1.045   8.086  20.723  0.00  0.00    +0.000 A 
ATOM     13  C   UNL     1       1.468   6.761  20.885  0.00  0.00    +0.000 A 
ATOM     14  C   UNL     1       2.274   6.127  19.929  0.00  0.00    +0.000 A 
ATOM     15  C   UNL     1       2.675   6.848  18.805  0.00  0.00    +0.000 A 
ATOM     16 CL   UNL     1       3.420   6.215  17.385  0.00  0.00    +0.000 Cl
ATOM     17  C   UNL     1       2.372   8.201  18.737  0.00  0.00    +0.000 A 
BRANCH  14  18
ATOM     18  O   UNL     1       2.568   4.834  20.259  0.00  0.00    +0.000 OA
BRANCH  18  19
ATOM     19  C   UNL     1       1.515   3.887  20.451  0.00  0.00    +0.000 C 
ATOM     20  C   UNL     1       1.243   3.025  19.215  0.00  0.00    +0.000 C 
ATOM     21  C   UNL     1       1.942   2.981  21.598  0.00  0.00    +0.000 C 
ENDBRANCH  18  19
ENDBRANCH  14  18
ENDBRANCH   9  11
BRANCH   1  22
ATOM     22  C   UNL     1       0.097  12.616  18.725  0.00  0.00    +0.000 C 
BRANCH  22  27
ATOM     23  C   UNL     1       4.606  16.288  18.541  0.00  0.00    +0.000 C 
ATOM     24  C   UNL     1       3.433  15.358  18.487  0.00  0.00    +0.000 A 
ATOM     25  C   UNL     1       2.125  15.836  18.588  0.00  0.00    +0.000 A 
ATOM     26  C   UNL     1       1.055  14.945  18.622  0.00  0.00    +0.000 A 
ATOM     27  C   UNL     1       1.266  13.561  18.547  0.00  0.00    +0.000 A 
ATOM     28  C   UNL     1       2.570  13.088  18.376  0.00  0.00    +0.000 A 
ATOM     29  C   UNL     1       3.647  13.980  18.366  0.00  0.00    +0.000 A 
ENDBRANCH  22  27
ENDBRANCH   1  22
BRANCH   4  30
ATOM     30  C   UNL     1      -1.908  12.852  23.197  0.00  0.00    +0.000 C 
BRANCH  30  31
ATOM     31  C   UNL     1      -3.438  12.732  23.128  0.00  0.00    +0.000 C 
ATOM     32  C   UNL     1      -3.978  13.886  22.270  0.00  0.00    +0.000 C 
BRANCH  31  33
ATOM     33  C   UNL     1      -4.061  12.773  24.516  0.00  0.00    +0.000 C 
ATOM     34  O   UNL     1      -4.850  11.955  24.954  0.00  0.00    +0.000 OA
BRANCH  33  35
ATOM     35  O   UNL     1      -3.711  13.869  25.228  0.00  0.00    +0.000 OA
ATOM     36  H   UNL     1      -3.067  13.709  25.943  0.00  0.00    +0.000 HD
ENDBRANCH  33  35
ENDBRANCH  31  33
ENDBRANCH  30  31
ENDBRANCH   4  30
TORSDOF 9
ENDMDL
MODEL 7
REMARK VINA RESULT:      -6.5      1.511      2.024
REMARK  Name = 
REMARK  13 active torsions:
REMARK  status: ('A' for Active; 'I' for Inactive)
REMARK    1  A    between atoms: C_1  and  C_2
REMARK    2  A    between atoms: C_5  and  C_6
REMARK    3  A    between atoms: C_6  and  N_7
REMARK    4  A    between atoms: N_10  and  C_11
REMARK    5  A    between atoms: C_11  and  C_12
REMARK    6  A    between atoms: C_12  and  C_13
REMARK    7  A    between atoms: C_12  and  C_14
REMARK    8  A    between atoms: C_14  and  O_16
REMARK    9  A    between atoms: N_21  and  C_22
REMARK   10  A    between atoms: C_25  and  O_26
REMARK   11  A    between atoms: O_26  and  C_27
REMARK   12  A    between atoms: C_27  and  C_28
REMARK   13  A    between atoms: C_27  and  C_29
REMARK                            x       y       z     vdW  Elec       q    Type
REMARK                         _______ _______ _______ _____ _____    ______ ____
ROOT
ATOM      1  N   UNL     1      -0.513  11.829  20.109  0.00  0.00    +0.000 N 
ATOM      2  C   UNL     1      -1.717  12.312  19.638  0.00  0.00    +0.000 A 
ATOM      3  O   UNL     1      -2.186  13.397  20.019  0.00  0.00    +0.000 OA
ATOM      4  N   UNL     1      -2.396  11.539  18.717  0.00  0.00    +0.000 N 
ATOM      5  C   UNL     1      -2.120  10.200  18.599  0.00  0.00    +0.000 A 
ATOM      6  O   UNL     1      -2.730   9.410  17.877  0.00  0.00    +0.000 OA
ATOM      7  N   UNL     1      -1.121   9.731  19.361  0.00  0.00    +0.000 N 
ATOM      8  C   UNL     1      -0.198  10.494  20.003  0.00  0.00    +0.000 A 
ATOM      9  N   UNL     1       0.919  10.044  20.495  0.00  0.00    +0.000 NA
ATOM     10  H   UNL     1      -1.009   8.735  19.256  0.00  0.00    +0.000 HD
ENDROOT
BRANCH   9  11
ATOM     11  C   UNL     1       1.352   8.723  20.315  0.00  0.00    +0.000 A 
ATOM     12  C   UNL     1       0.958   7.732  21.199  0.00  0.00    +0.000 A 
ATOM     13  C   UNL     1       1.394   6.417  20.991  0.00  0.00    +0.000 A 
ATOM     14  C   UNL     1       2.163   6.068  19.873  0.00  0.00    +0.000 A 
ATOM     15  C   UNL     1       2.514   7.064  18.962  0.00  0.00    +0.000 A 
ATOM     16 CL   UNL     1       3.203   6.836  17.398  0.00  0.00    +0.000 Cl
ATOM     17  C   UNL     1       2.201   8.383  19.263  0.00  0.00    +0.000 A 
BRANCH  14  18
ATOM     18  O   UNL     1       2.476   4.738  19.840  0.00  0.00    +0.000 OA
BRANCH  18  19
ATOM     19  C   UNL     1       1.527   3.768  20.288  0.00  0.00    +0.000 C 
ATOM     20  C   UNL     1       1.027   2.850  19.169  0.00  0.00    +0.000 C 
ATOM     21  C   UNL     1       2.227   2.921  21.343  0.00  0.00    +0.000 C 
ENDBRANCH  18  19
ENDBRANCH  14  18
ENDBRANCH   9  11
BRANCH   1  22
ATOM     22  C   UNL     1       0.424  12.747  20.742  0.00  0.00    +0.000 C 
BRANCH  22  27
ATOM     23  C   UNL     1       3.591  16.342  17.442  0.00  0.00    +0.000 C 
ATOM     24  C   UNL     1       2.703  15.418  18.218  0.00  0.00    +0.000 A 
ATOM     25  C   UNL     1       1.689  15.910  19.041  0.00  0.00    +0.000 A 
ATOM     26  C   UNL     1       0.933  15.036  19.819  0.00  0.00    +0.000 A 
ATOM     27  C   UNL     1       1.166  13.654  19.785  0.00  0.00    +0.000 A 
ATOM     28  C   UNL     1       2.135  13.158  18.909  0.00  0.00    +0.000 A 
ATOM     29  C   UNL     1       2.911  14.036  18.146  0.00  0.00    +0.000 A 
ENDBRANCH  22  27
ENDBRANCH   1  22
BRANCH   4  30
ATOM     30  C   UNL     1      -3.618  12.013  18.059  0.00  0.00    +0.000 C 
BRANCH  30  31
ATOM     31  C   UNL     1      -4.961  11.599  18.679  0.00  0.00    +0.000 C 
ATOM     32  C   UNL     1      -6.060  11.779  17.621  0.00  0.00    +0.000 C 
BRANCH  31  33
ATOM     33  C   UNL     1      -5.281  12.426  19.916  0.00  0.00    +0.000 C 
ATOM     34  O   UNL     1      -5.707  11.980  20.966  0.00  0.00    +0.000 OA
BRANCH  33  35
ATOM     35  O   UNL     1      -5.114  13.756  19.729  0.00  0.00    +0.000 OA
ATOM     36  H   UNL     1      -4.654  14.003  18.905  0.00  0.00    +0.000 HD
ENDBRANCH  33  35
ENDBRANCH  31  33
ENDBRANCH  30  31
ENDBRANCH   4  30
TORSDOF 9
ENDMDL
MODEL 8
REMARK VINA RESULT:      -6.4      1.113      1.507
REMARK  Name = 
REMARK  13 active torsions:
REMARK  status: ('A' for Active; 'I' for Inactive)
REMARK    1  A    between atoms: C_1  and  C_2
REMARK    2  A    between atoms: C_5  and  C_6
REMARK    3  A    between atoms: C_6  and  N_7
REMARK    4  A    between atoms: N_10  and  C_11
REMARK    5  A    between atoms: C_11  and  C_12
REMARK    6  A    between atoms: C_12  and  C_13
REMARK    7  A    between atoms: C_12  and  C_14
REMARK    8  A    between atoms: C_14  and  O_16
REMARK    9  A    between atoms: N_21  and  C_22
REMARK   10  A    between atoms: C_25  and  O_26
REMARK   11  A    between atoms: O_26  and  C_27
REMARK   12  A    between atoms: C_27  and  C_28
REMARK   13  A    between atoms: C_27  and  C_29
REMARK                            x       y       z     vdW  Elec       q    Type
REMARK                         _______ _______ _______ _____ _____    ______ ____
ROOT
ATOM      1  N   UNL     1      -0.727  11.572  19.728  0.00  0.00    +0.000 N 
ATOM      2  C   UNL     1      -1.978  11.971  19.304  0.00  0.00    +0.000 A 
ATOM      3  O   UNL     1      -2.625  12.850  19.897  0.00  0.00    +0.000 OA
ATOM      4  N   UNL     1      -2.498  11.352  18.185  0.00  0.00    +0.000 N 
ATOM      5  C   UNL     1      -2.009  10.137  17.776  0.00  0.00    +0.000 A 
ATOM      6  O   UNL     1      -2.464   9.464  16.851  0.00  0.00    +0.000 OA
ATOM      7  N   UNL     1      -0.970   9.651  18.472  0.00  0.00    +0.000 N 
ATOM      8  C   UNL     1      -0.200  10.364  19.334  0.00  0.00    +0.000 A 
ATOM      9  N   UNL     1       0.959   9.979  19.780  0.00  0.00    +0.000 NA
ATOM     10  H   UNL     1      -0.698   8.738  18.144  0.00  0.00    +0.000 HD
ENDROOT
BRANCH   9  11
ATOM     11  C   UNL     1       1.602   8.819  19.325  0.00  0.00    +0.000 A 
ATOM     12  C   UNL     1       2.273   8.819  18.114  0.00  0.00    +0.000 A 
ATOM     13  C   UNL     1       2.918   7.652  17.688  0.00  0.00    +0.000 A 
ATOM     14  C   UNL     1       2.958   6.503  18.490  0.00  0.00    +0.000 A 
ATOM     15  C   UNL     1       2.321   6.527  19.729  0.00  0.00    +0.000 A 
ATOM     16 CL   UNL     1       2.467   5.357  20.988  0.00  0.00    +0.000 Cl
ATOM     17  C   UNL     1       1.562   7.639  20.068  0.00  0.00    +0.000 A 
BRANCH  14  18
ATOM     18  O   UNL     1       3.645   5.475  17.907  0.00  0.00    +0.000 OA
BRANCH  18  19
ATOM     19  C   UNL     1       2.966   4.267  17.556  0.00  0.00    +0.000 C 
ATOM     20  C   UNL     1       3.291   3.098  18.490  0.00  0.00    +0.000 C 
ATOM     21  C   UNL     1       1.474   4.562  17.638  0.00  0.00    +0.000 C 
ENDBRANCH  18  19
ENDBRANCH  14  18
ENDBRANCH   9  11
BRANCH   1  22
ATOM     22  C   UNL     1       0.033  12.438  20.620  0.00  0.00    +0.000 C 
BRANCH  22  27
ATOM     23  C   UNL     1       3.185  16.201  17.496  0.00  0.00    +0.000 C 
ATOM     24  C   UNL     1       2.424  15.264  18.384  0.00  0.00    +0.000 A 
ATOM     25  C   UNL     1       2.936  14.010  18.720  0.00  0.00    +0.000 A 
ATOM     26  C   UNL     1       2.173  13.123  19.476  0.00  0.00    +0.000 A 
ATOM     27  C   UNL     1       0.889  13.472  19.920  0.00  0.00    +0.000 A 
ATOM     28  C   UNL     1       0.408  14.754  19.641  0.00  0.00    +0.000 A 
ATOM     29  C   UNL     1       1.162  15.636  18.861  0.00  0.00    +0.000 A 
ENDBRANCH  22  27
ENDBRANCH   1  22
BRANCH   4  30
ATOM     30  C   UNL     1      -3.761  11.785  17.578  0.00  0.00    +0.000 C 
BRANCH  30  31
ATOM     31  C   UNL     1      -5.016  11.758  18.461  0.00  0.00    +0.000 C 
ATOM     32  C   UNL     1      -5.602  10.338  18.430  0.00  0.00    +0.000 C 
BRANCH  31  33
ATOM     33  C   UNL     1      -6.053  12.764  17.983  0.00  0.00    +0.000 C 
ATOM     34  O   UNL     1      -6.337  13.802  18.554  0.00  0.00    +0.000 OA
BRANCH  33  35
ATOM     35  O   UNL     1      -6.710  12.368  16.869  0.00  0.00    +0.000 OA
ATOM     36  H   UNL     1      -7.657  12.167  16.996  0.00  0.00    +0.000 HD
ENDBRANCH  33  35
ENDBRANCH  31  33
ENDBRANCH  30  31
ENDBRANCH   4  30
TORSDOF 9
ENDMDL
MODEL 9
REMARK VINA RESULT:      -6.4      1.083      1.288
REMARK  Name = 
REMARK  13 active torsions:
REMARK  status: ('A' for Active; 'I' for Inactive)
REMARK    1  A    between atoms: C_1  and  C_2
REMARK    2  A    between atoms: C_5  and  C_6
REMARK    3  A    between atoms: C_6  and  N_7
REMARK    4  A    between atoms: N_10  and  C_11
REMARK    5  A    between atoms: C_11  and  C_12
REMARK    6  A    between atoms: C_12  and  C_13
REMARK    7  A    between atoms: C_12  and  C_14
REMARK    8  A    between atoms: C_14  and  O_16
REMARK    9  A    between atoms: N_21  and  C_22
REMARK   10  A    between atoms: C_25  and  O_26
REMARK   11  A    between atoms: O_26  and  C_27
REMARK   12  A    between atoms: C_27  and  C_28
REMARK   13  A    between atoms: C_27  and  C_29
REMARK                            x       y       z     vdW  Elec       q    Type
REMARK                         _______ _______ _______ _____ _____    ______ ____
ROOT
ATOM      1  N   UNL     1      -0.138  11.447  20.106  0.00  0.00    +0.000 N 
ATOM      2  C   UNL     1      -1.350  12.019  19.775  0.00  0.00    +0.000 A 
ATOM      3  O   UNL     1      -1.823  12.974  20.412  0.00  0.00    +0.000 OA
ATOM      4  N   UNL     1      -2.032  11.487  18.699  0.00  0.00    +0.000 N 
ATOM      5  C   UNL     1      -1.747  10.219  18.257  0.00  0.00    +0.000 A 
ATOM      6  O   UNL     1      -2.358   9.623  17.369  0.00  0.00    +0.000 OA
ATOM      7  N   UNL     1      -0.736   9.589  18.874  0.00  0.00    +0.000 N 
ATOM      8  C   UNL     1       0.187  10.182  19.676  0.00  0.00    +0.000 A 
ATOM      9  N   UNL     1       1.311   9.637  20.034  0.00  0.00    +0.000 NA
ATOM     10  H   UNL     1      -0.618   8.650  18.529  0.00  0.00    +0.000 HD
ENDROOT
BRANCH   9  11
ATOM     11  C   UNL     1       1.753   8.403  19.535  0.00  0.00    +0.000 A 
ATOM     12  C   UNL     1       2.305   8.318  18.269  0.00  0.00    +0.000 A 
ATOM     13  C   UNL     1       2.749   7.076  17.798  0.00  0.00    +0.000 A 
ATOM     14  C   UNL     1       2.711   5.930  18.604  0.00  0.00    +0.000 A 
ATOM     15  C   UNL     1       2.198   6.035  19.896  0.00  0.00    +0.000 A 
ATOM     16 CL   UNL     1       2.301   4.854  21.148  0.00  0.00    +0.000 Cl
ATOM     17  C   UNL     1       1.624   7.238  20.290  0.00  0.00    +0.000 A 
BRANCH  14  18
ATOM     18  O   UNL     1       3.202   4.822  17.972  0.00  0.00    +0.000 OA
BRANCH  18  19
ATOM     19  C   UNL     1       4.613   4.626  17.862  0.00  0.00    +0.000 C 
ATOM     20  C   UNL     1       5.216   5.267  16.609  0.00  0.00    +0.000 C 
ATOM     21  C   UNL     1       5.243   5.264  19.093  0.00  0.00    +0.000 C 
ENDBRANCH  18  19
ENDBRANCH  14  18
ENDBRANCH   9  11
BRANCH   1  22
ATOM     22  C   UNL     1       0.798  12.193  20.936  0.00  0.00    +0.000 C 
BRANCH  22  27
ATOM     23  C   UNL     1       4.884  15.175  18.062  0.00  0.00    +0.000 C 
ATOM     24  C   UNL     1       3.775  14.493  18.804  0.00  0.00    +0.000 A 
ATOM     25  C   UNL     1       3.690  14.559  20.195  0.00  0.00    +0.000 A 
ATOM     26  C   UNL     1       2.701  13.845  20.870  0.00  0.00    +0.000 A 
ATOM     27  C   UNL     1       1.772  13.062  20.170  0.00  0.00    +0.000 A 
ATOM     28  C   UNL     1       1.817  13.055  18.772  0.00  0.00    +0.000 A 
ATOM     29  C   UNL     1       2.825  13.749  18.096  0.00  0.00    +0.000 A 
ENDBRANCH  22  27
ENDBRANCH   1  22
BRANCH   4  30
ATOM     30  C   UNL     1      -3.264  12.095  18.186  0.00  0.00    +0.000 C 
BRANCH  30  31
ATOM     31  C   UNL     1      -4.596  11.563  18.735  0.00  0.00    +0.000 C 
ATOM     32  C   UNL     1      -5.564  11.372  17.557  0.00  0.00    +0.000 C 
BRANCH  31  33
ATOM     33  C   UNL     1      -5.196  12.516  19.759  0.00  0.00    +0.000 C 
ATOM     34  O   UNL     1      -6.158  12.272  20.463  0.00  0.00    +0.000 OA
BRANCH  33  35
ATOM     35  O   UNL     1      -4.596  13.729  19.777  0.00  0.00    +0.000 OA
ATOM     36  H   UNL     1      -3.639  13.720  19.588  0.00  0.00    +0.000 HD
ENDBRANCH  33  35
ENDBRANCH  31  33
ENDBRANCH  30  31
ENDBRANCH   4  30
TORSDOF 9
ENDMDL
