MODEL 1
REMARK VINA RESULT:      -8.9      0.000      0.000
REMARK  Name = 
REMARK  3 active torsions:
REMARK  status: ('A' for Active; 'I' for Inactive)
REMARK    1  A    between atoms: S_2  and  C_4
REMARK    2  A    between atoms: S_2  and  C_11
REMARK    3  A    between atoms: C_21  and  C_22
REMARK                            x       y       z     vdW  Elec       q    Type
REMARK                         _______ _______ _______ _____ _____    ______ ____
ROOT
ATOM      1  C   UNL     1       5.642   4.839  18.326  0.00  0.00    +0.000 A 
ATOM      2  C   UNL     1       4.888   5.283  19.348  0.00  0.00    +0.000 A 
ATOM      3  N   UNL     1       3.690   5.727  19.097  0.00  0.00    +0.000 NA
ATOM      4  C   UNL     1       2.950   4.743  18.811  0.00  0.00    +0.000 A 
ATOM      5  C   UNL     1       1.925   4.706  19.751  0.00  0.00    +0.000 A 
ATOM      6  F   UNL     1       1.926   5.618  20.771  0.00  0.00    +0.000 F 
ATOM      7  C   UNL     1       1.034   3.684  19.879  0.00  0.00    +0.000 A 
ATOM      8  C   UNL     1       1.141   2.756  18.839  0.00  0.00    +0.000 A 
ATOM      9  C   UNL     1       2.214   2.830  17.818  0.00  0.00    +0.000 A 
ATOM     10  C   UNL     1       3.380   3.825  17.807  0.00  0.00    +0.000 A 
ATOM     11  C   UNL     1       4.923   4.238  17.264  0.00  0.00    +0.000 A 
ENDROOT
BRANCH  11  12
ATOM     12  C   UNL     1       5.713   4.146  15.819  0.00  0.00    +0.000 A 
ATOM     13  C   UNL     1       5.229   3.503  14.642  0.00  0.00    +0.000 A 
ATOM     14  C   UNL     1       5.811   3.677  13.309  0.00  0.00    +0.000 A 
ATOM     15  C   UNL     1       6.870   4.517  13.070  0.00  0.00    +0.000 A 
ATOM     16 CL   UNL     1       7.542   4.732  11.474  0.00  0.00    +0.000 Cl
ATOM     17  C   UNL     1       7.363   5.218  14.130  0.00  0.00    +0.000 A 
ATOM     18  C   UNL     1       6.812   5.013  15.455  0.00  0.00    +0.000 A 
ENDBRANCH  11  12
BRANCH   1  20
ATOM     19  O   UNL     1       8.164   4.349  17.956  0.00  0.00    +0.000 OA
ATOM     20  S   UNL     1       7.308   5.155  18.798  0.00  0.00    +0.000 S 
ATOM     21  O   UNL     1       7.402   5.141  20.253  0.00  0.00    +0.000 OA
BRANCH  20  22
ATOM     22  C   UNL     1       7.672   6.915  18.370  0.00  0.00    +0.000 A 
ATOM     23  C   UNL     1       6.871   7.600  17.434  0.00  0.00    +0.000 A 
ATOM     24  C   UNL     1       7.083   8.968  17.215  0.00  0.00    +0.000 A 
ATOM     25  C   UNL     1       8.093   9.632  17.905  0.00  0.00    +0.000 A 
ATOM     26  F   UNL     1       8.318  10.930  17.664  0.00  0.00    +0.000 F 
ATOM     27  C   UNL     1       8.870   8.966  18.850  0.00  0.00    +0.000 A 
ATOM     28  C   UNL     1       8.654   7.606  19.097  0.00  0.00    +0.000 A 
ENDBRANCH  20  22
ENDBRANCH   1  20
TORSDOF 3
ENDMDL
MODEL 2
REMARK VINA RESULT:      -8.5      3.643      6.247
REMARK  Name = 
REMARK  3 active torsions:
REMARK  status: ('A' for Active; 'I' for Inactive)
REMARK    1  A    between atoms: S_2  and  C_4
REMARK    2  A    between atoms: S_2  and  C_11
REMARK    3  A    between atoms: C_21  and  C_22
REMARK                            x       y       z     vdW  Elec       q    Type
REMARK                         _______ _______ _______ _____ _____    ______ ____
ROOT
ATOM      1  C   UNL     1       5.883   5.273  16.500  0.00  0.00    +0.000 A 
ATOM      2  C   UNL     1       6.927   5.516  15.687  0.00  0.00    +0.000 A 
ATOM      3  N   UNL     1       7.464   4.522  15.040  0.00  0.00    +0.000 NA
ATOM      4  C   UNL     1       6.669   4.164  14.125  0.00  0.00    +0.000 A 
ATOM      5  C   UNL     1       7.332   4.328  12.912  0.00  0.00    +0.000 A 
ATOM      6  F   UNL     1       8.593   4.861  12.910  0.00  0.00    +0.000 F 
ATOM      7  C   UNL     1       6.740   4.218  11.690  0.00  0.00    +0.000 A 
ATOM      8  C   UNL     1       5.432   3.735  11.779  0.00  0.00    +0.000 A 
ATOM      9  C   UNL     1       4.751   3.524  13.078  0.00  0.00    +0.000 A 
ATOM     10  C   UNL     1       5.310   3.888  14.458  0.00  0.00    +0.000 A 
ATOM     11  C   UNL     1       5.035   4.215  16.090  0.00  0.00    +0.000 A 
ENDROOT
BRANCH  11  12
ATOM     12  C   UNL     1       4.076   3.564  17.263  0.00  0.00    +0.000 A 
ATOM     13  C   UNL     1       4.511   3.112  18.543  0.00  0.00    +0.000 A 
ATOM     14  C   UNL     1       3.613   2.807  19.659  0.00  0.00    +0.000 A 
ATOM     15  C   UNL     1       2.252   2.966  19.576  0.00  0.00    +0.000 A 
ATOM     16 CL   UNL     1       1.194   2.619  20.920  0.00  0.00    +0.000 Cl
ATOM     17  C   UNL     1       1.750   3.449  18.405  0.00  0.00    +0.000 A 
ATOM     18  C   UNL     1       2.636   3.711  17.288  0.00  0.00    +0.000 A 
ENDBRANCH  11  12
BRANCH   1  20
ATOM     19  O   UNL     1       6.672   7.636  17.227  0.00  0.00    +0.000 OA
ATOM     20  S   UNL     1       5.984   6.486  17.771  0.00  0.00    +0.000 S 
ATOM     21  O   UNL     1       6.394   5.842  19.013  0.00  0.00    +0.000 OA
BRANCH  20  22
ATOM     22  C   UNL     1       4.259   7.041  18.134  0.00  0.00    +0.000 A 
ATOM     23  C   UNL     1       3.590   6.580  19.285  0.00  0.00    +0.000 A 
ATOM     24  C   UNL     1       2.333   7.107  19.611  0.00  0.00    +0.000 A 
ATOM     25  C   UNL     1       1.748   8.062  18.784  0.00  0.00    +0.000 A 
ATOM     26  F   UNL     1       0.529   8.534  19.077  0.00  0.00    +0.000 F 
ATOM     27  C   UNL     1       2.416   8.541  17.660  0.00  0.00    +0.000 A 
ATOM     28  C   UNL     1       3.682   8.042  17.336  0.00  0.00    +0.000 A 
ENDBRANCH  20  22
ENDBRANCH   1  20
TORSDOF 3
ENDMDL
MODEL 3
REMARK VINA RESULT:      -8.4      4.049      5.845
REMARK  Name = 
REMARK  3 active torsions:
REMARK  status: ('A' for Active; 'I' for Inactive)
REMARK    1  A    between atoms: S_2  and  C_4
REMARK    2  A    between atoms: S_2  and  C_11
REMARK    3  A    between atoms: C_21  and  C_22
REMARK                            x       y       z     vdW  Elec       q    Type
REMARK                         _______ _______ _______ _____ _____    ______ ____
ROOT
ATOM      1  C   UNL     1       4.173   5.696  18.013  0.00  0.00    +0.000 A 
ATOM      2  C   UNL     1       4.688   4.472  18.229  0.00  0.00    +0.000 A 
ATOM      3  N   UNL     1       4.374   3.843  19.324  0.00  0.00    +0.000 NA
ATOM      4  C   UNL     1       3.172   3.461  19.236  0.00  0.00    +0.000 A 
ATOM      5  C   UNL     1       3.169   2.073  19.329  0.00  0.00    +0.000 A 
ATOM      6  F   UNL     1       4.362   1.410  19.426  0.00  0.00    +0.000 F 
ATOM      7  C   UNL     1       2.080   1.288  19.096  0.00  0.00    +0.000 A 
ATOM      8  C   UNL     1       0.912   2.039  18.937  0.00  0.00    +0.000 A 
ATOM      9  C   UNL     1       0.923   3.520  18.881  0.00  0.00    +0.000 A 
ATOM     10  C   UNL     1       2.169   4.412  18.882  0.00  0.00    +0.000 A 
ATOM     11  C   UNL     1       2.878   5.906  18.548  0.00  0.00    +0.000 A 
ENDROOT
BRANCH  11  12
ATOM     12  C   UNL     1       2.430   7.481  18.753  0.00  0.00    +0.000 A 
ATOM     13  C   UNL     1       2.201   8.426  17.711  0.00  0.00    +0.000 A 
ATOM     14  C   UNL     1       1.535   9.717  17.901  0.00  0.00    +0.000 A 
ATOM     15  C   UNL     1       1.037  10.119  19.115  0.00  0.00    +0.000 A 
ATOM     16 CL   UNL     1       0.227  11.651  19.325  0.00  0.00    +0.000 Cl
ATOM     17  C   UNL     1       1.160   9.252  20.159  0.00  0.00    +0.000 A 
ATOM     18  C   UNL     1       1.855   7.992  19.978  0.00  0.00    +0.000 A 
ENDBRANCH  11  12
BRANCH   1  20
ATOM     19  O   UNL     1       6.565   6.688  17.847  0.00  0.00    +0.000 OA
ATOM     20  S   UNL     1       5.371   6.547  17.044  0.00  0.00    +0.000 S 
ATOM     21  O   UNL     1       4.732   7.678  16.383  0.00  0.00    +0.000 OA
BRANCH  20  22
ATOM     22  C   UNL     1       5.823   5.437  15.638  0.00  0.00    +0.000 A 
ATOM     23  C   UNL     1       4.830   4.687  14.976  0.00  0.00    +0.000 A 
ATOM     24  C   UNL     1       5.170   3.949  13.834  0.00  0.00    +0.000 A 
ATOM     25  C   UNL     1       6.485   3.945  13.377  0.00  0.00    +0.000 A 
ATOM     26  F   UNL     1       6.814   3.207  12.309  0.00  0.00    +0.000 F 
ATOM     27  C   UNL     1       7.464   4.706  14.012  0.00  0.00    +0.000 A 
ATOM     28  C   UNL     1       7.134   5.467  15.139  0.00  0.00    +0.000 A 
ENDBRANCH  20  22
ENDBRANCH   1  20
TORSDOF 3
ENDMDL
MODEL 4
REMARK VINA RESULT:      -8.1      9.855     11.561
REMARK  Name = 
REMARK  3 active torsions:
REMARK  status: ('A' for Active; 'I' for Inactive)
REMARK    1  A    between atoms: S_2  and  C_4
REMARK    2  A    between atoms: S_2  and  C_11
REMARK    3  A    between atoms: C_21  and  C_22
REMARK                            x       y       z     vdW  Elec       q    Type
REMARK                         _______ _______ _______ _____ _____    ______ ____
ROOT
ATOM      1  C   UNL     1      -3.451  12.771  20.086  0.00  0.00    +0.000 A 
ATOM      2  C   UNL     1      -4.076  13.470  21.050  0.00  0.00    +0.000 A 
ATOM      3  N   UNL     1      -5.283  13.904  20.829  0.00  0.00    +0.000 NA
ATOM      4  C   UNL     1      -6.074  12.918  20.853  0.00  0.00    +0.000 A 
ATOM      5  C   UNL     1      -6.989  13.145  21.876  0.00  0.00    +0.000 A 
ATOM      6  F   UNL     1      -6.853  14.262  22.655  0.00  0.00    +0.000 F 
ATOM      7  C   UNL     1      -7.885  12.222  22.326  0.00  0.00    +0.000 A 
ATOM      8  C   UNL     1      -7.916  11.080  21.521  0.00  0.00    +0.000 A 
ATOM      9  C   UNL     1      -6.962  10.869  20.406  0.00  0.00    +0.000 A 
ATOM     10  C   UNL     1      -5.781  11.778  20.048  0.00  0.00    +0.000 A 
ATOM     11  C   UNL     1      -4.298  11.982  19.270  0.00  0.00    +0.000 A 
ENDROOT
BRANCH  11  12
ATOM     12  C   UNL     1      -3.676  11.528  17.811  0.00  0.00    +0.000 A 
ATOM     13  C   UNL     1      -2.585  10.633  17.610  0.00  0.00    +0.000 A 
ATOM     14  C   UNL     1      -2.239  10.030  16.321  0.00  0.00    +0.000 A 
ATOM     15  C   UNL     1      -2.971  10.254  15.182  0.00  0.00    +0.000 A 
ATOM     16 CL   UNL     1      -2.562   9.514  13.655  0.00  0.00    +0.000 Cl
ATOM     17  C   UNL     1      -4.068  11.055  15.291  0.00  0.00    +0.000 A 
ATOM     18  C   UNL     1      -4.385  11.683  16.559  0.00  0.00    +0.000 A 
ENDBRANCH  11  12
BRANCH   1  20
ATOM     19  O   UNL     1      -1.598  13.990  21.435  0.00  0.00    +0.000 OA
ATOM     20  S   UNL     1      -1.736  13.104  20.300  0.00  0.00    +0.000 S 
ATOM     21  O   UNL     1      -1.141  13.395  19.002  0.00  0.00    +0.000 OA
BRANCH  20  22
ATOM     22  C   UNL     1      -0.929  11.514  20.786  0.00  0.00    +0.000 A 
ATOM     23  C   UNL     1      -0.069  10.849  19.890  0.00  0.00    +0.000 A 
ATOM     24  C   UNL     1       0.631   9.714  20.320  0.00  0.00    +0.000 A 
ATOM     25  C   UNL     1       0.456   9.241  21.617  0.00  0.00    +0.000 A 
ATOM     26  F   UNL     1       1.096   8.133  22.012  0.00  0.00    +0.000 F 
ATOM     27  C   UNL     1      -0.372   9.911  22.516  0.00  0.00    +0.000 A 
ATOM     28  C   UNL     1      -1.059  11.059  22.108  0.00  0.00    +0.000 A 
ENDBRANCH  20  22
ENDBRANCH   1  20
TORSDOF 3
ENDMDL
MODEL 5
REMARK VINA RESULT:      -8.0      3.943      6.213
REMARK  Name = 
REMARK  3 active torsions:
REMARK  status: ('A' for Active; 'I' for Inactive)
REMARK    1  A    between atoms: S_2  and  C_4
REMARK    2  A    between atoms: S_2  and  C_11
REMARK    3  A    between atoms: C_21  and  C_22
REMARK                            x       y       z     vdW  Elec       q    Type
REMARK                         _______ _______ _______ _____ _____    ______ ____
ROOT
ATOM      1  C   UNL     1       1.887   6.138  20.181  0.00  0.00    +0.000 A 
ATOM      2  C   UNL     1       1.168   6.931  20.997  0.00  0.00    +0.000 A 
ATOM      3  N   UNL     1       1.583   8.144  21.218  0.00  0.00    +0.000 NA
ATOM      4  C   UNL     1       1.391   8.829  20.173  0.00  0.00    +0.000 A 
ATOM      5  C   UNL     1       0.528   9.867  20.509  0.00  0.00    +0.000 A 
ATOM      6  F   UNL     1       0.026   9.930  21.781  0.00  0.00    +0.000 F 
ATOM      7  C   UNL     1      -0.052  10.709  19.608  0.00  0.00    +0.000 A 
ATOM      8  C   UNL     1       0.461  10.538  18.319  0.00  0.00    +0.000 A 
ATOM      9  C   UNL     1       1.413   9.453  17.983  0.00  0.00    +0.000 A 
ATOM     10  C   UNL     1       1.878   8.337  18.926  0.00  0.00    +0.000 A 
ATOM     11  C   UNL     1       2.560   6.808  19.131  0.00  0.00    +0.000 A 
ENDROOT
BRANCH  11  12
ATOM     12  C   UNL     1       3.815   5.990  18.440  0.00  0.00    +0.000 A 
ATOM     13  C   UNL     1       3.964   5.706  17.052  0.00  0.00    +0.000 A 
ATOM     14  C   UNL     1       5.207   5.236  16.434  0.00  0.00    +0.000 A 
ATOM     15  C   UNL     1       6.365   5.059  17.150  0.00  0.00    +0.000 A 
ATOM     16 CL   UNL     1       7.845   4.519  16.400  0.00  0.00    +0.000 Cl
ATOM     17  C   UNL     1       6.331   5.361  18.478  0.00  0.00    +0.000 A 
ATOM     18  C   UNL     1       5.089   5.786  19.095  0.00  0.00    +0.000 A 
ENDBRANCH  11  12
BRANCH   1  20
ATOM     19  O   UNL     1       0.218   4.188  20.571  0.00  0.00    +0.000 OA
ATOM     20  S   UNL     1       1.618   4.498  20.762  0.00  0.00    +0.000 S 
ATOM     21  O   UNL     1       2.290   4.330  22.044  0.00  0.00    +0.000 OA
BRANCH  20  22
ATOM     22  C   UNL     1       2.554   3.363  19.644  0.00  0.00    +0.000 A 
ATOM     23  C   UNL     1       3.733   2.734  20.093  0.00  0.00    +0.000 A 
ATOM     24  C   UNL     1       4.359   1.781  19.278  0.00  0.00    +0.000 A 
ATOM     25  C   UNL     1       3.828   1.482  18.027  0.00  0.00    +0.000 A 
ATOM     26  F   UNL     1       4.452   0.601  17.235  0.00  0.00    +0.000 F 
ATOM     27  C   UNL     1       2.649   2.081  17.590  0.00  0.00    +0.000 A 
ATOM     28  C   UNL     1       1.999   3.016  18.402  0.00  0.00    +0.000 A 
ENDBRANCH  20  22
ENDBRANCH   1  20
TORSDOF 3
ENDMDL
MODEL 6
REMARK VINA RESULT:      -7.9      8.832     11.686
REMARK  Name = 
REMARK  3 active torsions:
REMARK  status: ('A' for Active; 'I' for Inactive)
REMARK    1  A    between atoms: S_2  and  C_4
REMARK    2  A    between atoms: S_2  and  C_11
REMARK    3  A    between atoms: C_21  and  C_22
REMARK                            x       y       z     vdW  Elec       q    Type
REMARK                         _______ _______ _______ _____ _____    ______ ____
ROOT
ATOM      1  C   UNL     1       1.029  11.795  19.544  0.00  0.00    +0.000 A 
ATOM      2  C   UNL     1       1.925  12.216  18.633  0.00  0.00    +0.000 A 
ATOM      3  N   UNL     1       2.053  13.494  18.422  0.00  0.00    +0.000 NA
ATOM      4  C   UNL     1       2.636  14.007  19.420  0.00  0.00    +0.000 A 
ATOM      5  C   UNL     1       3.820  14.576  18.962  0.00  0.00    +0.000 A 
ATOM      6  F   UNL     1       4.156  14.441  17.642  0.00  0.00    +0.000 F 
ATOM      7  C   UNL     1       4.802  15.065  19.770  0.00  0.00    +0.000 A 
ATOM      8  C   UNL     1       4.411  15.106  21.111  0.00  0.00    +0.000 A 
ATOM      9  C   UNL     1       3.127  14.533  21.581  0.00  0.00    +0.000 A 
ATOM     10  C   UNL     1       2.125  13.748  20.726  0.00  0.00    +0.000 A 
ATOM     11  C   UNL     1       0.832  12.669  20.641  0.00  0.00    +0.000 A 
ENDROOT
BRANCH  11  12
ATOM     12  C   UNL     1      -0.569  12.459  21.487  0.00  0.00    +0.000 A 
ATOM     13  C   UNL     1      -0.829  11.422  22.429  0.00  0.00    +0.000 A 
ATOM     14  C   UNL     1      -1.955  11.422  23.366  0.00  0.00    +0.000 A 
ATOM     15  C   UNL     1      -2.854  12.457  23.439  0.00  0.00    +0.000 A 
ATOM     16 CL   UNL     1      -4.180  12.455  24.573  0.00  0.00    +0.000 Cl
ATOM     17  C   UNL     1      -2.651  13.521  22.612  0.00  0.00    +0.000 A 
ATOM     18  C   UNL     1      -1.559  13.501  21.658  0.00  0.00    +0.000 A 
ENDBRANCH  11  12
BRANCH   1  20
ATOM     19  O   UNL     1       0.346   9.364  20.147  0.00  0.00    +0.000 OA
ATOM     20  S   UNL     1       0.497  10.212  18.986  0.00  0.00    +0.000 S 
ATOM     21  O   UNL     1       1.294   9.823  17.829  0.00  0.00    +0.000 OA
BRANCH  20  22
ATOM     22  C   UNL     1      -1.197  10.425  18.279  0.00  0.00    +0.000 A 
ATOM     23  C   UNL     1      -2.086  11.368  18.832  0.00  0.00    +0.000 A 
ATOM     24  C   UNL     1      -3.317  11.604  18.207  0.00  0.00    +0.000 A 
ATOM     25  C   UNL     1      -3.661  10.893  17.061  0.00  0.00    +0.000 A 
ATOM     26  F   UNL     1      -4.855  11.093  16.489  0.00  0.00    +0.000 F 
ATOM     27  C   UNL     1      -2.774   9.979  16.494  0.00  0.00    +0.000 A 
ATOM     28  C   UNL     1      -1.531   9.750  17.094  0.00  0.00    +0.000 A 
ENDBRANCH  20  22
ENDBRANCH   1  20
TORSDOF 3
ENDMDL
MODEL 7
REMARK VINA RESULT:      -7.9     12.477     14.794
REMARK  Name = 
REMARK  3 active torsions:
REMARK  status: ('A' for Active; 'I' for Inactive)
REMARK    1  A    between atoms: S_2  and  C_4
REMARK    2  A    between atoms: S_2  and  C_11
REMARK    3  A    between atoms: C_21  and  C_22
REMARK                            x       y       z     vdW  Elec       q    Type
REMARK                         _______ _______ _______ _____ _____    ______ ____
ROOT
ATOM      1  C   UNL     1      -5.293  12.124  19.624  0.00  0.00    +0.000 A 
ATOM      2  C   UNL     1      -5.521  11.659  18.382  0.00  0.00    +0.000 A 
ATOM      3  N   UNL     1      -4.746  12.052  17.412  0.00  0.00    +0.000 NA
ATOM      4  C   UNL     1      -3.619  11.497  17.551  0.00  0.00    +0.000 A 
ATOM      5  C   UNL     1      -3.392  10.728  16.414  0.00  0.00    +0.000 A 
ATOM      6  F   UNL     1      -4.365  10.657  15.454  0.00  0.00    +0.000 F 
ATOM      7  C   UNL     1      -2.366   9.843  16.275  0.00  0.00    +0.000 A 
ATOM      8  C   UNL     1      -1.451   9.925  17.328  0.00  0.00    +0.000 A 
ATOM      9  C   UNL     1      -1.685  10.781  18.516  0.00  0.00    +0.000 A 
ATOM     10  C   UNL     1      -2.955  11.587  18.810  0.00  0.00    +0.000 A 
ATOM     11  C   UNL     1      -3.934  12.386  19.927  0.00  0.00    +0.000 A 
ENDROOT
BRANCH  11  12
ATOM     12  C   UNL     1      -3.662  13.399  21.200  0.00  0.00    +0.000 A 
ATOM     13  C   UNL     1      -3.697  14.823  21.157  0.00  0.00    +0.000 A 
ATOM     14  C   UNL     1      -3.735  15.684  22.341  0.00  0.00    +0.000 A 
ATOM     15  C   UNL     1      -3.775  15.181  23.618  0.00  0.00    +0.000 A 
ATOM     16 CL   UNL     1      -3.842  16.216  25.022  0.00  0.00    +0.000 Cl
ATOM     17  C   UNL     1      -3.803  13.825  23.755  0.00  0.00    +0.000 A 
ATOM     18  C   UNL     1      -3.724  12.976  22.583  0.00  0.00    +0.000 A 
ENDBRANCH  11  12
BRANCH   1  20
ATOM     19  O   UNL     1      -6.816  11.226  21.524  0.00  0.00    +0.000 OA
ATOM     20  S   UNL     1      -6.866  12.150  20.413  0.00  0.00    +0.000 S 
ATOM     21  O   UNL     1      -7.910  12.099  19.397  0.00  0.00    +0.000 OA
BRANCH  20  22
ATOM     22  C   UNL     1      -7.078  13.831  21.150  0.00  0.00    +0.000 A 
ATOM     23  C   UNL     1      -7.190  14.964  20.319  0.00  0.00    +0.000 A 
ATOM     24  C   UNL     1      -7.476  16.212  20.888  0.00  0.00    +0.000 A 
ATOM     25  C   UNL     1      -7.623  16.326  22.268  0.00  0.00    +0.000 A 
ATOM     26  F   UNL     1      -7.857  17.528  22.812  0.00  0.00    +0.000 F 
ATOM     27  C   UNL     1      -7.540  15.206  23.091  0.00  0.00    +0.000 A 
ATOM     28  C   UNL     1      -7.279  13.950  22.534  0.00  0.00    +0.000 A 
ENDBRANCH  20  22
ENDBRANCH   1  20
TORSDOF 3
ENDMDL
MODEL 8
REMARK VINA RESULT:      -7.9     10.615     12.457
REMARK  Name = 
REMARK  3 active torsions:
REMARK  status: ('A' for Active; 'I' for Inactive)
REMARK    1  A    between atoms: S_2  and  C_4
REMARK    2  A    between atoms: S_2  and  C_11
REMARK    3  A    between atoms: C_21  and  C_22
REMARK                            x       y       z     vdW  Elec       q    Type
REMARK                         _______ _______ _______ _____ _____    ______ ____
ROOT
ATOM      1  C   UNL     1      -3.422  13.719  21.371  0.00  0.00    +0.000 A 
ATOM      2  C   UNL     1      -3.919  14.526  22.325  0.00  0.00    +0.000 A 
ATOM      3  N   UNL     1      -5.127  14.991  22.189  0.00  0.00    +0.000 NA
ATOM      4  C   UNL     1      -5.943  14.046  22.384  0.00  0.00    +0.000 A 
ATOM      5  C   UNL     1      -6.738  14.401  23.470  0.00  0.00    +0.000 A 
ATOM      6  F   UNL     1      -6.483  15.575  24.125  0.00  0.00    +0.000 F 
ATOM      7  C   UNL     1      -7.612  13.561  24.092  0.00  0.00    +0.000 A 
ATOM      8  C   UNL     1      -7.767  12.355  23.403  0.00  0.00    +0.000 A 
ATOM      9  C   UNL     1      -6.943  12.006  22.221  0.00  0.00    +0.000 A 
ATOM     10  C   UNL     1      -5.775  12.827  21.662  0.00  0.00    +0.000 A 
ATOM     11  C   UNL     1      -4.377  12.898  20.721  0.00  0.00    +0.000 A 
ENDROOT
BRANCH  11  12
ATOM     12  C   UNL     1      -3.927  12.291  19.255  0.00  0.00    +0.000 A 
ATOM     13  C   UNL     1      -2.765  11.509  18.995  0.00  0.00    +0.000 A 
ATOM     14  C   UNL     1      -2.538  10.751  17.763  0.00  0.00    +0.000 A 
ATOM     15  C   UNL     1      -3.461  10.701  16.747  0.00  0.00    +0.000 A 
ATOM     16 CL   UNL     1      -3.189   9.778  15.292  0.00  0.00    +0.000 Cl
ATOM     17  C   UNL     1      -4.631  11.375  16.932  0.00  0.00    +0.000 A 
ATOM     18  C   UNL     1      -4.835  12.158  18.136  0.00  0.00    +0.000 A 
ENDBRANCH  11  12
BRANCH   1  20
ATOM     19  O   UNL     1      -1.387  14.896  22.468  0.00  0.00    +0.000 OA
ATOM     20  S   UNL     1      -1.684  13.994  21.378  0.00  0.00    +0.000 S 
ATOM     21  O   UNL     1      -1.235  14.239  20.013  0.00  0.00    +0.000 OA
BRANCH  20  22
ATOM     22  C   UNL     1      -0.879  12.387  21.804  0.00  0.00    +0.000 A 
ATOM     23  C   UNL     1      -1.405  11.577  22.831  0.00  0.00    +0.000 A 
ATOM     24  C   UNL     1      -0.859  10.306  23.055  0.00  0.00    +0.000 A 
ATOM     25  C   UNL     1       0.210   9.865  22.281  0.00  0.00    +0.000 A 
ATOM     26  F   UNL     1       0.755   8.666  22.525  0.00  0.00    +0.000 F 
ATOM     27  C   UNL     1       0.716  10.649  21.248  0.00  0.00    +0.000 A 
ATOM     28  C   UNL     1       0.165  11.910  20.996  0.00  0.00    +0.000 A 
ENDBRANCH  20  22
ENDBRANCH   1  20
TORSDOF 3
ENDMDL
MODEL 9
REMARK VINA RESULT:      -7.8      8.210     10.678
REMARK  Name = 
REMARK  3 active torsions:
REMARK  status: ('A' for Active; 'I' for Inactive)
REMARK    1  A    between atoms: S_2  and  C_4
REMARK    2  A    between atoms: S_2  and  C_11
REMARK    3  A    between atoms: C_21  and  C_22
REMARK                            x       y       z     vdW  Elec       q    Type
REMARK                         _______ _______ _______ _____ _____    ______ ____
ROOT
ATOM      1  C   UNL     1       0.282  11.958  19.822  0.00  0.00    +0.000 A 
ATOM      2  C   UNL     1       1.560  12.289  19.564  0.00  0.00    +0.000 A 
ATOM      3  N   UNL     1       1.838  12.898  18.448  0.00  0.00    +0.000 NA
ATOM      4  C   UNL     1       1.411  14.086  18.524  0.00  0.00    +0.000 A 
ATOM      5  C   UNL     1       2.507  14.931  18.383  0.00  0.00    +0.000 A 
ATOM      6  F   UNL     1       3.757  14.385  18.263  0.00  0.00    +0.000 F 
ATOM      7  C   UNL     1       2.473  16.277  18.589  0.00  0.00    +0.000 A 
ATOM      8  C   UNL     1       1.171  16.750  18.774  0.00  0.00    +0.000 A 
ATOM      9  C   UNL     1       0.005  15.841  18.880  0.00  0.00    +0.000 A 
ATOM     10  C   UNL     1       0.056  14.310  18.910  0.00  0.00    +0.000 A 
ATOM     11  C   UNL     1      -0.688  12.845  19.295  0.00  0.00    +0.000 A 
ENDROOT
BRANCH  11  12
ATOM     12  C   UNL     1      -2.215  12.239  19.144  0.00  0.00    +0.000 A 
ATOM     13  C   UNL     1      -3.346  12.623  19.921  0.00  0.00    +0.000 A 
ATOM     14  C   UNL     1      -4.731  12.286  19.584  0.00  0.00    +0.000 A 
ATOM     15  C   UNL     1      -5.065  11.586  18.451  0.00  0.00    +0.000 A 
ATOM     16 CL   UNL     1      -6.720  11.208  18.049  0.00  0.00    +0.000 Cl
ATOM     17  C   UNL     1      -4.050  11.226  17.617  0.00  0.00    +0.000 A 
ATOM     18  C   UNL     1      -2.676  11.525  17.973  0.00  0.00    +0.000 A 
ENDBRANCH  11  12
BRANCH   1  20
ATOM     19  O   UNL     1      -0.993  10.079  21.080  0.00  0.00    +0.000 OA
ATOM     20  S   UNL     1       0.363  10.510  20.820  0.00  0.00    +0.000 S 
ATOM     21  O   UNL     1       1.337  10.718  21.884  0.00  0.00    +0.000 OA
BRANCH  20  22
ATOM     22  C   UNL     1       1.138   9.183  19.794  0.00  0.00    +0.000 A 
ATOM     23  C   UNL     1       1.330   9.374  18.411  0.00  0.00    +0.000 A 
ATOM     24  C   UNL     1       2.031   8.412  17.672  0.00  0.00    +0.000 A 
ATOM     25  C   UNL     1       2.511   7.268  18.304  0.00  0.00    +0.000 A 
ATOM     26  F   UNL     1       3.147   6.331  17.588  0.00  0.00    +0.000 F 
ATOM     27  C   UNL     1       2.348   7.087  19.676  0.00  0.00    +0.000 A 
ATOM     28  C   UNL     1       1.671   8.051  20.430  0.00  0.00    +0.000 A 
ENDBRANCH  20  22
ENDBRANCH   1  20
TORSDOF 3
ENDMDL
