MODEL 1
REMARK VINA RESULT:      -6.4      0.000      0.000
REMARK  Name = 
REMARK  4 active torsions:
REMARK  status: ('A' for Active; 'I' for Inactive)
REMARK    1  A    between atoms: C_1  and  C_2
REMARK    2  A    between atoms: C_2  and  C_3
REMARK    3  A    between atoms: C_3  and  C_4
REMARK    4  A    between atoms: C_6  and  C_7
REMARK                            x       y       z     vdW  Elec       q    Type
REMARK                         _______ _______ _______ _____ _____    ______ ____
ROOT
ATOM      1  C   UNL     1       6.678   4.391  13.624  0.00  0.00    +0.000 A 
ATOM      2  N   UNL     1       5.819   4.122  14.578  0.00  0.00    +0.000 NA
ATOM      3  C   UNL     1       6.279   4.897  15.615  0.00  0.00    +0.000 A 
ATOM      4  N   UNL     1       7.381   5.607  15.329  0.00  0.00    +0.000 NA
ATOM      5  O   UNL     1       7.648   5.272  14.001  0.00  0.00    +0.000 OA
ENDROOT
BRANCH   3   6
ATOM      6  C   UNL     1       5.580   4.932  16.910  0.00  0.00    +0.000 A 
ATOM      7  N   UNL     1       4.242   4.530  16.959  0.00  0.00    +0.000 NA
ATOM      8  C   UNL     1       3.803   4.618  18.195  0.00  0.00    +0.000 A 
ATOM      9  S   UNL     1       4.927   5.176  19.361  0.00  0.00    +0.000 S 
ATOM     10  C   UNL     1       6.096   5.313  18.130  0.00  0.00    +0.000 A 
ATOM     11 CL   UNL     1       7.666   5.870  18.552  0.00  0.00    +0.000 Cl
ENDBRANCH   3   6
BRANCH   1  12
ATOM     12  C   UNL     1       6.732   3.880  12.234  0.00  0.00    +0.000 C 
BRANCH  12  14
ATOM     13  C   UNL     1       4.415   3.292  11.434  0.00  0.00    +0.000 C 
ATOM     14  C   UNL     1       5.715   2.760  12.017  0.00  0.00    +0.000 C 
ENDBRANCH  12  14
ENDBRANCH   1  12
TORSDOF 3
ENDMDL
MODEL 2
REMARK VINA RESULT:      -6.3      1.725      1.979
REMARK  Name = 
REMARK  4 active torsions:
REMARK  status: ('A' for Active; 'I' for Inactive)
REMARK    1  A    between atoms: C_1  and  C_2
REMARK    2  A    between atoms: C_2  and  C_3
REMARK    3  A    between atoms: C_3  and  C_4
REMARK    4  A    between atoms: C_6  and  C_7
REMARK                            x       y       z     vdW  Elec       q    Type
REMARK                         _______ _______ _______ _____ _____    ______ ____
ROOT
ATOM      1  C   UNL     1       6.604   4.002  13.198  0.00  0.00    +0.000 A 
ATOM      2  N   UNL     1       6.186   3.755  14.416  0.00  0.00    +0.000 NA
ATOM      3  C   UNL     1       6.858   4.697  15.155  0.00  0.00    +0.000 A 
ATOM      4  N   UNL     1       7.669   5.489  14.437  0.00  0.00    +0.000 NA
ATOM      5  O   UNL     1       7.500   5.028  13.131  0.00  0.00    +0.000 OA
ENDROOT
BRANCH   3   6
ATOM      6  C   UNL     1       6.662   4.807  16.610  0.00  0.00    +0.000 A 
ATOM      7  N   UNL     1       7.768   5.095  17.415  0.00  0.00    +0.000 NA
ATOM      8  C   UNL     1       7.390   5.165  18.672  0.00  0.00    +0.000 A 
ATOM      9  S   UNL     1       5.726   4.896  18.979  0.00  0.00    +0.000 S 
ATOM     10  C   UNL     1       5.482   4.667  17.309  0.00  0.00    +0.000 A 
ATOM     11 CL   UNL     1       3.893   4.321  16.756  0.00  0.00    +0.000 Cl
ENDBRANCH   3   6
BRANCH   1  12
ATOM     12  C   UNL     1       6.242   3.337  11.924  0.00  0.00    +0.000 C 
BRANCH  12  14
ATOM     13  C   UNL     1       3.953   3.490  10.879  0.00  0.00    +0.000 C 
ATOM     14  C   UNL     1       4.801   2.830  11.956  0.00  0.00    +0.000 C 
ENDBRANCH  12  14
ENDBRANCH   1  12
TORSDOF 3
ENDMDL
MODEL 3
REMARK VINA RESULT:      -6.3      1.703      2.143
REMARK  Name = 
REMARK  4 active torsions:
REMARK  status: ('A' for Active; 'I' for Inactive)
REMARK    1  A    between atoms: C_1  and  C_2
REMARK    2  A    between atoms: C_2  and  C_3
REMARK    3  A    between atoms: C_3  and  C_4
REMARK    4  A    between atoms: C_6  and  C_7
REMARK                            x       y       z     vdW  Elec       q    Type
REMARK                         _______ _______ _______ _____ _____    ______ ____
ROOT
ATOM      1  C   UNL     1       6.291   3.897  13.359  0.00  0.00    +0.000 A 
ATOM      2  N   UNL     1       5.895   3.777  14.604  0.00  0.00    +0.000 NA
ATOM      3  C   UNL     1       6.702   4.676  15.257  0.00  0.00    +0.000 A 
ATOM      4  N   UNL     1       7.571   5.319  14.463  0.00  0.00    +0.000 NA
ATOM      5  O   UNL     1       7.299   4.802  13.196  0.00  0.00    +0.000 OA
ENDROOT
BRANCH   3   6
ATOM      6  C   UNL     1       6.577   4.899  16.707  0.00  0.00    +0.000 A 
ATOM      7  N   UNL     1       7.693   5.356  17.413  0.00  0.00    +0.000 NA
ATOM      8  C   UNL     1       7.381   5.505  18.681  0.00  0.00    +0.000 A 
ATOM      9  S   UNL     1       5.769   5.117  19.115  0.00  0.00    +0.000 S 
ATOM     10  C   UNL     1       5.456   4.718  17.488  0.00  0.00    +0.000 A 
ATOM     11 CL   UNL     1       3.878   4.182  17.069  0.00  0.00    +0.000 Cl
ENDBRANCH   3   6
BRANCH   1  12
ATOM     12  C   UNL     1       5.804   3.202  12.144  0.00  0.00    +0.000 C 
BRANCH  12  14
ATOM     13  C   UNL     1       6.398   1.006  11.060  0.00  0.00    +0.000 C 
ATOM     14  C   UNL     1       6.912   2.367  11.504  0.00  0.00    +0.000 C 
ENDBRANCH  12  14
ENDBRANCH   1  12
TORSDOF 3
ENDMDL
MODEL 4
REMARK VINA RESULT:      -6.2      1.668      1.887
REMARK  Name = 
REMARK  4 active torsions:
REMARK  status: ('A' for Active; 'I' for Inactive)
REMARK    1  A    between atoms: C_1  and  C_2
REMARK    2  A    between atoms: C_2  and  C_3
REMARK    3  A    between atoms: C_3  and  C_4
REMARK    4  A    between atoms: C_6  and  C_7
REMARK                            x       y       z     vdW  Elec       q    Type
REMARK                         _______ _______ _______ _____ _____    ______ ____
ROOT
ATOM      1  C   UNL     1       6.855   4.417  13.756  0.00  0.00    +0.000 A 
ATOM      2  N   UNL     1       6.184   4.052  14.822  0.00  0.00    +0.000 NA
ATOM      3  C   UNL     1       6.665   4.908  15.782  0.00  0.00    +0.000 A 
ATOM      4  N   UNL     1       7.603   5.760  15.342  0.00  0.00    +0.000 NA
ATOM      5  O   UNL     1       7.731   5.435  13.991  0.00  0.00    +0.000 OA
ENDROOT
BRANCH   3   6
ATOM      6  C   UNL     1       6.154   4.873  17.162  0.00  0.00    +0.000 A 
ATOM      7  N   UNL     1       6.957   5.380  18.186  0.00  0.00    +0.000 NA
ATOM      8  C   UNL     1       6.326   5.273  19.334  0.00  0.00    +0.000 A 
ATOM      9  S   UNL     1       4.764   4.571  19.276  0.00  0.00    +0.000 S 
ATOM     10  C   UNL     1       4.935   4.394  17.591  0.00  0.00    +0.000 A 
ATOM     11 CL   UNL     1       3.639   3.691  16.708  0.00  0.00    +0.000 Cl
ENDBRANCH   3   6
BRANCH   1  12
ATOM     12  C   UNL     1       6.789   3.887  12.374  0.00  0.00    +0.000 C 
BRANCH  12  14
ATOM     13  C   UNL     1       5.687   1.832  11.416  0.00  0.00    +0.000 C 
ATOM     14  C   UNL     1       5.468   3.162  12.123  0.00  0.00    +0.000 C 
ENDBRANCH  12  14
ENDBRANCH   1  12
TORSDOF 3
ENDMDL
MODEL 5
REMARK VINA RESULT:      -6.2      4.534      6.171
REMARK  Name = 
REMARK  4 active torsions:
REMARK  status: ('A' for Active; 'I' for Inactive)
REMARK    1  A    between atoms: C_1  and  C_2
REMARK    2  A    between atoms: C_2  and  C_3
REMARK    3  A    between atoms: C_3  and  C_4
REMARK    4  A    between atoms: C_6  and  C_7
REMARK                            x       y       z     vdW  Elec       q    Type
REMARK                         _______ _______ _______ _____ _____    ______ ____
ROOT
ATOM      1  C   UNL     1       2.987   3.404  20.419  0.00  0.00    +0.000 A 
ATOM      2  N   UNL     1       3.570   4.469  19.922  0.00  0.00    +0.000 NA
ATOM      3  C   UNL     1       4.808   3.991  19.571  0.00  0.00    +0.000 A 
ATOM      4  N   UNL     1       4.998   2.691  19.846  0.00  0.00    +0.000 NA
ATOM      5  O   UNL     1       3.784   2.298  20.410  0.00  0.00    +0.000 OA
ENDROOT
BRANCH   3   6
ATOM      6  C   UNL     1       5.809   4.860  18.931  0.00  0.00    +0.000 A 
ATOM      7  N   UNL     1       6.904   5.289  19.686  0.00  0.00    +0.000 NA
ATOM      8  C   UNL     1       7.684   6.039  18.940  0.00  0.00    +0.000 A 
ATOM      9  S   UNL     1       7.179   6.285  17.322  0.00  0.00    +0.000 S 
ATOM     10  C   UNL     1       5.811   5.317  17.631  0.00  0.00    +0.000 A 
ATOM     11 CL   UNL     1       4.693   5.054  16.353  0.00  0.00    +0.000 Cl
ENDBRANCH   3   6
BRANCH   1  12
ATOM     12  C   UNL     1       1.620   3.249  20.969  0.00  0.00    +0.000 C 
BRANCH  12  14
ATOM     13  C   UNL     1       0.809   2.399  18.738  0.00  0.00    +0.000 C 
ATOM     14  C   UNL     1       0.564   3.383  19.873  0.00  0.00    +0.000 C 
ENDBRANCH  12  14
ENDBRANCH   1  12
TORSDOF 3
ENDMDL
MODEL 6
REMARK VINA RESULT:      -6.1      4.429      5.328
REMARK  Name = 
REMARK  4 active torsions:
REMARK  status: ('A' for Active; 'I' for Inactive)
REMARK    1  A    between atoms: C_1  and  C_2
REMARK    2  A    between atoms: C_2  and  C_3
REMARK    3  A    between atoms: C_3  and  C_4
REMARK    4  A    between atoms: C_6  and  C_7
REMARK                            x       y       z     vdW  Elec       q    Type
REMARK                         _______ _______ _______ _____ _____    ______ ____
ROOT
ATOM      1  C   UNL     1       6.112   5.656  18.060  0.00  0.00    +0.000 A 
ATOM      2  N   UNL     1       4.805   5.629  18.165  0.00  0.00    +0.000 NA
ATOM      3  C   UNL     1       4.598   4.559  19.001  0.00  0.00    +0.000 A 
ATOM      4  N   UNL     1       5.721   3.936  19.390  0.00  0.00    +0.000 NA
ATOM      5  O   UNL     1       6.732   4.667  18.765  0.00  0.00    +0.000 OA
ENDROOT
BRANCH   3   6
ATOM      6  C   UNL     1       3.242   4.173  19.424  0.00  0.00    +0.000 A 
ATOM      7  N   UNL     1       2.610   4.927  20.416  0.00  0.00    +0.000 NA
ATOM      8  C   UNL     1       1.412   4.437  20.645  0.00  0.00    +0.000 A 
ATOM      9  S   UNL     1       0.963   3.070  19.715  0.00  0.00    +0.000 S 
ATOM     10  C   UNL     1       2.481   3.129  18.944  0.00  0.00    +0.000 A 
ATOM     11 CL   UNL     1       2.831   1.954  17.740  0.00  0.00    +0.000 Cl
ENDBRANCH   3   6
BRANCH   1  12
ATOM     12  C   UNL     1       6.977   6.589  17.301  0.00  0.00    +0.000 C 
BRANCH  12  14
ATOM     13  C   UNL     1       8.105   8.769  17.877  0.00  0.00    +0.000 C 
ATOM     14  C   UNL     1       7.972   7.293  18.223  0.00  0.00    +0.000 C 
ENDBRANCH  12  14
ENDBRANCH   1  12
TORSDOF 3
ENDMDL
MODEL 7
REMARK VINA RESULT:      -6.1      4.060      5.880
REMARK  Name = 
REMARK  4 active torsions:
REMARK  status: ('A' for Active; 'I' for Inactive)
REMARK    1  A    between atoms: C_1  and  C_2
REMARK    2  A    between atoms: C_2  and  C_3
REMARK    3  A    between atoms: C_3  and  C_4
REMARK    4  A    between atoms: C_6  and  C_7
REMARK                            x       y       z     vdW  Elec       q    Type
REMARK                         _______ _______ _______ _____ _____    ______ ____
ROOT
ATOM      1  C   UNL     1       2.681   3.169  18.686  0.00  0.00    +0.000 A 
ATOM      2  N   UNL     1       3.527   4.073  19.120  0.00  0.00    +0.000 NA
ATOM      3  C   UNL     1       4.474   4.092  18.125  0.00  0.00    +0.000 A 
ATOM      4  N   UNL     1       4.240   3.232  17.122  0.00  0.00    +0.000 NA
ATOM      5  O   UNL     1       3.044   2.616  17.494  0.00  0.00    +0.000 OA
ENDROOT
BRANCH   3   6
ATOM      6  C   UNL     1       5.625   5.008  18.185  0.00  0.00    +0.000 A 
ATOM      7  N   UNL     1       6.538   4.868  19.233  0.00  0.00    +0.000 NA
ATOM      8  C   UNL     1       7.494   5.762  19.105  0.00  0.00    +0.000 A 
ATOM      9  S   UNL     1       7.373   6.812  17.756  0.00  0.00    +0.000 S 
ATOM     10  C   UNL     1       5.936   6.019  17.301  0.00  0.00    +0.000 A 
ATOM     11 CL   UNL     1       5.123   6.552  15.885  0.00  0.00    +0.000 Cl
ENDBRANCH   3   6
BRANCH   1  12
ATOM     12  C   UNL     1       1.422   2.686  19.300  0.00  0.00    +0.000 C 
BRANCH  12  14
ATOM     13  C   UNL     1       1.525   2.680  21.819  0.00  0.00    +0.000 C 
ATOM     14  C   UNL     1       1.101   3.455  20.580  0.00  0.00    +0.000 C 
ENDBRANCH  12  14
ENDBRANCH   1  12
TORSDOF 3
ENDMDL
MODEL 8
REMARK VINA RESULT:      -6.1      1.777      1.924
REMARK  Name = 
REMARK  4 active torsions:
REMARK  status: ('A' for Active; 'I' for Inactive)
REMARK    1  A    between atoms: C_1  and  C_2
REMARK    2  A    between atoms: C_2  and  C_3
REMARK    3  A    between atoms: C_3  and  C_4
REMARK    4  A    between atoms: C_6  and  C_7
REMARK                            x       y       z     vdW  Elec       q    Type
REMARK                         _______ _______ _______ _____ _____    ______ ____
ROOT
ATOM      1  C   UNL     1       6.537   4.485  13.936  0.00  0.00    +0.000 A 
ATOM      2  N   UNL     1       5.412   4.514  14.611  0.00  0.00    +0.000 NA
ATOM      3  C   UNL     1       5.740   5.290  15.696  0.00  0.00    +0.000 A 
ATOM      4  N   UNL     1       7.012   5.716  15.708  0.00  0.00    +0.000 NA
ATOM      5  O   UNL     1       7.545   5.182  14.534  0.00  0.00    +0.000 OA
ENDROOT
BRANCH   3   6
ATOM      6  C   UNL     1       4.743   5.618  16.728  0.00  0.00    +0.000 A 
ATOM      7  N   UNL     1       4.470   6.963  16.992  0.00  0.00    +0.000 NA
ATOM      8  C   UNL     1       3.551   7.049  17.927  0.00  0.00    +0.000 A 
ATOM      9  S   UNL     1       2.959   5.565  18.548  0.00  0.00    +0.000 S 
ATOM     10  C   UNL     1       4.007   4.737  17.491  0.00  0.00    +0.000 A 
ATOM     11 CL   UNL     1       3.999   3.019  17.515  0.00  0.00    +0.000 Cl
ENDBRANCH   3   6
BRANCH   1  12
ATOM     12  C   UNL     1       6.846   3.818  12.650  0.00  0.00    +0.000 C 
BRANCH  12  14
ATOM     13  C   UNL     1       5.875   1.834  11.436  0.00  0.00    +0.000 C 
ATOM     14  C   UNL     1       5.592   3.206  12.029  0.00  0.00    +0.000 C 
ENDBRANCH  12  14
ENDBRANCH   1  12
TORSDOF 3
ENDMDL
MODEL 9
REMARK VINA RESULT:      -6.1      4.346      5.644
REMARK  Name = 
REMARK  4 active torsions:
REMARK  status: ('A' for Active; 'I' for Inactive)
REMARK    1  A    between atoms: C_1  and  C_2
REMARK    2  A    between atoms: C_2  and  C_3
REMARK    3  A    between atoms: C_3  and  C_4
REMARK    4  A    between atoms: C_6  and  C_7
REMARK                            x       y       z     vdW  Elec       q    Type
REMARK                         _______ _______ _______ _____ _____    ______ ____
ROOT
ATOM      1  C   UNL     1       3.112   3.190  18.570  0.00  0.00    +0.000 A 
ATOM      2  N   UNL     1       3.728   4.262  18.133  0.00  0.00    +0.000 NA
ATOM      3  C   UNL     1       4.949   4.174  18.756  0.00  0.00    +0.000 A 
ATOM      4  N   UNL     1       5.087   3.105  19.555  0.00  0.00    +0.000 NA
ATOM      5  O   UNL     1       3.863   2.447  19.432  0.00  0.00    +0.000 OA
ENDROOT
BRANCH   3   6
ATOM      6  C   UNL     1       5.998   5.180  18.524  0.00  0.00    +0.000 A 
ATOM      7  N   UNL     1       7.103   5.206  19.380  0.00  0.00    +0.000 NA
ATOM      8  C   UNL     1       7.928   6.157  19.004  0.00  0.00    +0.000 A 
ATOM      9  S   UNL     1       7.456   7.072  17.634  0.00  0.00    +0.000 S 
ATOM     10  C   UNL     1       6.040   6.131  17.527  0.00  0.00    +0.000 A 
ATOM     11 CL   UNL     1       4.927   6.472  16.264  0.00  0.00    +0.000 Cl
ENDBRANCH   3   6
BRANCH   1  12
ATOM     12  C   UNL     1       1.750   2.694  18.260  0.00  0.00    +0.000 C 
BRANCH  12  14
ATOM     13  C   UNL     1       0.892   4.005  20.235  0.00  0.00    +0.000 C 
ATOM     14  C   UNL     1       0.874   2.667  19.511  0.00  0.00    +0.000 C 
ENDBRANCH  12  14
ENDBRANCH   1  12
TORSDOF 3
ENDMDL
