MODEL 1
REMARK VINA RESULT:      -7.9      0.000      0.000
REMARK  Name = 
REMARK  8 active torsions:
REMARK  status: ('A' for Active; 'I' for Inactive)
REMARK    1  A    between atoms: C_1  and  O_2
REMARK    2  A    between atoms: O_2  and  C_3
REMARK    3  A    between atoms: C_6  and  C_7
REMARK    4  A    between atoms: C_7  and  C_8
REMARK    5  A    between atoms: C_11  and  O_12
REMARK    6  A    between atoms: C_11  and  C_13
REMARK    7  A    between atoms: C_13  and  C_14
REMARK    8  A    between atoms: C_16  and  C_17
REMARK                            x       y       z     vdW  Elec       q    Type
REMARK                         _______ _______ _______ _____ _____    ______ ____
ROOT
ATOM      1  C   UNL     1       3.414   5.704  18.785  0.00  0.00    +0.000 C 
ATOM      2  C   UNL     1       4.413   6.829  18.481  0.00  0.00    +0.000 C 
ATOM      3  C   UNL     1       5.592   6.311  17.653  0.00  0.00    +0.000 C 
ATOM      4  C   UNL     1       6.323   5.116  18.303  0.00  0.00    +0.000 C 
ATOM      5  C   UNL     1       5.317   4.022  18.707  0.00  0.00    +0.000 C 
ATOM      6  C   UNL     1       4.135   4.560  19.518  0.00  0.00    +0.000 C 
ENDROOT
BRANCH   4   7
ATOM      7  O   UNL     1       6.989   5.544  19.504  0.00  0.00    +0.000 OA
ATOM      8  H   UNL     1       7.847   5.094  19.565  0.00  0.00    +0.000 HD
ENDBRANCH   4   7
BRANCH   1   9
ATOM      9  C   UNL     1       2.207   6.184  19.618  0.00  0.00    +0.000 C 
BRANCH   9  13
ATOM     10  C   UNL     1       1.064  10.328  19.097  0.00  0.00    +0.000 A 
ATOM     11  C   UNL     1       1.492   9.574  18.002  0.00  0.00    +0.000 A 
ATOM     12  C   UNL     1       1.857   8.233  18.160  0.00  0.00    +0.000 A 
ATOM     13  C   UNL     1       1.825   7.633  19.424  0.00  0.00    +0.000 A 
ATOM     14  C   UNL     1       1.402   8.401  20.519  0.00  0.00    +0.000 A 
ATOM     15  C   UNL     1       1.030   9.743  20.357  0.00  0.00    +0.000 A 
BRANCH  10  17
ATOM     16  C   UNL     1       1.757  12.590  19.111  0.00  0.00    +0.000 C 
ATOM     17  O   UNL     1       0.747  11.630  18.819  0.00  0.00    +0.000 OA
ENDBRANCH  10  17
ENDBRANCH   9  13
ENDBRANCH   1   9
BRANCH   4  18
ATOM     18  C   UNL     1       7.396   4.506  17.352  0.00  0.00    +0.000 C 
BRANCH  18  19
ATOM     19  C   UNL     1       7.031   4.623  15.906  0.00  0.00    +0.000 A 
ATOM     20  C   UNL     1       6.116   3.823  15.187  0.00  0.00    +0.000 A 
ATOM     21  C   UNL     1       6.338   4.141  13.871  0.00  0.00    +0.000 A 
ATOM     22  O   UNL     1       7.198   5.200  13.822  0.00  0.00    +0.000 OA
ATOM     23  N   UNL     1       7.644   5.500  15.102  0.00  0.00    +0.000 NA
BRANCH  21  24
ATOM     24  C   UNL     1       5.818   3.409  12.701  0.00  0.00    +0.000 A 
ATOM     25  C   UNL     1       6.424   2.358  11.990  0.00  0.00    +0.000 A 
ATOM     26  N   UNL     1       5.623   1.872  11.034  0.00  0.00    +0.000 NA
ATOM     27  N   UNL     1       4.506   2.611  11.147  0.00  0.00    +0.000 N 
ATOM     28  C   UNL     1       4.581   3.565  12.120  0.00  0.00    +0.000 A 
ATOM     29  H   UNL     1       3.724   2.399  10.536  0.00  0.00    +0.000 HD
ENDBRANCH  21  24
ENDBRANCH  18  19
ENDBRANCH   4  18
TORSDOF 7
ENDMDL
MODEL 2
REMARK VINA RESULT:      -7.8      5.844     10.870
REMARK  Name = 
REMARK  8 active torsions:
REMARK  status: ('A' for Active; 'I' for Inactive)
REMARK    1  A    between atoms: C_1  and  O_2
REMARK    2  A    between atoms: O_2  and  C_3
REMARK    3  A    between atoms: C_6  and  C_7
REMARK    4  A    between atoms: C_7  and  C_8
REMARK    5  A    between atoms: C_11  and  O_12
REMARK    6  A    between atoms: C_11  and  C_13
REMARK    7  A    between atoms: C_13  and  C_14
REMARK    8  A    between atoms: C_16  and  C_17
REMARK                            x       y       z     vdW  Elec       q    Type
REMARK                         _______ _______ _______ _____ _____    ______ ____
ROOT
ATOM      1  C   UNL     1       2.248   7.449  19.761  0.00  0.00    +0.000 C 
ATOM      2  C   UNL     1       1.901   8.129  18.429  0.00  0.00    +0.000 C 
ATOM      3  C   UNL     1       1.792   9.648  18.597  0.00  0.00    +0.000 C 
ATOM      4  C   UNL     1       0.785  10.076  19.687  0.00  0.00    +0.000 C 
ATOM      5  C   UNL     1       1.060   9.322  21.002  0.00  0.00    +0.000 C 
ATOM      6  C   UNL     1       1.185   7.807  20.813  0.00  0.00    +0.000 C 
ENDROOT
BRANCH   4   7
ATOM      7  O   UNL     1      -0.552   9.741  19.277  0.00  0.00    +0.000 OA
ATOM      8  H   UNL     1      -0.993  10.545  18.956  0.00  0.00    +0.000 HD
ENDBRANCH   4   7
BRANCH   1   9
ATOM      9  C   UNL     1       2.369   5.916  19.636  0.00  0.00    +0.000 C 
BRANCH   9  13
ATOM     10  C   UNL     1       5.769   4.560  17.322  0.00  0.00    +0.000 A 
ATOM     11  C   UNL     1       4.477   4.460  16.799  0.00  0.00    +0.000 A 
ATOM     12  C   UNL     1       3.374   4.901  17.536  0.00  0.00    +0.000 A 
ATOM     13  C   UNL     1       3.545   5.426  18.823  0.00  0.00    +0.000 A 
ATOM     14  C   UNL     1       4.844   5.514  19.343  0.00  0.00    +0.000 A 
ATOM     15  C   UNL     1       5.949   5.078  18.599  0.00  0.00    +0.000 A 
BRANCH  10  17
ATOM     16  C   UNL     1       6.950   4.781  15.285  0.00  0.00    +0.000 C 
ATOM     17  O   UNL     1       6.763   4.083  16.511  0.00  0.00    +0.000 OA
ENDBRANCH  10  17
ENDBRANCH   9  13
ENDBRANCH   1   9
BRANCH   4  18
ATOM     18  C   UNL     1       0.836  11.610  19.951  0.00  0.00    +0.000 C 
BRANCH  18  19
ATOM     19  C   UNL     1      -0.489  12.179  20.350  0.00  0.00    +0.000 A 
ATOM     20  C   UNL     1      -1.058  12.196  21.642  0.00  0.00    +0.000 A 
ATOM     21  C   UNL     1      -2.364  12.566  21.440  0.00  0.00    +0.000 A 
ATOM     22  O   UNL     1      -2.512  12.929  20.132  0.00  0.00    +0.000 OA
ATOM     23  N   UNL     1      -1.335  12.677  19.441  0.00  0.00    +0.000 NA
BRANCH  21  24
ATOM     24  C   UNL     1      -3.451  12.495  22.434  0.00  0.00    +0.000 A 
ATOM     25  C   UNL     1      -3.361  12.194  23.804  0.00  0.00    +0.000 A 
ATOM     26  N   UNL     1      -4.543  12.305  24.422  0.00  0.00    +0.000 NA
ATOM     27  N   UNL     1      -5.380  12.686  23.441  0.00  0.00    +0.000 N 
ATOM     28  C   UNL     1      -4.777  12.793  22.221  0.00  0.00    +0.000 A 
ATOM     29  H   UNL     1      -6.349  12.872  23.680  0.00  0.00    +0.000 HD
ENDBRANCH  21  24
ENDBRANCH  18  19
ENDBRANCH   4  18
TORSDOF 7
ENDMDL
MODEL 3
REMARK VINA RESULT:      -7.8      5.683     10.744
REMARK  Name = 
REMARK  8 active torsions:
REMARK  status: ('A' for Active; 'I' for Inactive)
REMARK    1  A    between atoms: C_1  and  O_2
REMARK    2  A    between atoms: O_2  and  C_3
REMARK    3  A    between atoms: C_6  and  C_7
REMARK    4  A    between atoms: C_7  and  C_8
REMARK    5  A    between atoms: C_11  and  O_12
REMARK    6  A    between atoms: C_11  and  C_13
REMARK    7  A    between atoms: C_13  and  C_14
REMARK    8  A    between atoms: C_16  and  C_17
REMARK                            x       y       z     vdW  Elec       q    Type
REMARK                         _______ _______ _______ _____ _____    ______ ____
ROOT
ATOM      1  C   UNL     1       2.345   7.466  19.451  0.00  0.00    +0.000 C 
ATOM      2  C   UNL     1       1.947   8.063  18.094  0.00  0.00    +0.000 C 
ATOM      3  C   UNL     1       1.848   9.589  18.171  0.00  0.00    +0.000 C 
ATOM      4  C   UNL     1       0.887  10.089  19.271  0.00  0.00    +0.000 C 
ATOM      5  C   UNL     1       1.212   9.418  20.618  0.00  0.00    +0.000 C 
ATOM      6  C   UNL     1       1.325   7.894  20.521  0.00  0.00    +0.000 C 
ENDROOT
BRANCH   4   7
ATOM      7  O   UNL     1      -0.466   9.736  18.936  0.00  0.00    +0.000 OA
ATOM      8  H   UNL     1      -0.606   8.797  19.141  0.00  0.00    +0.000 HD
ENDBRANCH   4   7
BRANCH   1   9
ATOM      9  C   UNL     1       2.457   5.927  19.418  0.00  0.00    +0.000 C 
BRANCH   9  13
ATOM     10  C   UNL     1       5.252   4.285  16.546  0.00  0.00    +0.000 A 
ATOM     11  C   UNL     1       5.556   5.465  17.227  0.00  0.00    +0.000 A 
ATOM     12  C   UNL     1       4.662   5.999  18.161  0.00  0.00    +0.000 A 
ATOM     13  C   UNL     1       3.435   5.373  18.408  0.00  0.00    +0.000 A 
ATOM     14  C   UNL     1       3.134   4.193  17.712  0.00  0.00    +0.000 A 
ATOM     15  C   UNL     1       4.035   3.656  16.782  0.00  0.00    +0.000 A 
BRANCH  10  17
ATOM     16  C   UNL     1       6.920   4.903  14.987  0.00  0.00    +0.000 C 
ATOM     17  O   UNL     1       6.198   3.869  15.650  0.00  0.00    +0.000 OA
ENDBRANCH  10  17
ENDBRANCH   9  13
ENDBRANCH   1   9
BRANCH   4  18
ATOM     18  C   UNL     1       0.952  11.637  19.436  0.00  0.00    +0.000 C 
BRANCH  18  19
ATOM     19  C   UNL     1      -0.328  12.226  19.939  0.00  0.00    +0.000 A 
ATOM     20  C   UNL     1      -0.807  12.224  21.267  0.00  0.00    +0.000 A 
ATOM     21  C   UNL     1      -2.114  12.629  21.164  0.00  0.00    +0.000 A 
ATOM     22  O   UNL     1      -2.343  13.027  19.878  0.00  0.00    +0.000 OA
ATOM     23  N   UNL     1      -1.222  12.766  19.101  0.00  0.00    +0.000 NA
BRANCH  21  24
ATOM     24  C   UNL     1      -3.132  12.557  22.229  0.00  0.00    +0.000 A 
ATOM     25  C   UNL     1      -4.512  12.809  22.135  0.00  0.00    +0.000 A 
ATOM     26  N   UNL     1      -5.147  12.561  23.287  0.00  0.00    +0.000 NA
ATOM     27  N   UNL     1      -4.167  12.144  24.108  0.00  0.00    +0.000 N 
ATOM     28  C   UNL     1      -2.932  12.145  23.526  0.00  0.00    +0.000 A 
ATOM     29  H   UNL     1      -4.416  11.858  25.049  0.00  0.00    +0.000 HD
ENDBRANCH  21  24
ENDBRANCH  18  19
ENDBRANCH   4  18
TORSDOF 7
ENDMDL
MODEL 4
REMARK VINA RESULT:      -7.8      6.101     11.173
REMARK  Name = 
REMARK  8 active torsions:
REMARK  status: ('A' for Active; 'I' for Inactive)
REMARK    1  A    between atoms: C_1  and  O_2
REMARK    2  A    between atoms: O_2  and  C_3
REMARK    3  A    between atoms: C_6  and  C_7
REMARK    4  A    between atoms: C_7  and  C_8
REMARK    5  A    between atoms: C_11  and  O_12
REMARK    6  A    between atoms: C_11  and  C_13
REMARK    7  A    between atoms: C_13  and  C_14
REMARK    8  A    between atoms: C_16  and  C_17
REMARK                            x       y       z     vdW  Elec       q    Type
REMARK                         _______ _______ _______ _____ _____    ______ ____
ROOT
ATOM      1  C   UNL     1       2.189   7.868  19.595  0.00  0.00    +0.000 C 
ATOM      2  C   UNL     1       1.579   8.642  18.418  0.00  0.00    +0.000 C 
ATOM      3  C   UNL     1       1.372  10.117  18.775  0.00  0.00    +0.000 C 
ATOM      4  C   UNL     1       0.519  10.328  20.045  0.00  0.00    +0.000 C 
ATOM      5  C   UNL     1       1.061   9.476  21.208  0.00  0.00    +0.000 C 
ATOM      6  C   UNL     1       1.280   8.008  20.828  0.00  0.00    +0.000 C 
ENDROOT
BRANCH   4   7
ATOM      7  O   UNL     1      -0.834   9.905  19.803  0.00  0.00    +0.000 OA
ATOM      8  H   UNL     1      -0.824   8.987  19.484  0.00  0.00    +0.000 HD
ENDBRANCH   4   7
BRANCH   1   9
ATOM      9  C   UNL     1       2.416   6.376  19.276  0.00  0.00    +0.000 C 
BRANCH   9  13
ATOM     10  C   UNL     1       6.202   5.463  17.383  0.00  0.00    +0.000 A 
ATOM     11  C   UNL     1       5.260   6.255  16.724  0.00  0.00    +0.000 A 
ATOM     12  C   UNL     1       4.037   6.560  17.330  0.00  0.00    +0.000 A 
ATOM     13  C   UNL     1       3.727   6.053  18.598  0.00  0.00    +0.000 A 
ATOM     14  C   UNL     1       4.676   5.251  19.248  0.00  0.00    +0.000 A 
ATOM     15  C   UNL     1       5.904   4.953  18.641  0.00  0.00    +0.000 A 
BRANCH  10  17
ATOM     16  C   UNL     1       7.182   4.786  15.340  0.00  0.00    +0.000 C 
ATOM     17  O   UNL     1       7.354   5.224  16.683  0.00  0.00    +0.000 OA
ENDBRANCH  10  17
ENDBRANCH   9  13
ENDBRANCH   1   9
BRANCH   4  18
ATOM     18  C   UNL     1       0.482  11.825  20.476  0.00  0.00    +0.000 C 
BRANCH  18  19
ATOM     19  C   UNL     1      -0.896  12.308  20.799  0.00  0.00    +0.000 A 
ATOM     20  C   UNL     1      -1.468  12.464  22.080  0.00  0.00    +0.000 A 
ATOM     21  C   UNL     1      -2.806  12.660  21.840  0.00  0.00    +0.000 A 
ATOM     22  O   UNL     1      -2.986  12.799  20.494  0.00  0.00    +0.000 OA
ATOM     23  N   UNL     1      -1.786  12.568  19.835  0.00  0.00    +0.000 NA
BRANCH  21  24
ATOM     24  C   UNL     1      -3.882  12.630  22.848  0.00  0.00    +0.000 A 
ATOM     25  C   UNL     1      -5.263  12.804  22.653  0.00  0.00    +0.000 A 
ATOM     26  N   UNL     1      -5.956  12.625  23.785  0.00  0.00    +0.000 NA
ATOM     27  N   UNL     1      -5.011  12.329  24.693  0.00  0.00    +0.000 N 
ATOM     28  C   UNL     1      -3.744  12.341  24.186  0.00  0.00    +0.000 A 
ATOM     29  H   UNL     1      -5.304  12.113  25.641  0.00  0.00    +0.000 HD
ENDBRANCH  21  24
ENDBRANCH  18  19
ENDBRANCH   4  18
TORSDOF 7
ENDMDL
MODEL 5
REMARK VINA RESULT:      -7.6      6.285     11.492
REMARK  Name = 
REMARK  8 active torsions:
REMARK  status: ('A' for Active; 'I' for Inactive)
REMARK    1  A    between atoms: C_1  and  O_2
REMARK    2  A    between atoms: O_2  and  C_3
REMARK    3  A    between atoms: C_6  and  C_7
REMARK    4  A    between atoms: C_7  and  C_8
REMARK    5  A    between atoms: C_11  and  O_12
REMARK    6  A    between atoms: C_11  and  C_13
REMARK    7  A    between atoms: C_13  and  C_14
REMARK    8  A    between atoms: C_16  and  C_17
REMARK                            x       y       z     vdW  Elec       q    Type
REMARK                         _______ _______ _______ _____ _____    ______ ____
ROOT
ATOM      1  C   UNL     1       1.859   8.751  18.839  0.00  0.00    +0.000 C 
ATOM      2  C   UNL     1       1.121   9.807  18.005  0.00  0.00    +0.000 C 
ATOM      3  C   UNL     1       1.011  11.132  18.765  0.00  0.00    +0.000 C 
ATOM      4  C   UNL     1       0.345  10.993  20.151  0.00  0.00    +0.000 C 
ATOM      5  C   UNL     1       1.012   9.865  20.960  0.00  0.00    +0.000 C 
ATOM      6  C   UNL     1       1.131   8.553  20.179  0.00  0.00    +0.000 C 
ENDROOT
BRANCH   4   7
ATOM      7  O   UNL     1      -1.041  10.642  19.996  0.00  0.00    +0.000 OA
ATOM      8  H   UNL     1      -1.330  10.891  19.102  0.00  0.00    +0.000 HD
ENDBRANCH   4   7
BRANCH   1   9
ATOM      9  C   UNL     1       1.994   7.399  18.108  0.00  0.00    +0.000 C 
BRANCH   9  13
ATOM     10  C   UNL     1       5.841   5.442  18.457  0.00  0.00    +0.000 A 
ATOM     11  C   UNL     1       4.800   5.106  19.324  0.00  0.00    +0.000 A 
ATOM     12  C   UNL     1       3.552   5.727  19.215  0.00  0.00    +0.000 A 
ATOM     13  C   UNL     1       3.336   6.719  18.250  0.00  0.00    +0.000 A 
ATOM     14  C   UNL     1       4.390   7.057  17.390  0.00  0.00    +0.000 A 
ATOM     15  C   UNL     1       5.637   6.426  17.497  0.00  0.00    +0.000 A 
BRANCH  10  17
ATOM     16  C   UNL     1       7.743   4.410  17.502  0.00  0.00    +0.000 C 
ATOM     17  O   UNL     1       7.017   4.775  18.671  0.00  0.00    +0.000 OA
ENDBRANCH  10  17
ENDBRANCH   9  13
ENDBRANCH   1   9
BRANCH   4  18
ATOM     18  C   UNL     1       0.415  12.321  20.963  0.00  0.00    +0.000 C 
BRANCH  18  19
ATOM     19  C   UNL     1      -0.931  12.829  21.371  0.00  0.00    +0.000 A 
ATOM     20  C   UNL     1      -1.595  12.603  22.597  0.00  0.00    +0.000 A 
ATOM     21  C   UNL     1      -2.880  13.034  22.379  0.00  0.00    +0.000 A 
ATOM     22  O   UNL     1      -2.928  13.650  21.162  0.00  0.00    +0.000 OA
ATOM     23  N   UNL     1      -1.704  13.514  20.520  0.00  0.00    +0.000 NA
BRANCH  21  24
ATOM     24  C   UNL     1      -4.038  12.791  23.260  0.00  0.00    +0.000 A 
ATOM     25  C   UNL     1      -5.405  12.884  22.948  0.00  0.00    +0.000 A 
ATOM     26  N   UNL     1      -6.180  12.507  23.972  0.00  0.00    +0.000 NA
ATOM     27  N   UNL     1      -5.300  12.167  24.930  0.00  0.00    +0.000 N 
ATOM     28  C   UNL     1      -3.998  12.341  24.560  0.00  0.00    +0.000 A 
ATOM     29  H   UNL     1      -5.659  11.808  25.809  0.00  0.00    +0.000 HD
ENDBRANCH  21  24
ENDBRANCH  18  19
ENDBRANCH   4  18
TORSDOF 7
ENDMDL
MODEL 6
REMARK VINA RESULT:      -7.6      5.388      8.215
REMARK  Name = 
REMARK  8 active torsions:
REMARK  status: ('A' for Active; 'I' for Inactive)
REMARK    1  A    between atoms: C_1  and  O_2
REMARK    2  A    between atoms: O_2  and  C_3
REMARK    3  A    between atoms: C_6  and  C_7
REMARK    4  A    between atoms: C_7  and  C_8
REMARK    5  A    between atoms: C_11  and  O_12
REMARK    6  A    between atoms: C_11  and  C_13
REMARK    7  A    between atoms: C_13  and  C_14
REMARK    8  A    between atoms: C_16  and  C_17
REMARK                            x       y       z     vdW  Elec       q    Type
REMARK                         _______ _______ _______ _____ _____    ______ ____
ROOT
ATOM      1  C   UNL     1      -3.159  11.287  17.226  0.00  0.00    +0.000 C 
ATOM      2  C   UNL     1      -2.724  12.037  18.492  0.00  0.00    +0.000 C 
ATOM      3  C   UNL     1      -1.201  12.006  18.656  0.00  0.00    +0.000 C 
ATOM      4  C   UNL     1      -0.612  10.579  18.658  0.00  0.00    +0.000 C 
ATOM      5  C   UNL     1      -1.124   9.781  17.445  0.00  0.00    +0.000 C 
ATOM      6  C   UNL     1      -2.646   9.838  17.285  0.00  0.00    +0.000 C 
ENDROOT
BRANCH   4   7
ATOM      7  O   UNL     1      -1.036   9.876  19.839  0.00  0.00    +0.000 OA
ATOM      8  H   UNL     1      -1.569   9.108  19.573  0.00  0.00    +0.000 HD
ENDBRANCH   4   7
BRANCH   1   9
ATOM      9  C   UNL     1      -4.689  11.296  17.022  0.00  0.00    +0.000 C 
BRANCH   9  13
ATOM     10  C   UNL     1      -6.995  11.260  20.687  0.00  0.00    +0.000 A 
ATOM     11  C   UNL     1      -7.011  10.153  19.835  0.00  0.00    +0.000 A 
ATOM     12  C   UNL     1      -6.264  10.153  18.653  0.00  0.00    +0.000 A 
ATOM     13  C   UNL     1      -5.509  11.276  18.291  0.00  0.00    +0.000 A 
ATOM     14  C   UNL     1      -5.507  12.385  19.147  0.00  0.00    +0.000 A 
ATOM     15  C   UNL     1      -6.250  12.380  20.336  0.00  0.00    +0.000 A 
BRANCH  10  17
ATOM     16  C   UNL     1      -7.708  12.234  22.721  0.00  0.00    +0.000 C 
ATOM     17  O   UNL     1      -7.775  11.146  21.806  0.00  0.00    +0.000 OA
ENDBRANCH  10  17
ENDBRANCH   9  13
ENDBRANCH   1   9
BRANCH   4  18
ATOM     18  C   UNL     1       0.946  10.596  18.645  0.00  0.00    +0.000 C 
BRANCH  18  19
ATOM     19  C   UNL     1       1.549   9.253  18.907  0.00  0.00    +0.000 A 
ATOM     20  C   UNL     1       2.187   8.405  17.975  0.00  0.00    +0.000 A 
ATOM     21  C   UNL     1       2.312   7.205  18.629  0.00  0.00    +0.000 A 
ATOM     22  O   UNL     1       1.943   7.382  19.932  0.00  0.00    +0.000 OA
ATOM     23  N   UNL     1       1.453   8.669  20.108  0.00  0.00    +0.000 NA
BRANCH  21  24
ATOM     24  C   UNL     1       2.686   5.917  18.015  0.00  0.00    +0.000 A 
ATOM     25  C   UNL     1       3.923   5.541  17.463  0.00  0.00    +0.000 A 
ATOM     26  N   UNL     1       3.931   4.261  17.073  0.00  0.00    +0.000 NA
ATOM     27  N   UNL     1       2.699   3.824  17.389  0.00  0.00    +0.000 N 
ATOM     28  C   UNL     1       1.904   4.788  17.938  0.00  0.00    +0.000 A 
ATOM     29  H   UNL     1       2.474   2.850  17.216  0.00  0.00    +0.000 HD
ENDBRANCH  21  24
ENDBRANCH  18  19
ENDBRANCH   4  18
TORSDOF 7
ENDMDL
MODEL 7
REMARK VINA RESULT:      -7.5      6.025     11.101
REMARK  Name = 
REMARK  8 active torsions:
REMARK  status: ('A' for Active; 'I' for Inactive)
REMARK    1  A    between atoms: C_1  and  O_2
REMARK    2  A    between atoms: O_2  and  C_3
REMARK    3  A    between atoms: C_6  and  C_7
REMARK    4  A    between atoms: C_7  and  C_8
REMARK    5  A    between atoms: C_11  and  O_12
REMARK    6  A    between atoms: C_11  and  C_13
REMARK    7  A    between atoms: C_13  and  C_14
REMARK    8  A    between atoms: C_16  and  C_17
REMARK                            x       y       z     vdW  Elec       q    Type
REMARK                         _______ _______ _______ _____ _____    ______ ____
ROOT
ATOM      1  C   UNL     1       2.436   7.425  18.941  0.00  0.00    +0.000 C 
ATOM      2  C   UNL     1       1.736   8.381  17.965  0.00  0.00    +0.000 C 
ATOM      3  C   UNL     1       1.573   9.775  18.579  0.00  0.00    +0.000 C 
ATOM      4  C   UNL     1       0.832   9.768  19.934  0.00  0.00    +0.000 C 
ATOM      5  C   UNL     1       1.463   8.737  20.889  0.00  0.00    +0.000 C 
ATOM      6  C   UNL     1       1.635   7.354  20.253  0.00  0.00    +0.000 C 
ENDROOT
BRANCH   4   7
ATOM      7  O   UNL     1      -0.540   9.383  19.740  0.00  0.00    +0.000 OA
ATOM      8  H   UNL     1      -1.110  10.148  19.924  0.00  0.00    +0.000 HD
ENDBRANCH   4   7
BRANCH   1   9
ATOM      9  C   UNL     1       2.621   6.008  18.361  0.00  0.00    +0.000 C 
BRANCH   9  13
ATOM     10  C   UNL     1       6.241   5.364  16.072  0.00  0.00    +0.000 A 
ATOM     11  C   UNL     1       6.002   6.600  16.676  0.00  0.00    +0.000 A 
ATOM     12  C   UNL     1       4.839   6.815  17.422  0.00  0.00    +0.000 A 
ATOM     13  C   UNL     1       3.882   5.801  17.553  0.00  0.00    +0.000 A 
ATOM     14  C   UNL     1       4.127   4.567  16.936  0.00  0.00    +0.000 A 
ATOM     15  C   UNL     1       5.297   4.351  16.195  0.00  0.00    +0.000 A 
BRANCH  10  17
ATOM     16  C   UNL     1       7.271   4.898  13.995  0.00  0.00    +0.000 C 
ATOM     17  O   UNL     1       7.406   5.280  15.360  0.00  0.00    +0.000 OA
ENDBRANCH  10  17
ENDBRANCH   9  13
ENDBRANCH   1   9
BRANCH   4  18
ATOM     18  C   UNL     1       0.846  11.172  20.608  0.00  0.00    +0.000 C 
BRANCH  18  19
ATOM     19  C   UNL     1      -0.294  11.378  21.555  0.00  0.00    +0.000 A 
ATOM     20  C   UNL     1      -1.521  12.023  21.289  0.00  0.00    +0.000 A 
ATOM     21  C   UNL     1      -2.097  12.195  22.523  0.00  0.00    +0.000 A 
ATOM     22  O   UNL     1      -1.346  11.525  23.446  0.00  0.00    +0.000 OA
ATOM     23  N   UNL     1      -0.204  11.018  22.841  0.00  0.00    +0.000 NA
BRANCH  21  24
ATOM     24  C   UNL     1      -3.270  13.037  22.825  0.00  0.00    +0.000 A 
ATOM     25  C   UNL     1      -3.721  13.487  24.077  0.00  0.00    +0.000 A 
ATOM     26  N   UNL     1      -4.772  14.308  23.967  0.00  0.00    +0.000 NA
ATOM     27  N   UNL     1      -4.979  14.383  22.641  0.00  0.00    +0.000 N 
ATOM     28  C   UNL     1      -4.117  13.619  21.911  0.00  0.00    +0.000 A 
ATOM     29  H   UNL     1      -5.720  14.990  22.303  0.00  0.00    +0.000 HD
ENDBRANCH  21  24
ENDBRANCH  18  19
ENDBRANCH   4  18
TORSDOF 7
ENDMDL
MODEL 8
REMARK VINA RESULT:      -7.4      8.023     12.972
REMARK  Name = 
REMARK  8 active torsions:
REMARK  status: ('A' for Active; 'I' for Inactive)
REMARK    1  A    between atoms: C_1  and  O_2
REMARK    2  A    between atoms: O_2  and  C_3
REMARK    3  A    between atoms: C_6  and  C_7
REMARK    4  A    between atoms: C_7  and  C_8
REMARK    5  A    between atoms: C_11  and  O_12
REMARK    6  A    between atoms: C_11  and  C_13
REMARK    7  A    between atoms: C_13  and  C_14
REMARK    8  A    between atoms: C_16  and  C_17
REMARK                            x       y       z     vdW  Elec       q    Type
REMARK                         _______ _______ _______ _____ _____    ______ ____
ROOT
ATOM      1  C   UNL     1      -1.481  10.823  19.010  0.00  0.00    +0.000 C 
ATOM      2  C   UNL     1      -2.243  12.131  19.265  0.00  0.00    +0.000 C 
ATOM      3  C   UNL     1      -3.756  11.894  19.281  0.00  0.00    +0.000 C 
ATOM      4  C   UNL     1      -4.286  11.215  18.000  0.00  0.00    +0.000 C 
ATOM      5  C   UNL     1      -3.462   9.956  17.675  0.00  0.00    +0.000 C 
ATOM      6  C   UNL     1      -1.951  10.206  17.682  0.00  0.00    +0.000 C 
ENDROOT
BRANCH   4   7
ATOM      7  O   UNL     1      -4.153  12.110  16.881  0.00  0.00    +0.000 OA
ATOM      8  H   UNL     1      -3.218  12.359  16.787  0.00  0.00    +0.000 HD
ENDBRANCH   4   7
BRANCH   1   9
ATOM      9  C   UNL     1       0.050  11.017  18.987  0.00  0.00    +0.000 C 
BRANCH   9  13
ATOM     10  C   UNL     1       2.401   7.381  19.072  0.00  0.00    +0.000 A 
ATOM     11  C   UNL     1       2.311   8.133  17.899  0.00  0.00    +0.000 A 
ATOM     12  C   UNL     1       1.559   9.312  17.864  0.00  0.00    +0.000 A 
ATOM     13  C   UNL     1       0.862   9.742  18.999  0.00  0.00    +0.000 A 
ATOM     14  C   UNL     1       0.951   8.977  20.170  0.00  0.00    +0.000 A 
ATOM     15  C   UNL     1       1.712   7.799  20.204  0.00  0.00    +0.000 A 
BRANCH  10  17
ATOM     16  C   UNL     1       3.036   5.331  20.064  0.00  0.00    +0.000 C 
ATOM     17  O   UNL     1       3.155   6.243  18.978  0.00  0.00    +0.000 OA
ENDBRANCH  10  17
ENDBRANCH   9  13
ENDBRANCH   1   9
BRANCH   4  18
ATOM     18  C   UNL     1      -5.790  10.830  18.128  0.00  0.00    +0.000 C 
BRANCH  18  19
ATOM     19  C   UNL     1      -6.386  11.229  19.441  0.00  0.00    +0.000 A 
ATOM     20  C   UNL     1      -6.496  12.534  19.969  0.00  0.00    +0.000 A 
ATOM     21  C   UNL     1      -6.850  12.346  21.282  0.00  0.00    +0.000 A 
ATOM     22  O   UNL     1      -7.117  11.021  21.473  0.00  0.00    +0.000 OA
ATOM     23  N   UNL     1      -6.816  10.313  20.317  0.00  0.00    +0.000 NA
BRANCH  21  24
ATOM     24  C   UNL     1      -6.850  13.378  22.337  0.00  0.00    +0.000 A 
ATOM     25  C   UNL     1      -7.244  14.723  22.240  0.00  0.00    +0.000 A 
ATOM     26  N   UNL     1      -7.194  15.347  23.423  0.00  0.00    +0.000 NA
ATOM     27  N   UNL     1      -6.776  14.391  24.270  0.00  0.00    +0.000 N 
ATOM     28  C   UNL     1      -6.533  13.194  23.663  0.00  0.00    +0.000 A 
ATOM     29  H   UNL     1      -6.693  14.622  25.255  0.00  0.00    +0.000 HD
ENDBRANCH  21  24
ENDBRANCH  18  19
ENDBRANCH   4  18
TORSDOF 7
ENDMDL
MODEL 9
REMARK VINA RESULT:      -7.4      6.290     11.435
REMARK  Name = 
REMARK  8 active torsions:
REMARK  status: ('A' for Active; 'I' for Inactive)
REMARK    1  A    between atoms: C_1  and  O_2
REMARK    2  A    between atoms: O_2  and  C_3
REMARK    3  A    between atoms: C_6  and  C_7
REMARK    4  A    between atoms: C_7  and  C_8
REMARK    5  A    between atoms: C_11  and  O_12
REMARK    6  A    between atoms: C_11  and  C_13
REMARK    7  A    between atoms: C_13  and  C_14
REMARK    8  A    between atoms: C_16  and  C_17
REMARK                            x       y       z     vdW  Elec       q    Type
REMARK                         _______ _______ _______ _____ _____    ______ ____
ROOT
ATOM      1  C   UNL     1       2.030   8.759  18.652  0.00  0.00    +0.000 C 
ATOM      2  C   UNL     1       1.366   9.976  17.992  0.00  0.00    +0.000 C 
ATOM      3  C   UNL     1       1.252  11.144  18.976  0.00  0.00    +0.000 C 
ATOM      4  C   UNL     1       0.510  10.779  20.280  0.00  0.00    +0.000 C 
ATOM      5  C   UNL     1       1.101   9.499  20.899  0.00  0.00    +0.000 C 
ATOM      6  C   UNL     1       1.226   8.347  19.897  0.00  0.00    +0.000 C 
ENDROOT
BRANCH   4   7
ATOM      7  O   UNL     1      -0.875  10.513  19.997  0.00  0.00    +0.000 OA
ATOM      8  H   UNL     1      -1.423  11.167  20.462  0.00  0.00    +0.000 HD
ENDBRANCH   4   7
BRANCH   1   9
ATOM      9  C   UNL     1       2.166   7.558  17.692  0.00  0.00    +0.000 C 
BRANCH   9  13
ATOM     10  C   UNL     1       4.597   4.270  19.116  0.00  0.00    +0.000 A 
ATOM     11  C   UNL     1       3.230   4.306  19.396  0.00  0.00    +0.000 A 
ATOM     12  C   UNL     1       2.435   5.360  18.935  0.00  0.00    +0.000 A 
ATOM     13  C   UNL     1       3.005   6.412  18.208  0.00  0.00    +0.000 A 
ATOM     14  C   UNL     1       4.381   6.372  17.940  0.00  0.00    +0.000 A 
ATOM     15  C   UNL     1       5.174   5.310  18.397  0.00  0.00    +0.000 A 
BRANCH  10  17
ATOM     16  C   UNL     1       4.457   2.142  20.140  0.00  0.00    +0.000 C 
ATOM     17  O   UNL     1       5.269   3.195  19.631  0.00  0.00    +0.000 OA
ENDBRANCH  10  17
ENDBRANCH   9  13
ENDBRANCH   1   9
BRANCH   4  18
ATOM     18  C   UNL     1       0.572  11.934  21.324  0.00  0.00    +0.000 C 
BRANCH  18  19
ATOM     19  C   UNL     1      -0.769  12.524  21.625  0.00  0.00    +0.000 A 
ATOM     20  C   UNL     1      -1.535  12.353  22.798  0.00  0.00    +0.000 A 
ATOM     21  C   UNL     1      -2.773  12.855  22.480  0.00  0.00    +0.000 A 
ATOM     22  O   UNL     1      -2.692  13.458  21.257  0.00  0.00    +0.000 OA
ATOM     23  N   UNL     1      -1.434  13.243  20.711  0.00  0.00    +0.000 NA
BRANCH  21  24
ATOM     24  C   UNL     1      -4.006  12.692  23.272  0.00  0.00    +0.000 A 
ATOM     25  C   UNL     1      -5.339  12.811  22.844  0.00  0.00    +0.000 A 
ATOM     26  N   UNL     1      -6.208  12.509  23.816  0.00  0.00    +0.000 NA
ATOM     27  N   UNL     1      -5.421  12.189  24.858  0.00  0.00    +0.000 N 
ATOM     28  C   UNL     1      -4.088  12.305  24.589  0.00  0.00    +0.000 A 
ATOM     29  H   UNL     1      -5.863  11.885  25.720  0.00  0.00    +0.000 HD
ENDBRANCH  21  24
ENDBRANCH  18  19
ENDBRANCH   4  18
TORSDOF 7
ENDMDL
