MODEL 1
REMARK VINA RESULT:      -6.4      0.000      0.000
REMARK  Name = 
REMARK  3 active torsions:
REMARK  status: ('A' for Active; 'I' for Inactive)
REMARK    1  A    between atoms: C_1  and  C_2
REMARK    2  A    between atoms: C_4  and  C_5
REMARK    3  A    between atoms: C_12  and  O_13
REMARK                            x       y       z     vdW  Elec       q    Type
REMARK                         _______ _______ _______ _____ _____    ______ ____
ROOT
ATOM      1  C   UNL     1       2.395   3.231  20.348  0.00  0.00    +0.000 C 
ATOM      2  C   UNL     1       3.245   4.152  19.526  0.00  0.00    +0.000 A 
ATOM      3  C   UNL     1       2.735   5.360  19.046  0.00  0.00    +0.000 A 
ATOM      4  C   UNL     1       3.542   6.249  18.316  0.00  0.00    +0.000 A 
ATOM      5  C   UNL     1       2.940   7.541  17.832  0.00  0.00    +0.000 C 
ATOM      6  C   UNL     1       4.902   5.919  18.065  0.00  0.00    +0.000 A 
ATOM      7  C   UNL     1       5.801   6.761  17.379  0.00  0.00    +0.000 A 
ATOM      8  C   UNL     1       7.129   6.387  17.205  0.00  0.00    +0.000 A 
ATOM      9  C   UNL     1       7.528   5.165  17.701  0.00  0.00    +0.000 A 
ATOM     10  N   UNL     1       6.706   4.310  18.346  0.00  0.00    +0.000 NA
ATOM     11  C   UNL     1       5.422   4.693  18.531  0.00  0.00    +0.000 A 
ATOM     12  C   UNL     1       4.575   3.839  19.235  0.00  0.00    +0.000 A 
ENDROOT
BRANCH  12  13
ATOM     13  O   UNL     1       5.086   2.637  19.679  0.00  0.00    +0.000 OA
ATOM     14  H   UNL     1       5.297   2.156  18.851  0.00  0.00    +0.000 HD
ENDBRANCH  12  13
TORSDOF 1
ENDMDL
MODEL 2
REMARK VINA RESULT:      -6.3      2.198      4.135
REMARK  Name = 
REMARK  3 active torsions:
REMARK  status: ('A' for Active; 'I' for Inactive)
REMARK    1  A    between atoms: C_1  and  C_2
REMARK    2  A    between atoms: C_4  and  C_5
REMARK    3  A    between atoms: C_12  and  O_13
REMARK                            x       y       z     vdW  Elec       q    Type
REMARK                         _______ _______ _______ _____ _____    ______ ____
ROOT
ATOM      1  C   UNL     1       5.349   4.144  15.856  0.00  0.00    +0.000 C 
ATOM      2  C   UNL     1       4.405   4.380  16.997  0.00  0.00    +0.000 A 
ATOM      3  C   UNL     1       3.954   5.666  17.300  0.00  0.00    +0.000 A 
ATOM      4  C   UNL     1       3.032   5.886  18.337  0.00  0.00    +0.000 A 
ATOM      5  C   UNL     1       2.574   7.293  18.612  0.00  0.00    +0.000 C 
ATOM      6  C   UNL     1       2.544   4.782  19.089  0.00  0.00    +0.000 A 
ATOM      7  C   UNL     1       1.589   4.895  20.120  0.00  0.00    +0.000 A 
ATOM      8  C   UNL     1       1.130   3.765  20.787  0.00  0.00    +0.000 A 
ATOM      9  C   UNL     1       1.653   2.542  20.424  0.00  0.00    +0.000 A 
ATOM     10  N   UNL     1       2.584   2.378  19.461  0.00  0.00    +0.000 NA
ATOM     11  C   UNL     1       3.007   3.481  18.802  0.00  0.00    +0.000 A 
ATOM     12  C   UNL     1       3.935   3.319  17.774  0.00  0.00    +0.000 A 
ENDROOT
BRANCH  12  13
ATOM     13  O   UNL     1       4.392   2.046  17.505  0.00  0.00    +0.000 OA
ATOM     14  H   UNL     1       4.926   2.160  16.690  0.00  0.00    +0.000 HD
ENDBRANCH  12  13
TORSDOF 1
ENDMDL
MODEL 3
REMARK VINA RESULT:      -6.3      1.766      3.822
REMARK  Name = 
REMARK  3 active torsions:
REMARK  status: ('A' for Active; 'I' for Inactive)
REMARK    1  A    between atoms: C_1  and  C_2
REMARK    2  A    between atoms: C_4  and  C_5
REMARK    3  A    between atoms: C_12  and  O_13
REMARK                            x       y       z     vdW  Elec       q    Type
REMARK                         _______ _______ _______ _____ _____    ______ ____
ROOT
ATOM      1  C   UNL     1       7.210   6.624  17.126  0.00  0.00    +0.000 C 
ATOM      2  C   UNL     1       5.808   6.169  17.402  0.00  0.00    +0.000 A 
ATOM      3  C   UNL     1       4.781   7.093  17.601  0.00  0.00    +0.000 A 
ATOM      4  C   UNL     1       3.457   6.672  17.812  0.00  0.00    +0.000 A 
ATOM      5  C   UNL     1       2.389   7.714  18.012  0.00  0.00    +0.000 C 
ATOM      6  C   UNL     1       3.154   5.283  17.818  0.00  0.00    +0.000 A 
ATOM      7  C   UNL     1       1.853   4.763  17.981  0.00  0.00    +0.000 A 
ATOM      8  C   UNL     1       1.629   3.392  17.937  0.00  0.00    +0.000 A 
ATOM      9  C   UNL     1       2.714   2.562  17.753  0.00  0.00    +0.000 A 
ATOM     10  N   UNL     1       3.982   3.004  17.614  0.00  0.00    +0.000 NA
ATOM     11  C   UNL     1       4.188   4.341  17.635  0.00  0.00    +0.000 A 
ATOM     12  C   UNL     1       5.487   4.810  17.446  0.00  0.00    +0.000 A 
ENDROOT
BRANCH  12  13
ATOM     13  O   UNL     1       6.495   3.884  17.278  0.00  0.00    +0.000 OA
ATOM     14  H   UNL     1       7.209   4.397  16.841  0.00  0.00    +0.000 HD
ENDBRANCH  12  13
TORSDOF 1
ENDMDL
MODEL 4
REMARK VINA RESULT:      -6.2      1.961      2.186
REMARK  Name = 
REMARK  3 active torsions:
REMARK  status: ('A' for Active; 'I' for Inactive)
REMARK    1  A    between atoms: C_1  and  C_2
REMARK    2  A    between atoms: C_4  and  C_5
REMARK    3  A    between atoms: C_12  and  O_13
REMARK                            x       y       z     vdW  Elec       q    Type
REMARK                         _______ _______ _______ _____ _____    ______ ____
ROOT
ATOM      1  C   UNL     1       2.979   2.320  18.022  0.00  0.00    +0.000 C 
ATOM      2  C   UNL     1       4.078   3.311  17.782  0.00  0.00    +0.000 A 
ATOM      3  C   UNL     1       4.235   3.920  16.536  0.00  0.00    +0.000 A 
ATOM      4  C   UNL     1       5.233   4.886  16.320  0.00  0.00    +0.000 A 
ATOM      5  C   UNL     1       5.348   5.515  14.958  0.00  0.00    +0.000 C 
ATOM      6  C   UNL     1       6.096   5.254  17.389  0.00  0.00    +0.000 A 
ATOM      7  C   UNL     1       7.099   6.240  17.283  0.00  0.00    +0.000 A 
ATOM      8  C   UNL     1       7.880   6.575  18.383  0.00  0.00    +0.000 A 
ATOM      9  C   UNL     1       7.659   5.901  19.565  0.00  0.00    +0.000 A 
ATOM     10  N   UNL     1       6.728   4.934  19.716  0.00  0.00    +0.000 NA
ATOM     11  C   UNL     1       5.957   4.632  18.646  0.00  0.00    +0.000 A 
ATOM     12  C   UNL     1       4.962   3.668  18.803  0.00  0.00    +0.000 A 
ENDROOT
BRANCH  12  13
ATOM     13  O   UNL     1       4.838   3.056  20.033  0.00  0.00    +0.000 OA
ATOM     14  H   UNL     1       4.324   3.702  20.562  0.00  0.00    +0.000 HD
ENDBRANCH  12  13
TORSDOF 1
ENDMDL
MODEL 5
REMARK VINA RESULT:      -6.2      1.232      1.232
REMARK  Name = 
REMARK  3 active torsions:
REMARK  status: ('A' for Active; 'I' for Inactive)
REMARK    1  A    between atoms: C_1  and  C_2
REMARK    2  A    between atoms: C_4  and  C_5
REMARK    3  A    between atoms: C_12  and  O_13
REMARK                            x       y       z     vdW  Elec       q    Type
REMARK                         _______ _______ _______ _____ _____    ______ ____
ROOT
ATOM      1  C   UNL     1       1.588   3.110  18.359  0.00  0.00    +0.000 C 
ATOM      2  C   UNL     1       2.633   4.138  18.044  0.00  0.00    +0.000 A 
ATOM      3  C   UNL     1       2.329   5.500  18.064  0.00  0.00    +0.000 A 
ATOM      4  C   UNL     1       3.317   6.468  17.816  0.00  0.00    +0.000 A 
ATOM      5  C   UNL     1       2.931   7.923  17.860  0.00  0.00    +0.000 C 
ATOM      6  C   UNL     1       4.651   6.057  17.546  0.00  0.00    +0.000 A 
ATOM      7  C   UNL     1       5.718   6.952  17.326  0.00  0.00    +0.000 A 
ATOM      8  C   UNL     1       7.006   6.476  17.105  0.00  0.00    +0.000 A 
ATOM      9  C   UNL     1       7.199   5.112  17.087  0.00  0.00    +0.000 A 
ATOM     10  N   UNL     1       6.210   4.210  17.270  0.00  0.00    +0.000 NA
ATOM     11  C   UNL     1       4.965   4.683  17.507  0.00  0.00    +0.000 A 
ATOM     12  C   UNL     1       3.945   3.763  17.743  0.00  0.00    +0.000 A 
ENDROOT
BRANCH  12  13
ATOM     13  O   UNL     1       4.256   2.420  17.692  0.00  0.00    +0.000 OA
ATOM     14  H   UNL     1       3.676   2.023  18.376  0.00  0.00    +0.000 HD
ENDBRANCH  12  13
TORSDOF 1
ENDMDL
MODEL 6
REMARK VINA RESULT:      -6.2      1.760      2.137
REMARK  Name = 
REMARK  3 active torsions:
REMARK  status: ('A' for Active; 'I' for Inactive)
REMARK    1  A    between atoms: C_1  and  C_2
REMARK    2  A    between atoms: C_4  and  C_5
REMARK    3  A    between atoms: C_12  and  O_13
REMARK                            x       y       z     vdW  Elec       q    Type
REMARK                         _______ _______ _______ _____ _____    ______ ____
ROOT
ATOM      1  C   UNL     1       1.549   2.749  21.489  0.00  0.00    +0.000 C 
ATOM      2  C   UNL     1       2.078   3.754  20.511  0.00  0.00    +0.000 A 
ATOM      3  C   UNL     1       1.813   5.115  20.668  0.00  0.00    +0.000 A 
ATOM      4  C   UNL     1       2.347   6.066  19.780  0.00  0.00    +0.000 A 
ATOM      5  C   UNL     1       2.035   7.521  20.005  0.00  0.00    +0.000 C 
ATOM      6  C   UNL     1       3.175   5.637  18.707  0.00  0.00    +0.000 A 
ATOM      7  C   UNL     1       3.789   6.515  17.790  0.00  0.00    +0.000 A 
ATOM      8  C   UNL     1       4.618   6.024  16.788  0.00  0.00    +0.000 A 
ATOM      9  C   UNL     1       4.800   4.660  16.707  0.00  0.00    +0.000 A 
ATOM     10  N   UNL     1       4.221   3.773  17.543  0.00  0.00    +0.000 NA
ATOM     11  C   UNL     1       3.434   4.262  18.530  0.00  0.00    +0.000 A 
ATOM     12  C   UNL     1       2.867   3.359  19.428  0.00  0.00    +0.000 A 
ENDROOT
BRANCH  12  13
ATOM     13  O   UNL     1       3.115   2.015  19.243  0.00  0.00    +0.000 OA
ATOM     14  H   UNL     1       2.224   1.635  19.088  0.00  0.00    +0.000 HD
ENDBRANCH  12  13
TORSDOF 1
ENDMDL
MODEL 7
REMARK VINA RESULT:      -6.1      2.084      4.113
REMARK  Name = 
REMARK  3 active torsions:
REMARK  status: ('A' for Active; 'I' for Inactive)
REMARK    1  A    between atoms: C_1  and  C_2
REMARK    2  A    between atoms: C_4  and  C_5
REMARK    3  A    between atoms: C_12  and  O_13
REMARK                            x       y       z     vdW  Elec       q    Type
REMARK                         _______ _______ _______ _____ _____    ______ ____
ROOT
ATOM      1  C   UNL     1       6.405   5.554  15.614  0.00  0.00    +0.000 C 
ATOM      2  C   UNL     1       5.201   5.308  16.473  0.00  0.00    +0.000 A 
ATOM      3  C   UNL     1       4.448   6.371  16.974  0.00  0.00    +0.000 A 
ATOM      4  C   UNL     1       3.291   6.145  17.739  0.00  0.00    +0.000 A 
ATOM      5  C   UNL     1       2.515   7.331  18.246  0.00  0.00    +0.000 C 
ATOM      6  C   UNL     1       2.875   4.811  18.004  0.00  0.00    +0.000 A 
ATOM      7  C   UNL     1       1.709   4.482  18.726  0.00  0.00    +0.000 A 
ATOM      8  C   UNL     1       1.344   3.153  18.912  0.00  0.00    +0.000 A 
ATOM      9  C   UNL     1       2.165   2.176  18.392  0.00  0.00    +0.000 A 
ATOM     10  N   UNL     1       3.303   2.434  17.713  0.00  0.00    +0.000 NA
ATOM     11  C   UNL     1       3.638   3.730  17.516  0.00  0.00    +0.000 A 
ATOM     12  C   UNL     1       4.786   4.009  16.777  0.00  0.00    +0.000 A 
ENDROOT
BRANCH  12  13
ATOM     13  O   UNL     1       5.534   2.948  16.312  0.00  0.00    +0.000 OA
ATOM     14  H   UNL     1       5.471   3.031  15.337  0.00  0.00    +0.000 HD
ENDBRANCH  12  13
TORSDOF 1
ENDMDL
MODEL 8
REMARK VINA RESULT:      -6.1      2.990      4.252
REMARK  Name = 
REMARK  3 active torsions:
REMARK  status: ('A' for Active; 'I' for Inactive)
REMARK    1  A    between atoms: C_1  and  C_2
REMARK    2  A    between atoms: C_4  and  C_5
REMARK    3  A    between atoms: C_12  and  O_13
REMARK                            x       y       z     vdW  Elec       q    Type
REMARK                         _______ _______ _______ _____ _____    ______ ____
ROOT
ATOM      1  C   UNL     1       6.078   3.793  13.223  0.00  0.00    +0.000 C 
ATOM      2  C   UNL     1       5.928   4.088  14.685  0.00  0.00    +0.000 A 
ATOM      3  C   UNL     1       4.878   3.539  15.423  0.00  0.00    +0.000 A 
ATOM      4  C   UNL     1       4.761   3.774  16.804  0.00  0.00    +0.000 A 
ATOM      5  C   UNL     1       3.613   3.148  17.550  0.00  0.00    +0.000 C 
ATOM      6  C   UNL     1       5.729   4.580  17.464  0.00  0.00    +0.000 A 
ATOM      7  C   UNL     1       5.721   4.840  18.850  0.00  0.00    +0.000 A 
ATOM      8  C   UNL     1       6.724   5.607  19.432  0.00  0.00    +0.000 A 
ATOM      9  C   UNL     1       7.706   6.119  18.612  0.00  0.00    +0.000 A 
ATOM     10  N   UNL     1       7.751   5.920  17.277  0.00  0.00    +0.000 NA
ATOM     11  C   UNL     1       6.783   5.153  16.724  0.00  0.00    +0.000 A 
ATOM     12  C   UNL     1       6.845   4.903  15.354  0.00  0.00    +0.000 A 
ENDROOT
BRANCH  12  13
ATOM     13  O   UNL     1       7.872   5.475  14.633  0.00  0.00    +0.000 OA
ATOM     14  H   UNL     1       8.500   5.775  15.325  0.00  0.00    +0.000 HD
ENDBRANCH  12  13
TORSDOF 1
ENDMDL
MODEL 9
REMARK VINA RESULT:      -6.1      1.361      3.813
REMARK  Name = 
REMARK  3 active torsions:
REMARK  status: ('A' for Active; 'I' for Inactive)
REMARK    1  A    between atoms: C_1  and  C_2
REMARK    2  A    between atoms: C_4  and  C_5
REMARK    3  A    between atoms: C_12  and  O_13
REMARK                            x       y       z     vdW  Elec       q    Type
REMARK                         _______ _______ _______ _____ _____    ______ ____
ROOT
ATOM      1  C   UNL     1       6.547   5.700  16.804  0.00  0.00    +0.000 C 
ATOM      2  C   UNL     1       5.303   5.690  17.639  0.00  0.00    +0.000 A 
ATOM      3  C   UNL     1       4.365   6.719  17.541  0.00  0.00    +0.000 A 
ATOM      4  C   UNL     1       3.174   6.690  18.286  0.00  0.00    +0.000 A 
ATOM      5  C   UNL     1       2.196   7.823  18.132  0.00  0.00    +0.000 C 
ATOM      6  C   UNL     1       2.915   5.592  19.152  0.00  0.00    +0.000 A 
ATOM      7  C   UNL     1       1.733   5.452  19.910  0.00  0.00    +0.000 A 
ATOM      8  C   UNL     1       1.533   4.331  20.707  0.00  0.00    +0.000 A 
ATOM      9  C   UNL     1       2.529   3.379  20.749  0.00  0.00    +0.000 A 
ATOM     10  N   UNL     1       3.688   3.473  20.063  0.00  0.00    +0.000 NA
ATOM     11  C   UNL     1       3.864   4.556  19.272  0.00  0.00    +0.000 A 
ATOM     12  C   UNL     1       5.037   4.642  18.523  0.00  0.00    +0.000 A 
ENDROOT
BRANCH  12  13
ATOM     13  O   UNL     1       5.966   3.631  18.653  0.00  0.00    +0.000 OA
ATOM     14  H   UNL     1       5.982   3.454  19.617  0.00  0.00    +0.000 HD
ENDBRANCH  12  13
TORSDOF 1
ENDMDL
