MODEL 1
REMARK VINA RESULT:      -8.1      0.000      0.000
REMARK  Name = 
REMARK  4 active torsions:
REMARK  status: ('A' for Active; 'I' for Inactive)
REMARK    1  A    between atoms: N_1  and  C_2
REMARK    2  A    between atoms: C_5  and  C_6
REMARK    3  A    between atoms: C_13  and  C_14
REMARK    4  A    between atoms: C_17  and  O_18
REMARK                            x       y       z     vdW  Elec       q    Type
REMARK                         _______ _______ _______ _____ _____    ______ ____
ROOT
ATOM      1  C   UNL     1       3.472   2.129  18.632  0.00  0.00    +0.000 A 
ATOM      2  N   UNL     1       2.419   2.124  19.499  0.00  0.00    +0.000 N 
ATOM      3  N   UNL     1       1.965   3.336  19.827  0.00  0.00    +0.000 NA
ATOM      4  C   UNL     1       2.719   4.182  19.101  0.00  0.00    +0.000 A 
ATOM      5  C   UNL     1       3.720   3.464  18.344  0.00  0.00    +0.000 A 
ATOM      6  H   UNL     1       1.973   1.316  19.916  0.00  0.00    +0.000 HD
ENDROOT
BRANCH   4   7
ATOM      7  C   UNL     1       2.443   5.624  19.166  0.00  0.00    +0.000 A 
ATOM      8  C   UNL     1       2.599   6.425  18.022  0.00  0.00    +0.000 A 
ATOM      9  C   UNL     1       2.320   7.794  18.058  0.00  0.00    +0.000 A 
ATOM     10  C   UNL     1       1.875   8.376  19.242  0.00  0.00    +0.000 A 
ATOM     11  C   UNL     1       1.738   7.589  20.380  0.00  0.00    +0.000 A 
ATOM     12  F   UNL     1       1.307   8.149  21.519  0.00  0.00    +0.000 F 
ATOM     13  C   UNL     1       2.035   6.231  20.360  0.00  0.00    +0.000 A 
ENDBRANCH   4   7
BRANCH   5  14
ATOM     14  C   UNL     1       4.790   3.942  17.468  0.00  0.00    +0.000 A 
ATOM     15  C   UNL     1       6.003   4.404  18.006  0.00  0.00    +0.000 A 
ATOM     16  C   UNL     1       7.007   4.925  17.182  0.00  0.00    +0.000 A 
ATOM     17  C   UNL     1       6.823   4.936  15.806  0.00  0.00    +0.000 A 
ATOM     18  C   UNL     1       5.648   4.453  15.246  0.00  0.00    +0.000 A 
ATOM     19  C   UNL     1       4.628   3.978  16.076  0.00  0.00    +0.000 A 
BRANCH  17  20
ATOM     20  O   UNL     1       7.778   5.422  14.963  0.00  0.00    +0.000 OA
ATOM     21  H   UNL     1       8.528   5.737  15.494  0.00  0.00    +0.000 HD
ENDBRANCH  17  20
ENDBRANCH   5  14
BRANCH   1  22
ATOM     22  N   UNL     1       4.048   0.970  18.243  0.00  0.00    +0.000 N 
ATOM     23  H   UNL     1       3.852   0.075  18.680  0.00  0.00    +0.000 HD
ATOM     24  H   UNL     1       4.921   0.978  17.719  0.00  0.00    +0.000 HD
ENDBRANCH   1  22
TORSDOF 4
ENDMDL
MODEL 2
REMARK VINA RESULT:      -8.1      1.006      1.473
REMARK  Name = 
REMARK  4 active torsions:
REMARK  status: ('A' for Active; 'I' for Inactive)
REMARK    1  A    between atoms: N_1  and  C_2
REMARK    2  A    between atoms: C_5  and  C_6
REMARK    3  A    between atoms: C_13  and  C_14
REMARK    4  A    between atoms: C_17  and  O_18
REMARK                            x       y       z     vdW  Elec       q    Type
REMARK                         _______ _______ _______ _____ _____    ______ ____
ROOT
ATOM      1  C   UNL     1       3.423   2.061  18.682  0.00  0.00    +0.000 A 
ATOM      2  N   UNL     1       2.362   2.029  19.540  0.00  0.00    +0.000 N 
ATOM      3  N   UNL     1       1.897   3.231  19.891  0.00  0.00    +0.000 NA
ATOM      4  C   UNL     1       2.651   4.098  19.191  0.00  0.00    +0.000 A 
ATOM      5  C   UNL     1       3.663   3.404  18.426  0.00  0.00    +0.000 A 
ATOM      6  H   UNL     1       1.919   1.209  19.936  0.00  0.00    +0.000 HD
ENDROOT
BRANCH   4   7
ATOM      7  C   UNL     1       2.365   5.535  19.285  0.00  0.00    +0.000 A 
ATOM      8  C   UNL     1       1.909   6.087  20.495  0.00  0.00    +0.000 A 
ATOM      9  C   UNL     1       1.654   7.455  20.612  0.00  0.00    +0.000 A 
ATOM     10  C   UNL     1       1.858   8.291  19.517  0.00  0.00    +0.000 A 
ATOM     11  C   UNL     1       2.291   7.745  18.314  0.00  0.00    +0.000 A 
ATOM     12  F   UNL     1       2.491   8.550  17.261  0.00  0.00    +0.000 F 
ATOM     13  C   UNL     1       2.526   6.381  18.182  0.00  0.00    +0.000 A 
ENDBRANCH   4   7
BRANCH   5  14
ATOM     14  C   UNL     1       4.737   3.908  17.570  0.00  0.00    +0.000 A 
ATOM     15  C   UNL     1       5.940   4.372  18.128  0.00  0.00    +0.000 A 
ATOM     16  C   UNL     1       6.947   4.919  17.324  0.00  0.00    +0.000 A 
ATOM     17  C   UNL     1       6.776   4.953  15.947  0.00  0.00    +0.000 A 
ATOM     18  C   UNL     1       5.612   4.469  15.366  0.00  0.00    +0.000 A 
ATOM     19  C   UNL     1       4.588   3.969  16.177  0.00  0.00    +0.000 A 
BRANCH  17  20
ATOM     20  O   UNL     1       7.735   5.465  15.123  0.00  0.00    +0.000 OA
ATOM     21  H   UNL     1       8.504   5.714  15.660  0.00  0.00    +0.000 HD
ENDBRANCH  17  20
ENDBRANCH   5  14
BRANCH   1  22
ATOM     22  N   UNL     1       4.010   0.915  18.272  0.00  0.00    +0.000 N 
ATOM     23  H   UNL     1       4.095   0.649  17.296  0.00  0.00    +0.000 HD
ATOM     24  H   UNL     1       4.110   0.129  18.912  0.00  0.00    +0.000 HD
ENDBRANCH   1  22
TORSDOF 4
ENDMDL
MODEL 3
REMARK VINA RESULT:      -8.1      0.085      1.081
REMARK  Name = 
REMARK  4 active torsions:
REMARK  status: ('A' for Active; 'I' for Inactive)
REMARK    1  A    between atoms: N_1  and  C_2
REMARK    2  A    between atoms: C_5  and  C_6
REMARK    3  A    between atoms: C_13  and  C_14
REMARK    4  A    between atoms: C_17  and  O_18
REMARK                            x       y       z     vdW  Elec       q    Type
REMARK                         _______ _______ _______ _____ _____    ______ ____
ROOT
ATOM      1  C   UNL     1       3.451   2.139  18.618  0.00  0.00    +0.000 A 
ATOM      2  N   UNL     1       2.413   2.117  19.504  0.00  0.00    +0.000 N 
ATOM      3  N   UNL     1       1.961   3.323  19.858  0.00  0.00    +0.000 NA
ATOM      4  C   UNL     1       2.699   4.182  19.131  0.00  0.00    +0.000 A 
ATOM      5  C   UNL     1       3.689   3.479  18.346  0.00  0.00    +0.000 A 
ATOM      6  H   UNL     1       1.977   1.301  19.917  0.00  0.00    +0.000 HD
ENDROOT
BRANCH   4   7
ATOM      7  C   UNL     1       2.420   5.621  19.223  0.00  0.00    +0.000 A 
ATOM      8  C   UNL     1       2.589   6.446  18.098  0.00  0.00    +0.000 A 
ATOM      9  C   UNL     1       2.307   7.814  18.158  0.00  0.00    +0.000 A 
ATOM     10  C   UNL     1       1.845   8.370  19.348  0.00  0.00    +0.000 A 
ATOM     11  C   UNL     1       1.694   7.560  20.467  0.00  0.00    +0.000 A 
ATOM     12  F   UNL     1       1.246   8.095  21.611  0.00  0.00    +0.000 F 
ATOM     13  C   UNL     1       1.994   6.202  20.423  0.00  0.00    +0.000 A 
ENDBRANCH   4   7
BRANCH   5  14
ATOM     14  C   UNL     1       4.742   3.974  17.459  0.00  0.00    +0.000 A 
ATOM     15  C   UNL     1       4.548   4.008  16.068  0.00  0.00    +0.000 A 
ATOM     16  C   UNL     1       5.572   4.417  15.205  0.00  0.00    +0.000 A 
ATOM     17  C   UNL     1       6.779   4.847  15.736  0.00  0.00    +0.000 A 
ATOM     18  C   UNL     1       6.985   4.857  17.109  0.00  0.00    +0.000 A 
ATOM     19  C   UNL     1       5.978   4.402  17.965  0.00  0.00    +0.000 A 
BRANCH  17  20
ATOM     20  O   UNL     1       7.801   5.267  14.935  0.00  0.00    +0.000 OA
ATOM     21  H   UNL     1       7.465   5.958  14.342  0.00  0.00    +0.000 HD
ENDBRANCH  17  20
ENDBRANCH   5  14
BRANCH   1  22
ATOM     22  N   UNL     1       4.024   0.988  18.202  0.00  0.00    +0.000 N 
ATOM     23  H   UNL     1       4.136   0.741  17.224  0.00  0.00    +0.000 HD
ATOM     24  H   UNL     1       4.083   0.186  18.827  0.00  0.00    +0.000 HD
ENDBRANCH   1  22
TORSDOF 4
ENDMDL
MODEL 4
REMARK VINA RESULT:      -8.0      0.989      1.001
REMARK  Name = 
REMARK  4 active torsions:
REMARK  status: ('A' for Active; 'I' for Inactive)
REMARK    1  A    between atoms: N_1  and  C_2
REMARK    2  A    between atoms: C_5  and  C_6
REMARK    3  A    between atoms: C_13  and  C_14
REMARK    4  A    between atoms: C_17  and  O_18
REMARK                            x       y       z     vdW  Elec       q    Type
REMARK                         _______ _______ _______ _____ _____    ______ ____
ROOT
ATOM      1  C   UNL     1       4.126   2.942  19.761  0.00  0.00    +0.000 A 
ATOM      2  N   UNL     1       3.145   3.091  20.699  0.00  0.00    +0.000 N 
ATOM      3  N   UNL     1       2.561   4.292  20.704  0.00  0.00    +0.000 NA
ATOM      4  C   UNL     1       3.145   4.951  19.686  0.00  0.00    +0.000 A 
ATOM      5  C   UNL     1       4.176   4.144  19.071  0.00  0.00    +0.000 A 
ATOM      6  H   UNL     1       2.840   2.406  21.379  0.00  0.00    +0.000 HD
ENDROOT
BRANCH   4   7
ATOM      7  C   UNL     1       2.689   6.307  19.355  0.00  0.00    +0.000 A 
ATOM      8  C   UNL     1       2.934   6.843  18.079  0.00  0.00    +0.000 A 
ATOM      9  C   UNL     1       2.488   8.122  17.737  0.00  0.00    +0.000 A 
ATOM     10  C   UNL     1       1.785   8.880  18.671  0.00  0.00    +0.000 A 
ATOM     11  C   UNL     1       1.557   8.359  19.940  0.00  0.00    +0.000 A 
ATOM     12  F   UNL     1       0.877   9.086  20.836  0.00  0.00    +0.000 F 
ATOM     13  C   UNL     1       2.017   7.096  20.296  0.00  0.00    +0.000 A 
ENDBRANCH   4   7
BRANCH   5  14
ATOM     14  C   UNL     1       5.110   4.442  17.985  0.00  0.00    +0.000 A 
ATOM     15  C   UNL     1       6.283   5.175  18.230  0.00  0.00    +0.000 A 
ATOM     16  C   UNL     1       7.149   5.523  17.187  0.00  0.00    +0.000 A 
ATOM     17  C   UNL     1       6.873   5.089  15.898  0.00  0.00    +0.000 A 
ATOM     18  C   UNL     1       5.739   4.333  15.634  0.00  0.00    +0.000 A 
ATOM     19  C   UNL     1       4.851   4.030  16.670  0.00  0.00    +0.000 A 
BRANCH  17  20
ATOM     20  O   UNL     1       7.695   5.392  14.852  0.00  0.00    +0.000 OA
ATOM     21  H   UNL     1       7.979   4.565  14.432  0.00  0.00    +0.000 HD
ENDBRANCH  17  20
ENDBRANCH   5  14
BRANCH   1  22
ATOM     22  N   UNL     1       4.819   1.786  19.670  0.00  0.00    +0.000 N 
ATOM     23  H   UNL     1       5.829   1.746  19.573  0.00  0.00    +0.000 HD
ATOM     24  H   UNL     1       4.354   0.927  19.381  0.00  0.00    +0.000 HD
ENDBRANCH   1  22
TORSDOF 4
ENDMDL
MODEL 5
REMARK VINA RESULT:      -8.0      1.000      1.822
REMARK  Name = 
REMARK  4 active torsions:
REMARK  status: ('A' for Active; 'I' for Inactive)
REMARK    1  A    between atoms: N_1  and  C_2
REMARK    2  A    between atoms: C_5  and  C_6
REMARK    3  A    between atoms: C_13  and  C_14
REMARK    4  A    between atoms: C_17  and  O_18
REMARK                            x       y       z     vdW  Elec       q    Type
REMARK                         _______ _______ _______ _____ _____    ______ ____
ROOT
ATOM      1  C   UNL     1       3.459   2.069  18.631  0.00  0.00    +0.000 A 
ATOM      2  N   UNL     1       2.419   2.022  19.513  0.00  0.00    +0.000 N 
ATOM      3  N   UNL     1       1.949   3.217  19.881  0.00  0.00    +0.000 NA
ATOM      4  C   UNL     1       2.678   4.095  19.168  0.00  0.00    +0.000 A 
ATOM      5  C   UNL     1       3.680   3.415  18.377  0.00  0.00    +0.000 A 
ATOM      6  H   UNL     1       1.993   1.196  19.914  0.00  0.00    +0.000 HD
ENDROOT
BRANCH   4   7
ATOM      7  C   UNL     1       2.379   5.529  19.276  0.00  0.00    +0.000 A 
ATOM      8  C   UNL     1       1.919   6.065  20.491  0.00  0.00    +0.000 A 
ATOM      9  C   UNL     1       1.652   7.430  20.622  0.00  0.00    +0.000 A 
ATOM     10  C   UNL     1       1.848   8.278  19.534  0.00  0.00    +0.000 A 
ATOM     11  C   UNL     1       2.285   7.748  18.325  0.00  0.00    +0.000 A 
ATOM     12  F   UNL     1       2.478   8.564  17.281  0.00  0.00    +0.000 F 
ATOM     13  C   UNL     1       2.533   6.387  18.180  0.00  0.00    +0.000 A 
ENDBRANCH   4   7
BRANCH   5  14
ATOM     14  C   UNL     1       4.728   3.936  17.499  0.00  0.00    +0.000 A 
ATOM     15  C   UNL     1       4.537   3.985  16.108  0.00  0.00    +0.000 A 
ATOM     16  C   UNL     1       5.558   4.419  15.253  0.00  0.00    +0.000 A 
ATOM     17  C   UNL     1       6.758   4.858  15.793  0.00  0.00    +0.000 A 
ATOM     18  C   UNL     1       6.960   4.853  17.167  0.00  0.00    +0.000 A 
ATOM     19  C   UNL     1       5.957   4.373  18.013  0.00  0.00    +0.000 A 
BRANCH  17  20
ATOM     20  O   UNL     1       7.776   5.301  15.001  0.00  0.00    +0.000 OA
ATOM     21  H   UNL     1       8.610   5.214  15.490  0.00  0.00    +0.000 HD
ENDBRANCH  17  20
ENDBRANCH   5  14
BRANCH   1  22
ATOM     22  N   UNL     1       4.048   0.931  18.202  0.00  0.00    +0.000 N 
ATOM     23  H   UNL     1       3.573   0.235  17.635  0.00  0.00    +0.000 HD
ATOM     24  H   UNL     1       4.873   0.568  18.675  0.00  0.00    +0.000 HD
ENDBRANCH   1  22
TORSDOF 4
ENDMDL
MODEL 6
REMARK VINA RESULT:      -8.0      0.991      1.450
REMARK  Name = 
REMARK  4 active torsions:
REMARK  status: ('A' for Active; 'I' for Inactive)
REMARK    1  A    between atoms: N_1  and  C_2
REMARK    2  A    between atoms: C_5  and  C_6
REMARK    3  A    between atoms: C_13  and  C_14
REMARK    4  A    between atoms: C_17  and  O_18
REMARK                            x       y       z     vdW  Elec       q    Type
REMARK                         _______ _______ _______ _____ _____    ______ ____
ROOT
ATOM      1  C   UNL     1       4.089   2.997  19.736  0.00  0.00    +0.000 A 
ATOM      2  N   UNL     1       3.117   3.123  20.686  0.00  0.00    +0.000 N 
ATOM      3  N   UNL     1       2.522   4.319  20.714  0.00  0.00    +0.000 NA
ATOM      4  C   UNL     1       3.090   4.998  19.700  0.00  0.00    +0.000 A 
ATOM      5  C   UNL     1       4.122   4.210  19.064  0.00  0.00    +0.000 A 
ATOM      6  H   UNL     1       2.823   2.426  21.358  0.00  0.00    +0.000 HD
ENDROOT
BRANCH   4   7
ATOM      7  C   UNL     1       2.619   6.355  19.394  0.00  0.00    +0.000 A 
ATOM      8  C   UNL     1       2.821   6.901  18.114  0.00  0.00    +0.000 A 
ATOM      9  C   UNL     1       2.360   8.181  17.796  0.00  0.00    +0.000 A 
ATOM     10  C   UNL     1       1.684   8.929  18.757  0.00  0.00    +0.000 A 
ATOM     11  C   UNL     1       1.499   8.399  20.029  0.00  0.00    +0.000 A 
ATOM     12  F   UNL     1       0.846   9.117  20.952  0.00  0.00    +0.000 F 
ATOM     13  C   UNL     1       1.975   7.135  20.361  0.00  0.00    +0.000 A 
ENDBRANCH   4   7
BRANCH   5  14
ATOM     14  C   UNL     1       5.043   4.532  17.973  0.00  0.00    +0.000 A 
ATOM     15  C   UNL     1       4.779   4.102  16.662  0.00  0.00    +0.000 A 
ATOM     16  C   UNL     1       5.686   4.347  15.624  0.00  0.00    +0.000 A 
ATOM     17  C   UNL     1       6.839   5.075  15.884  0.00  0.00    +0.000 A 
ATOM     18  C   UNL     1       7.107   5.543  17.163  0.00  0.00    +0.000 A 
ATOM     19  C   UNL     1       6.223   5.254  18.207  0.00  0.00    +0.000 A 
BRANCH  17  20
ATOM     20  O   UNL     1       7.744   5.349  14.902  0.00  0.00    +0.000 OA
ATOM     21  H   UNL     1       8.620   5.050  15.196  0.00  0.00    +0.000 HD
ENDBRANCH  17  20
ENDBRANCH   5  14
BRANCH   1  22
ATOM     22  N   UNL     1       4.792   1.848  19.622  0.00  0.00    +0.000 N 
ATOM     23  H   UNL     1       5.360   1.463  20.370  0.00  0.00    +0.000 HD
ATOM     24  H   UNL     1       5.039   1.485  18.703  0.00  0.00    +0.000 HD
ENDBRANCH   1  22
TORSDOF 4
ENDMDL
MODEL 7
REMARK VINA RESULT:      -7.7      3.048      5.384
REMARK  Name = 
REMARK  4 active torsions:
REMARK  status: ('A' for Active; 'I' for Inactive)
REMARK    1  A    between atoms: N_1  and  C_2
REMARK    2  A    between atoms: C_5  and  C_6
REMARK    3  A    between atoms: C_13  and  C_14
REMARK    4  A    between atoms: C_17  and  O_18
REMARK                            x       y       z     vdW  Elec       q    Type
REMARK                         _______ _______ _______ _____ _____    ______ ____
ROOT
ATOM      1  C   UNL     1       1.596   2.915  19.087  0.00  0.00    +0.000 A 
ATOM      2  N   UNL     1       2.154   1.771  18.596  0.00  0.00    +0.000 N 
ATOM      3  N   UNL     1       3.322   1.948  17.972  0.00  0.00    +0.000 NA
ATOM      4  C   UNL     1       3.574   3.263  18.103  0.00  0.00    +0.000 A 
ATOM      5  C   UNL     1       2.486   3.934  18.779  0.00  0.00    +0.000 A 
ATOM      6  H   UNL     1       1.773   0.834  18.644  0.00  0.00    +0.000 HD
ENDROOT
BRANCH   4   7
ATOM      7  C   UNL     1       4.835   3.807  17.580  0.00  0.00    +0.000 A 
ATOM      8  C   UNL     1       5.761   4.405  18.451  0.00  0.00    +0.000 A 
ATOM      9  C   UNL     1       6.976   4.907  17.977  0.00  0.00    +0.000 A 
ATOM     10  C   UNL     1       7.279   4.810  16.621  0.00  0.00    +0.000 A 
ATOM     11  C   UNL     1       6.357   4.236  15.755  0.00  0.00    +0.000 A 
ATOM     12  F   UNL     1       6.651   4.139  14.451  0.00  0.00    +0.000 F 
ATOM     13  C   UNL     1       5.136   3.754  16.214  0.00  0.00    +0.000 A 
ENDBRANCH   4   7
BRANCH   5  14
ATOM     14  C   UNL     1       2.277   5.347  19.097  0.00  0.00    +0.000 A 
ATOM     15  C   UNL     1       1.905   5.741  20.393  0.00  0.00    +0.000 A 
ATOM     16  C   UNL     1       1.637   7.082  20.692  0.00  0.00    +0.000 A 
ATOM     17  C   UNL     1       1.795   8.045  19.705  0.00  0.00    +0.000 A 
ATOM     18  C   UNL     1       2.197   7.687  18.425  0.00  0.00    +0.000 A 
ATOM     19  C   UNL     1       2.415   6.341  18.118  0.00  0.00    +0.000 A 
BRANCH  17  20
ATOM     20  O   UNL     1       1.559   9.365  19.953  0.00  0.00    +0.000 OA
ATOM     21  H   UNL     1       2.411   9.817  20.065  0.00  0.00    +0.000 HD
ENDBRANCH  17  20
ENDBRANCH   5  14
BRANCH   1  22
ATOM     22  N   UNL     1       0.399   2.882  19.713  0.00  0.00    +0.000 N 
ATOM     23  H   UNL     1      -0.284   3.631  19.654  0.00  0.00    +0.000 HD
ATOM     24  H   UNL     1       0.251   2.266  20.510  0.00  0.00    +0.000 HD
ENDBRANCH   1  22
TORSDOF 4
ENDMDL
MODEL 8
REMARK VINA RESULT:      -7.7      2.747      5.127
REMARK  Name = 
REMARK  4 active torsions:
REMARK  status: ('A' for Active; 'I' for Inactive)
REMARK    1  A    between atoms: N_1  and  C_2
REMARK    2  A    between atoms: C_5  and  C_6
REMARK    3  A    between atoms: C_13  and  C_14
REMARK    4  A    between atoms: C_17  and  O_18
REMARK                            x       y       z     vdW  Elec       q    Type
REMARK                         _______ _______ _______ _____ _____    ______ ____
ROOT
ATOM      1  C   UNL     1       1.638   2.938  19.098  0.00  0.00    +0.000 A 
ATOM      2  N   UNL     1       2.193   1.803  18.580  0.00  0.00    +0.000 N 
ATOM      3  N   UNL     1       3.329   2.000  17.906  0.00  0.00    +0.000 NA
ATOM      4  C   UNL     1       3.565   3.320  18.028  0.00  0.00    +0.000 A 
ATOM      5  C   UNL     1       2.497   3.972  18.753  0.00  0.00    +0.000 A 
ATOM      6  H   UNL     1       1.831   0.860  18.643  0.00  0.00    +0.000 HD
ENDROOT
BRANCH   4   7
ATOM      7  C   UNL     1       4.792   3.885  17.451  0.00  0.00    +0.000 A 
ATOM      8  C   UNL     1       4.946   3.963  16.057  0.00  0.00    +0.000 A 
ATOM      9  C   UNL     1       6.095   4.518  15.489  0.00  0.00    +0.000 A 
ATOM     10  C   UNL     1       7.104   5.008  16.314  0.00  0.00    +0.000 A 
ATOM     11  C   UNL     1       6.963   4.915  17.694  0.00  0.00    +0.000 A 
ATOM     12  F   UNL     1       7.932   5.391  18.488  0.00  0.00    +0.000 F 
ATOM     13  C   UNL     1       5.832   4.344  18.268  0.00  0.00    +0.000 A 
ENDBRANCH   4   7
BRANCH   5  14
ATOM     14  C   UNL     1       2.279   5.380  19.083  0.00  0.00    +0.000 A 
ATOM     15  C   UNL     1       1.897   5.760  20.381  0.00  0.00    +0.000 A 
ATOM     16  C   UNL     1       1.621   7.097  20.690  0.00  0.00    +0.000 A 
ATOM     17  C   UNL     1       1.780   8.070  19.714  0.00  0.00    +0.000 A 
ATOM     18  C   UNL     1       2.191   7.726  18.433  0.00  0.00    +0.000 A 
ATOM     19  C   UNL     1       2.418   6.384  18.114  0.00  0.00    +0.000 A 
BRANCH  17  20
ATOM     20  O   UNL     1       1.535   9.387  19.972  0.00  0.00    +0.000 OA
ATOM     21  H   UNL     1       0.710   9.641  19.529  0.00  0.00    +0.000 HD
ENDBRANCH  17  20
ENDBRANCH   5  14
BRANCH   1  22
ATOM     22  N   UNL     1       0.471   2.883  19.776  0.00  0.00    +0.000 N 
ATOM     23  H   UNL     1       0.349   2.360  20.638  0.00  0.00    +0.000 HD
ATOM     24  H   UNL     1      -0.408   3.094  19.308  0.00  0.00    +0.000 HD
ENDBRANCH   1  22
TORSDOF 4
ENDMDL
MODEL 9
REMARK VINA RESULT:      -7.6      2.743      5.163
REMARK  Name = 
REMARK  4 active torsions:
REMARK  status: ('A' for Active; 'I' for Inactive)
REMARK    1  A    between atoms: N_1  and  C_2
REMARK    2  A    between atoms: C_5  and  C_6
REMARK    3  A    between atoms: C_13  and  C_14
REMARK    4  A    between atoms: C_17  and  O_18
REMARK                            x       y       z     vdW  Elec       q    Type
REMARK                         _______ _______ _______ _____ _____    ______ ____
ROOT
ATOM      1  C   UNL     1       1.704   2.856  19.080  0.00  0.00    +0.000 A 
ATOM      2  N   UNL     1       2.307   1.744  18.565  0.00  0.00    +0.000 N 
ATOM      3  N   UNL     1       3.444   1.985  17.909  0.00  0.00    +0.000 NA
ATOM      4  C   UNL     1       3.632   3.311  18.040  0.00  0.00    +0.000 A 
ATOM      5  C   UNL     1       2.531   3.921  18.752  0.00  0.00    +0.000 A 
ATOM      6  H   UNL     1       1.977   0.789  18.619  0.00  0.00    +0.000 HD
ENDROOT
BRANCH   4   7
ATOM      7  C   UNL     1       4.846   3.922  17.484  0.00  0.00    +0.000 A 
ATOM      8  C   UNL     1       5.002   4.045  16.093  0.00  0.00    +0.000 A 
ATOM      9  C   UNL     1       6.139   4.644  15.545  0.00  0.00    +0.000 A 
ATOM     10  C   UNL     1       7.134   5.133  16.388  0.00  0.00    +0.000 A 
ATOM     11  C   UNL     1       6.991   4.996  17.764  0.00  0.00    +0.000 A 
ATOM     12  F   UNL     1       7.947   5.470  18.574  0.00  0.00    +0.000 F 
ATOM     13  C   UNL     1       5.873   4.381  18.317  0.00  0.00    +0.000 A 
ENDBRANCH   4   7
BRANCH   5  14
ATOM     14  C   UNL     1       2.258   5.319  19.085  0.00  0.00    +0.000 A 
ATOM     15  C   UNL     1       2.379   6.324  18.110  0.00  0.00    +0.000 A 
ATOM     16  C   UNL     1       2.185   7.672  18.434  0.00  0.00    +0.000 A 
ATOM     17  C   UNL     1       1.814   8.017  19.725  0.00  0.00    +0.000 A 
ATOM     18  C   UNL     1       1.652   7.040  20.699  0.00  0.00    +0.000 A 
ATOM     19  C   UNL     1       1.895   5.700  20.385  0.00  0.00    +0.000 A 
BRANCH  17  20
ATOM     20  O   UNL     1       1.601   9.315  20.083  0.00  0.00    +0.000 OA
ATOM     21  H   UNL     1       1.015   9.726  19.427  0.00  0.00    +0.000 HD
ENDBRANCH  17  20
ENDBRANCH   5  14
BRANCH   1  22
ATOM     22  N   UNL     1       0.529   2.757  19.740  0.00  0.00    +0.000 N 
ATOM     23  H   UNL     1       0.410   2.213  20.589  0.00  0.00    +0.000 HD
ATOM     24  H   UNL     1      -0.348   2.955  19.264  0.00  0.00    +0.000 HD
ENDBRANCH   1  22
TORSDOF 4
ENDMDL
