MODEL 1
REMARK VINA RESULT:      -7.6      0.000      0.000
REMARK  Name = 
REMARK  7 active torsions:
REMARK  status: ('A' for Active; 'I' for Inactive)
REMARK    1  A    between atoms: C_1  and  C_2
REMARK    2  A    between atoms: C_2  and  C_3
REMARK    3  A    between atoms: C_10  and  C_11
REMARK    4  A    between atoms: C_11  and  O_12
REMARK    5  A    between atoms: C_11  and  C_13
REMARK    6  A    between atoms: C_20  and  O_21
REMARK    7  A    between atoms: O_21  and  C_22
REMARK                            x       y       z     vdW  Elec       q    Type
REMARK                         _______ _______ _______ _____ _____    ______ ____
ROOT
ATOM      1  C   UNL     1       2.891   5.922  20.160  0.00  0.00    +0.000 C 
ENDROOT
BRANCH   1   2
ATOM      2  C   UNL     1       2.637   7.149  19.290  0.00  0.00    +0.000 A 
ATOM      3  C   UNL     1       3.237   7.281  18.033  0.00  0.00    +0.000 A 
ATOM      4  C   UNL     1       2.873   8.340  17.222  0.00  0.00    +0.000 A 
ATOM      5  N   UNL     1       1.949   9.261  17.554  0.00  0.00    +0.000 NA
ATOM      6  C   UNL     1       1.387   9.174  18.768  0.00  0.00    +0.000 A 
ATOM      7  C   UNL     1       0.404  10.099  19.109  0.00  0.00    +0.000 A 
ATOM      8  C   UNL     1      -0.220  10.099  20.364  0.00  0.00    +0.000 A 
ATOM      9  C   UNL     1       0.175   9.178  21.319  0.00  0.00    +0.000 A 
ATOM     10  C   UNL     1       1.157   8.246  20.993  0.00  0.00    +0.000 A 
ATOM     11  C   UNL     1       1.736   8.174  19.703  0.00  0.00    +0.000 A 
BRANCH   9  12
ATOM     12  O   UNL     1      -0.319   9.055  22.588  0.00  0.00    +0.000 OA
ATOM     13  C   UNL     1      -0.867  10.213  23.200  0.00  0.00    +0.000 C 
ENDBRANCH   9  12
ENDBRANCH   1   2
BRANCH   1  21
ATOM     14  C   UNL     1       3.348   2.974  17.703  0.00  0.00    +0.000 C 
ATOM     15  C   UNL     1       3.870   3.099  19.158  0.00  0.00    +0.000 C 
ATOM     16  N   UNL     1       2.778   3.327  20.135  0.00  0.00    +0.000 NA
ATOM     17  C   UNL     1       1.799   2.226  20.019  0.00  0.00    +0.000 C 
ATOM     18  C   UNL     1       1.188   2.159  18.611  0.00  0.00    +0.000 C 
ATOM     19  C   UNL     1       1.825   3.244  17.719  0.00  0.00    +0.000 C 
ATOM     20  C   UNL     1       1.552   4.609  18.377  0.00  0.00    +0.000 C 
ATOM     21  C   UNL     1       2.079   4.613  19.841  0.00  0.00    +0.000 C 
BRANCH  14  23
ATOM     22  C   UNL     1       5.530   4.287  17.306  0.00  0.00    +0.000 C 
ATOM     23  C   UNL     1       4.174   3.866  16.757  0.00  0.00    +0.000 C 
ENDBRANCH  14  23
ENDBRANCH   1  21
BRANCH   1  24
ATOM     24  O   UNL     1       4.291   5.627  20.115  0.00  0.00    +0.000 OA
ATOM     25  H   UNL     1       4.385   4.750  19.705  0.00  0.00    +0.000 HD
ENDBRANCH   1  24
TORSDOF 5
ENDMDL
MODEL 2
REMARK VINA RESULT:      -7.5      2.379      4.854
REMARK  Name = 
REMARK  7 active torsions:
REMARK  status: ('A' for Active; 'I' for Inactive)
REMARK    1  A    between atoms: C_1  and  C_2
REMARK    2  A    between atoms: C_2  and  C_3
REMARK    3  A    between atoms: C_10  and  C_11
REMARK    4  A    between atoms: C_11  and  O_12
REMARK    5  A    between atoms: C_11  and  C_13
REMARK    6  A    between atoms: C_20  and  O_21
REMARK    7  A    between atoms: O_21  and  C_22
REMARK                            x       y       z     vdW  Elec       q    Type
REMARK                         _______ _______ _______ _____ _____    ______ ____
ROOT
ATOM      1  C   UNL     1       3.914   3.914  17.607  0.00  0.00    +0.000 C 
ENDROOT
BRANCH   1   2
ATOM      2  C   UNL     1       2.933   3.961  18.774  0.00  0.00    +0.000 A 
ATOM      3  C   UNL     1       2.563   2.796  19.455  0.00  0.00    +0.000 A 
ATOM      4  C   UNL     1       1.781   2.901  20.591  0.00  0.00    +0.000 A 
ATOM      5  N   UNL     1       1.358   4.069  21.109  0.00  0.00    +0.000 NA
ATOM      6  C   UNL     1       1.671   5.195  20.453  0.00  0.00    +0.000 A 
ATOM      7  C   UNL     1       1.270   6.411  20.999  0.00  0.00    +0.000 A 
ATOM      8  C   UNL     1       1.532   7.636  20.371  0.00  0.00    +0.000 A 
ATOM      9  C   UNL     1       2.175   7.646  19.145  0.00  0.00    +0.000 A 
ATOM     10  C   UNL     1       2.582   6.438  18.585  0.00  0.00    +0.000 A 
ATOM     11  C   UNL     1       2.405   5.199  19.246  0.00  0.00    +0.000 A 
BRANCH   9  12
ATOM     12  O   UNL     1       2.489   8.747  18.397  0.00  0.00    +0.000 OA
ATOM     13  C   UNL     1       1.469   9.709  18.173  0.00  0.00    +0.000 C 
ENDBRANCH   9  12
ENDBRANCH   1   2
BRANCH   1  21
ATOM     14  C   UNL     1       6.546   5.054  15.017  0.00  0.00    +0.000 C 
ATOM     15  C   UNL     1       5.173   5.700  15.335  0.00  0.00    +0.000 C 
ATOM     16  N   UNL     1       5.047   6.092  16.759  0.00  0.00    +0.000 NA
ATOM     17  C   UNL     1       6.153   7.012  17.098  0.00  0.00    +0.000 C 
ATOM     18  C   UNL     1       7.523   6.347  16.894  0.00  0.00    +0.000 C 
ATOM     19  C   UNL     1       7.328   4.920  16.343  0.00  0.00    +0.000 C 
ATOM     20  C   UNL     1       6.481   4.138  17.364  0.00  0.00    +0.000 C 
ATOM     21  C   UNL     1       5.146   4.891  17.640  0.00  0.00    +0.000 C 
BRANCH  14  23
ATOM     22  C   UNL     1       6.450   3.908  12.709  0.00  0.00    +0.000 C 
ATOM     23  C   UNL     1       6.354   3.749  14.220  0.00  0.00    +0.000 C 
ENDBRANCH  14  23
ENDBRANCH   1  21
BRANCH   1  24
ATOM     24  O   UNL     1       4.387   2.568  17.476  0.00  0.00    +0.000 OA
ATOM     25  H   UNL     1       3.820   2.011  18.038  0.00  0.00    +0.000 HD
ENDBRANCH   1  24
TORSDOF 5
ENDMDL
MODEL 3
REMARK VINA RESULT:      -7.3      2.531      4.579
REMARK  Name = 
REMARK  7 active torsions:
REMARK  status: ('A' for Active; 'I' for Inactive)
REMARK    1  A    between atoms: C_1  and  C_2
REMARK    2  A    between atoms: C_2  and  C_3
REMARK    3  A    between atoms: C_10  and  C_11
REMARK    4  A    between atoms: C_11  and  O_12
REMARK    5  A    between atoms: C_11  and  C_13
REMARK    6  A    between atoms: C_20  and  O_21
REMARK    7  A    between atoms: O_21  and  C_22
REMARK                            x       y       z     vdW  Elec       q    Type
REMARK                         _______ _______ _______ _____ _____    ______ ____
ROOT
ATOM      1  C   UNL     1       3.393   4.638  17.321  0.00  0.00    +0.000 C 
ENDROOT
BRANCH   1   2
ATOM      2  C   UNL     1       2.644   4.899  18.625  0.00  0.00    +0.000 A 
ATOM      3  C   UNL     1       2.397   3.866  19.535  0.00  0.00    +0.000 A 
ATOM      4  C   UNL     1       1.838   4.172  20.763  0.00  0.00    +0.000 A 
ATOM      5  N   UNL     1       1.528   5.420  21.160  0.00  0.00    +0.000 NA
ATOM      6  C   UNL     1       1.724   6.420  20.290  0.00  0.00    +0.000 A 
ATOM      7  C   UNL     1       1.440   7.720  20.702  0.00  0.00    +0.000 A 
ATOM      8  C   UNL     1       1.592   8.824  19.852  0.00  0.00    +0.000 A 
ATOM      9  C   UNL     1       1.999   8.623  18.544  0.00  0.00    +0.000 A 
ATOM     10  C   UNL     1       2.286   7.329  18.116  0.00  0.00    +0.000 A 
ATOM     11  C   UNL     1       2.223   6.213  18.984  0.00  0.00    +0.000 A 
BRANCH   9  12
ATOM     12  O   UNL     1       2.179   9.584  17.588  0.00  0.00    +0.000 OA
ATOM     13  C   UNL     1       2.038  10.942  17.980  0.00  0.00    +0.000 C 
ENDBRANCH   9  12
ENDBRANCH   1   2
BRANCH   1  21
ATOM     14  C   UNL     1       6.109   4.889  14.583  0.00  0.00    +0.000 C 
ATOM     15  C   UNL     1       5.324   6.041  15.264  0.00  0.00    +0.000 C 
ATOM     16  N   UNL     1       5.493   6.050  16.736  0.00  0.00    +0.000 NA
ATOM     17  C   UNL     1       6.935   6.138  17.049  0.00  0.00    +0.000 C 
ATOM     18  C   UNL     1       7.712   4.943  16.476  0.00  0.00    +0.000 C 
ATOM     19  C   UNL     1       6.747   4.026  15.696  0.00  0.00    +0.000 C 
ATOM     20  C   UNL     1       5.654   3.558  16.676  0.00  0.00    +0.000 C 
ATOM     21  C   UNL     1       4.959   4.788  17.329  0.00  0.00    +0.000 C 
BRANCH  14  23
ATOM     22  C   UNL     1       5.949   3.380  12.499  0.00  0.00    +0.000 C 
ATOM     23  C   UNL     1       5.204   4.135  13.590  0.00  0.00    +0.000 C 
ENDBRANCH  14  23
ENDBRANCH   1  21
BRANCH   1  24
ATOM     24  O   UNL     1       3.051   3.323  16.867  0.00  0.00    +0.000 OA
ATOM     25  H   UNL     1       3.884   2.870  16.651  0.00  0.00    +0.000 HD
ENDBRANCH   1  24
TORSDOF 5
ENDMDL
MODEL 4
REMARK VINA RESULT:      -6.9      2.595      4.322
REMARK  Name = 
REMARK  7 active torsions:
REMARK  status: ('A' for Active; 'I' for Inactive)
REMARK    1  A    between atoms: C_1  and  C_2
REMARK    2  A    between atoms: C_2  and  C_3
REMARK    3  A    between atoms: C_10  and  C_11
REMARK    4  A    between atoms: C_11  and  O_12
REMARK    5  A    between atoms: C_11  and  C_13
REMARK    6  A    between atoms: C_20  and  O_21
REMARK    7  A    between atoms: O_21  and  C_22
REMARK                            x       y       z     vdW  Elec       q    Type
REMARK                         _______ _______ _______ _____ _____    ______ ____
ROOT
ATOM      1  C   UNL     1       3.804   6.048  17.856  0.00  0.00    +0.000 C 
ENDROOT
BRANCH   1   2
ATOM      2  C   UNL     1       2.759   6.296  18.939  0.00  0.00    +0.000 A 
ATOM      3  C   UNL     1       2.392   5.286  19.834  0.00  0.00    +0.000 A 
ATOM      4  C   UNL     1       1.546   5.592  20.884  0.00  0.00    +0.000 A 
ATOM      5  N   UNL     1       1.056   6.824  21.123  0.00  0.00    +0.000 NA
ATOM      6  C   UNL     1       1.367   7.799  20.258  0.00  0.00    +0.000 A 
ATOM      7  C   UNL     1       0.896   9.084  20.514  0.00  0.00    +0.000 A 
ATOM      8  C   UNL     1       1.152  10.160  19.652  0.00  0.00    +0.000 A 
ATOM      9  C   UNL     1       1.861   9.940  18.484  0.00  0.00    +0.000 A 
ATOM     10  C   UNL     1       2.338   8.660  18.213  0.00  0.00    +0.000 A 
ATOM     11  C   UNL     1       2.166   7.581  19.113  0.00  0.00    +0.000 A 
BRANCH   9  12
ATOM     12  O   UNL     1       2.179  10.872  17.535  0.00  0.00    +0.000 OA
ATOM     13  C   UNL     1       2.479  12.188  17.974  0.00  0.00    +0.000 C 
ENDBRANCH   9  12
ENDBRANCH   1   2
BRANCH   1  21
ATOM     14  C   UNL     1       7.054   4.721  16.241  0.00  0.00    +0.000 C 
ATOM     15  C   UNL     1       6.430   6.134  16.114  0.00  0.00    +0.000 C 
ATOM     16  N   UNL     1       6.254   6.797  17.429  0.00  0.00    +0.000 NA
ATOM     17  C   UNL     1       7.566   6.859  18.108  0.00  0.00    +0.000 C 
ATOM     18  C   UNL     1       8.148   5.457  18.342  0.00  0.00    +0.000 C 
ATOM     19  C   UNL     1       7.199   4.397  17.746  0.00  0.00    +0.000 C 
ATOM     20  C   UNL     1       5.833   4.552  18.439  0.00  0.00    +0.000 C 
ATOM     21  C   UNL     1       5.317   6.012  18.286  0.00  0.00    +0.000 C 
BRANCH  14  23
ATOM     22  C   UNL     1       5.541   4.287  14.199  0.00  0.00    +0.000 C 
ATOM     23  C   UNL     1       6.249   3.701  15.413  0.00  0.00    +0.000 C 
ENDBRANCH  14  23
ENDBRANCH   1  21
BRANCH   1  24
ATOM     24  O   UNL     1       3.476   4.821  17.194  0.00  0.00    +0.000 OA
ATOM     25  H   UNL     1       4.301   4.313  17.109  0.00  0.00    +0.000 HD
ENDBRANCH   1  24
TORSDOF 5
ENDMDL
MODEL 5
REMARK VINA RESULT:      -6.9      3.477      6.222
REMARK  Name = 
REMARK  7 active torsions:
REMARK  status: ('A' for Active; 'I' for Inactive)
REMARK    1  A    between atoms: C_1  and  C_2
REMARK    2  A    between atoms: C_2  and  C_3
REMARK    3  A    between atoms: C_10  and  C_11
REMARK    4  A    between atoms: C_11  and  O_12
REMARK    5  A    between atoms: C_11  and  C_13
REMARK    6  A    between atoms: C_20  and  O_21
REMARK    7  A    between atoms: O_21  and  C_22
REMARK                            x       y       z     vdW  Elec       q    Type
REMARK                         _______ _______ _______ _____ _____    ______ ____
ROOT
ATOM      1  C   UNL     1       2.924   5.765  17.881  0.00  0.00    +0.000 C 
ENDROOT
BRANCH   1   2
ATOM      2  C   UNL     1       4.421   5.545  18.071  0.00  0.00    +0.000 A 
ATOM      3  C   UNL     1       5.027   5.730  19.318  0.00  0.00    +0.000 A 
ATOM      4  C   UNL     1       6.357   5.388  19.477  0.00  0.00    +0.000 A 
ATOM      5  N   UNL     1       7.122   4.861  18.502  0.00  0.00    +0.000 NA
ATOM      6  C   UNL     1       6.572   4.708  17.290  0.00  0.00    +0.000 A 
ATOM      7  C   UNL     1       7.341   4.130  16.283  0.00  0.00    +0.000 A 
ATOM      8  C   UNL     1       6.857   3.954  14.980  0.00  0.00    +0.000 A 
ATOM      9  C   UNL     1       5.587   4.402  14.661  0.00  0.00    +0.000 A 
ATOM     10  C   UNL     1       4.805   4.983  15.656  0.00  0.00    +0.000 A 
ATOM     11  C   UNL     1       5.243   5.089  16.998  0.00  0.00    +0.000 A 
BRANCH   9  12
ATOM     12  O   UNL     1       4.975   4.322  13.440  0.00  0.00    +0.000 OA
ATOM     13  C   UNL     1       5.580   3.505  12.449  0.00  0.00    +0.000 C 
ENDBRANCH   9  12
ENDBRANCH   1   2
BRANCH   1  21
ATOM     14  C   UNL     1       3.046   2.450  19.864  0.00  0.00    +0.000 C 
ATOM     15  C   UNL     1       2.429   3.805  20.299  0.00  0.00    +0.000 C 
ATOM     16  N   UNL     1       1.387   4.281  19.359  0.00  0.00    +0.000 NA
ATOM     17  C   UNL     1       0.343   3.241  19.239  0.00  0.00    +0.000 C 
ATOM     18  C   UNL     1       0.919   1.922  18.702  0.00  0.00    +0.000 C 
ATOM     19  C   UNL     1       2.440   2.070  18.494  0.00  0.00    +0.000 C 
ATOM     20  C   UNL     1       2.665   3.219  17.494  0.00  0.00    +0.000 C 
ATOM     21  C   UNL     1       1.974   4.517  18.007  0.00  0.00    +0.000 C 
BRANCH  14  23
ATOM     22  C   UNL     1       5.234   1.475  20.817  0.00  0.00    +0.000 C 
ATOM     23  C   UNL     1       4.585   2.518  19.919  0.00  0.00    +0.000 C 
ENDBRANCH  14  23
ENDBRANCH   1  21
BRANCH   1  24
ATOM     24  O   UNL     1       2.500   6.770  18.809  0.00  0.00    +0.000 OA
ATOM     25  H   UNL     1       3.078   6.702  19.588  0.00  0.00    +0.000 HD
ENDBRANCH   1  24
TORSDOF 5
ENDMDL
MODEL 6
REMARK VINA RESULT:      -6.8      3.594      7.086
REMARK  Name = 
REMARK  7 active torsions:
REMARK  status: ('A' for Active; 'I' for Inactive)
REMARK    1  A    between atoms: C_1  and  C_2
REMARK    2  A    between atoms: C_2  and  C_3
REMARK    3  A    between atoms: C_10  and  C_11
REMARK    4  A    between atoms: C_11  and  O_12
REMARK    5  A    between atoms: C_11  and  C_13
REMARK    6  A    between atoms: C_20  and  O_21
REMARK    7  A    between atoms: O_21  and  C_22
REMARK                            x       y       z     vdW  Elec       q    Type
REMARK                         _______ _______ _______ _____ _____    ______ ____
ROOT
ATOM      1  C   UNL     1       4.000   4.320  16.922  0.00  0.00    +0.000 C 
ENDROOT
BRANCH   1   2
ATOM      2  C   UNL     1       5.229   5.052  16.391  0.00  0.00    +0.000 A 
ATOM      3  C   UNL     1       5.920   5.975  17.184  0.00  0.00    +0.000 A 
ATOM      4  C   UNL     1       7.105   6.510  16.714  0.00  0.00    +0.000 A 
ATOM      5  N   UNL     1       7.663   6.186  15.533  0.00  0.00    +0.000 NA
ATOM      6  C   UNL     1       7.001   5.330  14.742  0.00  0.00    +0.000 A 
ATOM      7  C   UNL     1       7.586   4.958  13.534  0.00  0.00    +0.000 A 
ATOM      8  C   UNL     1       6.955   4.089  12.634  0.00  0.00    +0.000 A 
ATOM      9  C   UNL     1       5.690   3.608  12.928  0.00  0.00    +0.000 A 
ATOM     10  C   UNL     1       5.091   3.971  14.131  0.00  0.00    +0.000 A 
ATOM     11  C   UNL     1       5.748   4.777  15.092  0.00  0.00    +0.000 A 
BRANCH   9  12
ATOM     12  O   UNL     1       4.936   2.770  12.154  0.00  0.00    +0.000 OA
ATOM     13  C   UNL     1       4.099   3.354  11.166  0.00  0.00    +0.000 C 
ENDBRANCH   9  12
ENDBRANCH   1   2
BRANCH   1  21
ATOM     14  C   UNL     1       1.839   2.851  19.769  0.00  0.00    +0.000 C 
ATOM     15  C   UNL     1       1.942   2.370  18.298  0.00  0.00    +0.000 C 
ATOM     16  N   UNL     1       3.328   2.015  17.912  0.00  0.00    +0.000 NA
ATOM     17  C   UNL     1       3.829   0.980  18.841  0.00  0.00    +0.000 C 
ATOM     18  C   UNL     1       3.840   1.480  20.293  0.00  0.00    +0.000 C 
ATOM     19  C   UNL     1       3.271   2.913  20.350  0.00  0.00    +0.000 C 
ATOM     20  C   UNL     1       4.153   3.801  19.452  0.00  0.00    +0.000 C 
ATOM     21  C   UNL     1       4.218   3.209  18.014  0.00  0.00    +0.000 C 
BRANCH  14  23
ATOM     22  C   UNL     1       1.567   5.177  20.845  0.00  0.00    +0.000 C 
ATOM     23  C   UNL     1       1.027   4.157  19.852  0.00  0.00    +0.000 C 
ENDBRANCH  14  23
ENDBRANCH   1  21
BRANCH   1  24
ATOM     24  O   UNL     1       3.083   5.298  17.426  0.00  0.00    +0.000 OA
ATOM     25  H   UNL     1       2.559   4.867  18.122  0.00  0.00    +0.000 HD
ENDBRANCH   1  24
TORSDOF 5
ENDMDL
MODEL 7
REMARK VINA RESULT:      -6.8      1.106      1.537
REMARK  Name = 
REMARK  7 active torsions:
REMARK  status: ('A' for Active; 'I' for Inactive)
REMARK    1  A    between atoms: C_1  and  C_2
REMARK    2  A    between atoms: C_2  and  C_3
REMARK    3  A    between atoms: C_10  and  C_11
REMARK    4  A    between atoms: C_11  and  O_12
REMARK    5  A    between atoms: C_11  and  C_13
REMARK    6  A    between atoms: C_20  and  O_21
REMARK    7  A    between atoms: O_21  and  C_22
REMARK                            x       y       z     vdW  Elec       q    Type
REMARK                         _______ _______ _______ _____ _____    ______ ____
ROOT
ATOM      1  C   UNL     1       2.614   6.054  19.861  0.00  0.00    +0.000 C 
ENDROOT
BRANCH   1   2
ATOM      2  C   UNL     1       2.450   7.393  19.147  0.00  0.00    +0.000 A 
ATOM      3  C   UNL     1       3.136   7.667  17.959  0.00  0.00    +0.000 A 
ATOM      4  C   UNL     1       2.854   8.835  17.274  0.00  0.00    +0.000 A 
ATOM      5  N   UNL     1       1.934   9.735  17.667  0.00  0.00    +0.000 NA
ATOM      6  C   UNL     1       1.290   9.510  18.820  0.00  0.00    +0.000 A 
ATOM      7  C   UNL     1       0.310  10.416  19.218  0.00  0.00    +0.000 A 
ATOM      8  C   UNL     1      -0.396  10.273  20.420  0.00  0.00    +0.000 A 
ATOM      9  C   UNL     1      -0.090   9.222  21.267  0.00  0.00    +0.000 A 
ATOM     10  C   UNL     1       0.888   8.307  20.884  0.00  0.00    +0.000 A 
ATOM     11  C   UNL     1       1.550   8.385  19.635  0.00  0.00    +0.000 A 
BRANCH   9  12
ATOM     12  O   UNL     1      -0.670   8.951  22.476  0.00  0.00    +0.000 OA
ATOM     13  C   UNL     1      -0.234   9.699  23.602  0.00  0.00    +0.000 C 
ENDBRANCH   9  12
ENDBRANCH   1   2
BRANCH   1  21
ATOM     14  C   UNL     1       3.000   2.209  19.904  0.00  0.00    +0.000 C 
ATOM     15  C   UNL     1       2.360   3.120  20.984  0.00  0.00    +0.000 C 
ATOM     16  N   UNL     1       1.239   3.931  20.450  0.00  0.00    +0.000 NA
ATOM     17  C   UNL     1       0.232   3.021  19.864  0.00  0.00    +0.000 C 
ATOM     18  C   UNL     1       0.823   2.189  18.716  0.00  0.00    +0.000 C 
ATOM     19  C   UNL     1       2.319   2.524  18.552  0.00  0.00    +0.000 C 
ATOM     20  C   UNL     1       2.431   4.031  18.258  0.00  0.00    +0.000 C 
ATOM     21  C   UNL     1       1.725   4.849  19.378  0.00  0.00    +0.000 C 
BRANCH  14  23
ATOM     22  C   UNL     1       5.239   1.414  20.903  0.00  0.00    +0.000 C 
ATOM     23  C   UNL     1       4.535   2.345  19.927  0.00  0.00    +0.000 C 
ENDBRANCH  14  23
ENDBRANCH   1  21
BRANCH   1  24
ATOM     24  O   UNL     1       3.993   5.677  19.789  0.00  0.00    +0.000 OA
ATOM     25  H   UNL     1       4.426   6.025  20.588  0.00  0.00    +0.000 HD
ENDBRANCH   1  24
TORSDOF 5
ENDMDL
MODEL 8
REMARK VINA RESULT:      -6.7      3.376      6.527
REMARK  Name = 
REMARK  7 active torsions:
REMARK  status: ('A' for Active; 'I' for Inactive)
REMARK    1  A    between atoms: C_1  and  C_2
REMARK    2  A    between atoms: C_2  and  C_3
REMARK    3  A    between atoms: C_10  and  C_11
REMARK    4  A    between atoms: C_11  and  O_12
REMARK    5  A    between atoms: C_11  and  C_13
REMARK    6  A    between atoms: C_20  and  O_21
REMARK    7  A    between atoms: O_21  and  C_22
REMARK                            x       y       z     vdW  Elec       q    Type
REMARK                         _______ _______ _______ _____ _____    ______ ____
ROOT
ATOM      1  C   UNL     1       4.734   3.064  18.658  0.00  0.00    +0.000 C 
ENDROOT
BRANCH   1   2
ATOM      2  C   UNL     1       5.668   4.222  18.318  0.00  0.00    +0.000 A 
ATOM      3  C   UNL     1       6.286   4.971  19.324  0.00  0.00    +0.000 A 
ATOM      4  C   UNL     1       7.230   5.920  18.972  0.00  0.00    +0.000 A 
ATOM      5  N   UNL     1       7.616   6.165  17.707  0.00  0.00    +0.000 NA
ATOM      6  C   UNL     1       7.012   5.483  16.724  0.00  0.00    +0.000 A 
ATOM      7  C   UNL     1       7.429   5.702  15.414  0.00  0.00    +0.000 A 
ATOM      8  C   UNL     1       6.837   5.052  14.322  0.00  0.00    +0.000 A 
ATOM      9  C   UNL     1       5.774   4.192  14.539  0.00  0.00    +0.000 A 
ATOM     10  C   UNL     1       5.344   3.963  15.843  0.00  0.00    +0.000 A 
ATOM     11  C   UNL     1       5.986   4.541  16.965  0.00  0.00    +0.000 A 
BRANCH   9  12
ATOM     12  O   UNL     1       5.080   3.496  13.588  0.00  0.00    +0.000 OA
ATOM     13  C   UNL     1       5.706   3.290  12.330  0.00  0.00    +0.000 C 
ENDBRANCH   9  12
ENDBRANCH   1   2
BRANCH   1  21
ATOM     14  C   UNL     1       2.078   5.863  18.449  0.00  0.00    +0.000 C 
ATOM     15  C   UNL     1       2.096   4.502  17.706  0.00  0.00    +0.000 C 
ATOM     16  N   UNL     1       2.153   3.349  18.636  0.00  0.00    +0.000 NA
ATOM     17  C   UNL     1       1.004   3.429  19.562  0.00  0.00    +0.000 C 
ATOM     18  C   UNL     1       1.032   4.724  20.388  0.00  0.00    +0.000 C 
ATOM     19  C   UNL     1       2.239   5.582  19.960  0.00  0.00    +0.000 C 
ATOM     20  C   UNL     1       3.512   4.748  20.196  0.00  0.00    +0.000 C 
ATOM     21  C   UNL     1       3.410   3.391  19.440  0.00  0.00    +0.000 C 
BRANCH  14  23
ATOM     22  C   UNL     1       2.700   8.289  17.839  0.00  0.00    +0.000 C 
ATOM     23  C   UNL     1       3.113   6.825  17.834  0.00  0.00    +0.000 C 
ENDBRANCH  14  23
ENDBRANCH   1  21
BRANCH   1  24
ATOM     24  O   UNL     1       4.404   2.386  17.440  0.00  0.00    +0.000 OA
ATOM     25  H   UNL     1       4.260   1.451  17.665  0.00  0.00    +0.000 HD
ENDBRANCH   1  24
TORSDOF 5
ENDMDL
MODEL 9
REMARK VINA RESULT:      -6.7      3.449      6.193
REMARK  Name = 
REMARK  7 active torsions:
REMARK  status: ('A' for Active; 'I' for Inactive)
REMARK    1  A    between atoms: C_1  and  C_2
REMARK    2  A    between atoms: C_2  and  C_3
REMARK    3  A    between atoms: C_10  and  C_11
REMARK    4  A    between atoms: C_11  and  O_12
REMARK    5  A    between atoms: C_11  and  C_13
REMARK    6  A    between atoms: C_20  and  O_21
REMARK    7  A    between atoms: O_21  and  C_22
REMARK                            x       y       z     vdW  Elec       q    Type
REMARK                         _______ _______ _______ _____ _____    ______ ____
ROOT
ATOM      1  C   UNL     1       3.173   5.662  18.101  0.00  0.00    +0.000 C 
ENDROOT
BRANCH   1   2
ATOM      2  C   UNL     1       4.693   5.547  18.158  0.00  0.00    +0.000 A 
ATOM      3  C   UNL     1       5.392   5.791  19.345  0.00  0.00    +0.000 A 
ATOM      4  C   UNL     1       6.752   5.542  19.389  0.00  0.00    +0.000 A 
ATOM      5  N   UNL     1       7.461   5.052  18.355  0.00  0.00    +0.000 NA
ATOM      6  C   UNL     1       6.819   4.843  17.198  0.00  0.00    +0.000 A 
ATOM      7  C   UNL     1       7.534   4.303  16.132  0.00  0.00    +0.000 A 
ATOM      8  C   UNL     1       6.951   4.074  14.879  0.00  0.00    +0.000 A 
ATOM      9  C   UNL     1       5.629   4.431  14.670  0.00  0.00    +0.000 A 
ATOM     10  C   UNL     1       4.900   4.973  15.725  0.00  0.00    +0.000 A 
ATOM     11  C   UNL     1       5.446   5.130  17.022  0.00  0.00    +0.000 A 
BRANCH   9  12
ATOM     12  O   UNL     1       4.920   4.290  13.509  0.00  0.00    +0.000 OA
ATOM     13  C   UNL     1       5.480   3.483  12.484  0.00  0.00    +0.000 C 
ENDBRANCH   9  12
ENDBRANCH   1   2
BRANCH   1  21
ATOM     14  C   UNL     1       2.485   2.080  19.376  0.00  0.00    +0.000 C 
ATOM     15  C   UNL     1       3.632   3.039  19.787  0.00  0.00    +0.000 C 
ATOM     16  N   UNL     1       3.131   4.325  20.327  0.00  0.00    +0.000 NA
ATOM     17  C   UNL     1       2.243   4.044  21.475  0.00  0.00    +0.000 C 
ATOM     18  C   UNL     1       1.039   3.186  21.061  0.00  0.00    +0.000 C 
ATOM     19  C   UNL     1       1.147   2.831  19.564  0.00  0.00    +0.000 C 
ATOM     20  C   UNL     1       1.183   4.152  18.773  0.00  0.00    +0.000 C 
ATOM     21  C   UNL     1       2.342   5.053  19.289  0.00  0.00    +0.000 C 
BRANCH  14  23
ATOM     22  C   UNL     1       4.035   1.974  17.320  0.00  0.00    +0.000 C 
ATOM     23  C   UNL     1       2.739   1.510  17.968  0.00  0.00    +0.000 C 
ENDBRANCH  14  23
ENDBRANCH   1  21
BRANCH   1  24
ATOM     24  O   UNL     1       2.837   7.047  17.955  0.00  0.00    +0.000 OA
ATOM     25  H   UNL     1       2.237   7.273  18.687  0.00  0.00    +0.000 HD
ENDBRANCH   1  24
TORSDOF 5
ENDMDL
