MODEL 1
REMARK VINA RESULT:      -8.4      0.000      0.000
REMARK  Name = 
REMARK  7 active torsions:
REMARK  status: ('A' for Active; 'I' for Inactive)
REMARK    1  A    between atoms: C_6  and  C_7
REMARK    2  A    between atoms: C_11  and  C_12
REMARK    3  A    between atoms: C_11  and  C_13
REMARK    4  A    between atoms: C_13  and  O_14
REMARK    5  A    between atoms: C_15  and  C_16
REMARK    6  A    between atoms: C_16  and  C_17
REMARK    7  A    between atoms: C_17  and  C_18
REMARK                            x       y       z     vdW  Elec       q    Type
REMARK                         _______ _______ _______ _____ _____    ______ ____
ROOT
ATOM      1  C   UNL     1       5.811   6.908  17.216  0.00  0.00    +0.000 C 
ATOM      2  C   UNL     1       4.652   6.239  17.304  0.00  0.00    +0.000 C 
ATOM      3  C   UNL     1       3.434   6.901  17.908  0.00  0.00    +0.000 C 
ATOM      4  C   UNL     1       2.848   6.128  19.101  0.00  0.00    +0.000 C 
ATOM      5  C   UNL     1       2.650   4.633  18.791  0.00  0.00    +0.000 C 
ATOM      6  C   UNL     1       3.963   3.964  18.229  0.00  0.00    +0.000 C 
ATOM      7  C   UNL     1       5.159   4.046  19.223  0.00  0.00    +0.000 C 
ATOM      8  C   UNL     1       3.628   2.492  17.859  0.00  0.00    +0.000 C 
ATOM      9  C   UNL     1       2.600   1.682  18.636  0.00  0.00    +0.000 C 
ATOM     10  C   UNL     1       1.433   2.479  19.182  0.00  0.00    +0.000 C 
ATOM     11  C   UNL     1       1.900   3.768  19.897  0.00  0.00    +0.000 C 
ATOM     12  C   UNL     1       0.636   4.483  20.425  0.00  0.00    +0.000 C 
ATOM     13  C   UNL     1       4.451   4.744  16.915  0.00  0.00    +0.000 C 
ENDROOT
BRANCH  11  14
ATOM     14  C   UNL     1       2.711   3.334  21.146  0.00  0.00    +0.000 C 
BRANCH  14  15
ATOM     15  O   UNL     1       1.938   2.574  22.060  0.00  0.00    +0.000 OA
ATOM     16  H   UNL     1       1.664   1.764  21.599  0.00  0.00    +0.000 HD
ENDBRANCH  14  15
ENDBRANCH  11  14
BRANCH  13  17
ATOM     17  C   UNL     1       5.723   4.142  16.205  0.00  0.00    +0.000 C 
BRANCH  17  18
ATOM     18  C   UNL     1       5.564   3.455  14.838  0.00  0.00    +0.000 C 
BRANCH  18  19
ATOM     19  C   UNL     1       6.401   4.090  13.785  0.00  0.00    +0.000 C 
ATOM     20  C   UNL     1       7.306   5.060  13.897  0.00  0.00    +0.000 C 
ATOM     21  C   UNL     1       7.954   5.322  12.603  0.00  0.00    +0.000 C 
ATOM     22  O   UNL     1       7.355   4.381  11.713  0.00  0.00    +0.000 OA
ATOM     23  C   UNL     1       6.443   3.632  12.394  0.00  0.00    +0.000 C 
ATOM     24  O   UNL     1       5.783   2.721  11.930  0.00  0.00    +0.000 OA
ENDBRANCH  18  19
ENDBRANCH  17  18
ENDBRANCH  13  17
TORSDOF 5
ENDMDL
MODEL 2
REMARK VINA RESULT:      -8.3      0.657      1.296
REMARK  Name = 
REMARK  7 active torsions:
REMARK  status: ('A' for Active; 'I' for Inactive)
REMARK    1  A    between atoms: C_6  and  C_7
REMARK    2  A    between atoms: C_11  and  C_12
REMARK    3  A    between atoms: C_11  and  C_13
REMARK    4  A    between atoms: C_13  and  O_14
REMARK    5  A    between atoms: C_15  and  C_16
REMARK    6  A    between atoms: C_16  and  C_17
REMARK    7  A    between atoms: C_17  and  C_18
REMARK                            x       y       z     vdW  Elec       q    Type
REMARK                         _______ _______ _______ _____ _____    ______ ____
ROOT
ATOM      1  C   UNL     1       5.644   7.158  17.385  0.00  0.00    +0.000 C 
ATOM      2  C   UNL     1       4.560   6.367  17.396  0.00  0.00    +0.000 C 
ATOM      3  C   UNL     1       3.255   6.870  17.971  0.00  0.00    +0.000 C 
ATOM      4  C   UNL     1       2.710   5.989  19.106  0.00  0.00    +0.000 C 
ATOM      5  C   UNL     1       2.685   4.496  18.731  0.00  0.00    +0.000 C 
ATOM      6  C   UNL     1       4.084   3.994  18.201  0.00  0.00    +0.000 C 
ATOM      7  C   UNL     1       5.224   4.159  19.249  0.00  0.00    +0.000 C 
ATOM      8  C   UNL     1       3.924   2.513  17.760  0.00  0.00    +0.000 C 
ATOM      9  C   UNL     1       2.959   1.565  18.460  0.00  0.00    +0.000 C 
ATOM     10  C   UNL     1       1.692   2.210  18.984  0.00  0.00    +0.000 C 
ATOM     11  C   UNL     1       1.990   3.509  19.769  0.00  0.00    +0.000 C 
ATOM     12  C   UNL     1       0.637   4.063  20.267  0.00  0.00    +0.000 C 
ATOM     13  C   UNL     1       4.537   4.877  16.941  0.00  0.00    +0.000 C 
ENDROOT
BRANCH  11  14
ATOM     14  C   UNL     1       2.793   3.111  21.034  0.00  0.00    +0.000 C 
BRANCH  14  15
ATOM     15  O   UNL     1       1.968   2.963  22.178  0.00  0.00    +0.000 OA
ATOM     16  H   UNL     1       1.318   2.270  21.975  0.00  0.00    +0.000 HD
ENDBRANCH  14  15
ENDBRANCH  11  14
BRANCH  13  17
ATOM     17  C   UNL     1       5.894   4.444  16.265  0.00  0.00    +0.000 C 
BRANCH  17  18
ATOM     18  C   UNL     1       6.487   5.320  15.148  0.00  0.00    +0.000 C 
BRANCH  18  19
ATOM     19  C   UNL     1       6.585   4.595  13.852  0.00  0.00    +0.000 C 
ATOM     20  C   UNL     1       5.821   3.613  13.376  0.00  0.00    +0.000 C 
ATOM     21  C   UNL     1       6.232   3.248  12.011  0.00  0.00    +0.000 C 
ATOM     22  O   UNL     1       7.306   4.141  11.716  0.00  0.00    +0.000 OA
ATOM     23  C   UNL     1       7.522   4.956  12.787  0.00  0.00    +0.000 C 
ATOM     24  O   UNL     1       8.347   5.850  12.845  0.00  0.00    +0.000 OA
ENDBRANCH  18  19
ENDBRANCH  17  18
ENDBRANCH  13  17
TORSDOF 5
ENDMDL
MODEL 3
REMARK VINA RESULT:      -8.0      3.393      6.448
REMARK  Name = 
REMARK  7 active torsions:
REMARK  status: ('A' for Active; 'I' for Inactive)
REMARK    1  A    between atoms: C_6  and  C_7
REMARK    2  A    between atoms: C_11  and  C_12
REMARK    3  A    between atoms: C_11  and  C_13
REMARK    4  A    between atoms: C_13  and  O_14
REMARK    5  A    between atoms: C_15  and  C_16
REMARK    6  A    between atoms: C_16  and  C_17
REMARK    7  A    between atoms: C_17  and  C_18
REMARK                            x       y       z     vdW  Elec       q    Type
REMARK                         _______ _______ _______ _____ _____    ______ ____
ROOT
ATOM      1  C   UNL     1       4.776   6.878  16.468  0.00  0.00    +0.000 C 
ATOM      2  C   UNL     1       4.618   6.339  17.686  0.00  0.00    +0.000 C 
ATOM      3  C   UNL     1       5.716   5.494  18.293  0.00  0.00    +0.000 C 
ATOM      4  C   UNL     1       5.255   4.078  18.674  0.00  0.00    +0.000 C 
ATOM      5  C   UNL     1       3.954   4.086  19.498  0.00  0.00    +0.000 C 
ATOM      6  C   UNL     1       2.813   4.920  18.797  0.00  0.00    +0.000 C 
ATOM      7  C   UNL     1       2.433   4.367  17.391  0.00  0.00    +0.000 C 
ATOM      8  C   UNL     1       1.587   4.947  19.751  0.00  0.00    +0.000 C 
ATOM      9  C   UNL     1       1.259   3.779  20.672  0.00  0.00    +0.000 C 
ATOM     10  C   UNL     1       2.459   3.025  21.205  0.00  0.00    +0.000 C 
ATOM     11  C   UNL     1       3.471   2.687  20.085  0.00  0.00    +0.000 C 
ATOM     12  C   UNL     1       4.634   1.908  20.738  0.00  0.00    +0.000 C 
ATOM     13  C   UNL     1       3.318   6.421  18.539  0.00  0.00    +0.000 C 
ENDROOT
BRANCH  11  14
ATOM     14  C   UNL     1       2.773   1.700  19.114  0.00  0.00    +0.000 C 
BRANCH  14  15
ATOM     15  O   UNL     1       3.695   0.982  18.311  0.00  0.00    +0.000 OA
ATOM     16  H   UNL     1       3.310   0.105  18.148  0.00  0.00    +0.000 HD
ENDBRANCH  14  15
ENDBRANCH  11  14
BRANCH  13  17
ATOM     17  C   UNL     1       2.252   7.391  17.899  0.00  0.00    +0.000 C 
BRANCH  17  18
ATOM     18  C   UNL     1       2.352   8.901  18.177  0.00  0.00    +0.000 C 
BRANCH  18  19
ATOM     19  C   UNL     1       1.150   9.428  18.878  0.00  0.00    +0.000 C 
ATOM     20  C   UNL     1       0.112  10.101  18.384  0.00  0.00    +0.000 C 
ATOM     21  C   UNL     1      -0.891  10.353  19.429  0.00  0.00    +0.000 C 
ATOM     22  O   UNL     1      -0.349   9.732  20.594  0.00  0.00    +0.000 OA
ATOM     23  C   UNL     1       0.851   9.166  20.288  0.00  0.00    +0.000 C 
ATOM     24  O   UNL     1       1.554   8.532  21.052  0.00  0.00    +0.000 OA
ENDBRANCH  18  19
ENDBRANCH  17  18
ENDBRANCH  13  17
TORSDOF 5
ENDMDL
MODEL 4
REMARK VINA RESULT:      -8.0      3.429      6.577
REMARK  Name = 
REMARK  7 active torsions:
REMARK  status: ('A' for Active; 'I' for Inactive)
REMARK    1  A    between atoms: C_6  and  C_7
REMARK    2  A    between atoms: C_11  and  C_12
REMARK    3  A    between atoms: C_11  and  C_13
REMARK    4  A    between atoms: C_13  and  O_14
REMARK    5  A    between atoms: C_15  and  C_16
REMARK    6  A    between atoms: C_16  and  C_17
REMARK    7  A    between atoms: C_17  and  C_18
REMARK                            x       y       z     vdW  Elec       q    Type
REMARK                         _______ _______ _______ _____ _____    ______ ____
ROOT
ATOM      1  C   UNL     1       4.734   6.928  16.592  0.00  0.00    +0.000 C 
ATOM      2  C   UNL     1       4.578   6.357  17.796  0.00  0.00    +0.000 C 
ATOM      3  C   UNL     1       5.689   5.523  18.394  0.00  0.00    +0.000 C 
ATOM      4  C   UNL     1       5.256   4.089  18.738  0.00  0.00    +0.000 C 
ATOM      5  C   UNL     1       3.948   4.048  19.548  0.00  0.00    +0.000 C 
ATOM      6  C   UNL     1       2.795   4.873  18.855  0.00  0.00    +0.000 C 
ATOM      7  C   UNL     1       2.441   4.344  17.434  0.00  0.00    +0.000 C 
ATOM      8  C   UNL     1       1.559   4.849  19.797  0.00  0.00    +0.000 C 
ATOM      9  C   UNL     1       1.249   3.653  20.687  0.00  0.00    +0.000 C 
ATOM     10  C   UNL     1       2.462   2.914  21.215  0.00  0.00    +0.000 C 
ATOM     11  C   UNL     1       3.491   2.625  20.098  0.00  0.00    +0.000 C 
ATOM     12  C   UNL     1       4.666   1.857  20.744  0.00  0.00    +0.000 C 
ATOM     13  C   UNL     1       3.267   6.390  18.637  0.00  0.00    +0.000 C 
ENDROOT
BRANCH  11  14
ATOM     14  C   UNL     1       2.825   1.646  19.097  0.00  0.00    +0.000 C 
BRANCH  14  15
ATOM     15  O   UNL     1       3.770   0.983  18.273  0.00  0.00    +0.000 OA
ATOM     16  H   UNL     1       4.549   0.799  18.822  0.00  0.00    +0.000 HD
ENDBRANCH  14  15
ENDBRANCH  11  14
BRANCH  13  17
ATOM     17  C   UNL     1       2.186   7.350  18.010  0.00  0.00    +0.000 C 
BRANCH  17  18
ATOM     18  C   UNL     1       2.148   8.824  18.449  0.00  0.00    +0.000 C 
BRANCH  18  19
ATOM     19  C   UNL     1       1.196   9.056  19.569  0.00  0.00    +0.000 C 
ATOM     20  C   UNL     1       1.209   8.559  20.805  0.00  0.00    +0.000 C 
ATOM     21  C   UNL     1       0.113   9.124  21.606  0.00  0.00    +0.000 C 
ATOM     22  O   UNL     1      -0.538  10.034  20.720  0.00  0.00    +0.000 OA
ATOM     23  C   UNL     1       0.094  10.020  19.514  0.00  0.00    +0.000 C 
ATOM     24  O   UNL     1      -0.194  10.708  18.552  0.00  0.00    +0.000 OA
ENDBRANCH  18  19
ENDBRANCH  17  18
ENDBRANCH  13  17
TORSDOF 5
ENDMDL
MODEL 5
REMARK VINA RESULT:      -7.8      3.368      7.682
REMARK  Name = 
REMARK  7 active torsions:
REMARK  status: ('A' for Active; 'I' for Inactive)
REMARK    1  A    between atoms: C_6  and  C_7
REMARK    2  A    between atoms: C_11  and  C_12
REMARK    3  A    between atoms: C_11  and  C_13
REMARK    4  A    between atoms: C_13  and  O_14
REMARK    5  A    between atoms: C_15  and  C_16
REMARK    6  A    between atoms: C_16  and  C_17
REMARK    7  A    between atoms: C_17  and  C_18
REMARK                            x       y       z     vdW  Elec       q    Type
REMARK                         _______ _______ _______ _____ _____    ______ ____
ROOT
ATOM      1  C   UNL     1       1.438   3.750  20.172  0.00  0.00    +0.000 C 
ATOM      2  C   UNL     1       1.890   4.191  18.988  0.00  0.00    +0.000 C 
ATOM      3  C   UNL     1       2.061   3.231  17.832  0.00  0.00    +0.000 C 
ATOM      4  C   UNL     1       3.491   3.205  17.269  0.00  0.00    +0.000 C 
ATOM      5  C   UNL     1       4.038   4.616  16.987  0.00  0.00    +0.000 C 
ATOM      6  C   UNL     1       3.904   5.565  18.240  0.00  0.00    +0.000 C 
ATOM      7  C   UNL     1       4.680   5.040  19.485  0.00  0.00    +0.000 C 
ATOM      8  C   UNL     1       4.389   6.980  17.820  0.00  0.00    +0.000 C 
ATOM      9  C   UNL     1       5.496   7.179  16.794  0.00  0.00    +0.000 C 
ATOM     10  C   UNL     1       5.544   6.141  15.692  0.00  0.00    +0.000 C 
ATOM     11  C   UNL     1       5.447   4.702  16.251  0.00  0.00    +0.000 C 
ATOM     12  C   UNL     1       5.525   3.737  15.048  0.00  0.00    +0.000 C 
ATOM     13  C   UNL     1       2.370   5.644  18.701  0.00  0.00    +0.000 C 
ENDROOT
BRANCH  11  14
ATOM     14  C   UNL     1       6.720   4.450  17.100  0.00  0.00    +0.000 C 
BRANCH  14  15
ATOM     15  O   UNL     1       7.907   4.488  16.325  0.00  0.00    +0.000 OA
ATOM     16  H   UNL     1       8.060   3.588  15.992  0.00  0.00    +0.000 HD
ENDBRANCH  14  15
ENDBRANCH  11  14
BRANCH  13  17
ATOM     17  C   UNL     1       2.076   6.614  19.909  0.00  0.00    +0.000 C 
BRANCH  17  18
ATOM     18  C   UNL     1       1.860   8.112  19.632  0.00  0.00    +0.000 C 
BRANCH  18  19
ATOM     19  C   UNL     1       1.044   8.770  20.688  0.00  0.00    +0.000 C 
ATOM     20  C   UNL     1       1.214   8.769  22.009  0.00  0.00    +0.000 C 
ATOM     21  C   UNL     1       0.211   9.623  22.664  0.00  0.00    +0.000 C 
ATOM     22  O   UNL     1      -0.558  10.155  21.585  0.00  0.00    +0.000 OA
ATOM     23  C   UNL     1      -0.073   9.674  20.407  0.00  0.00    +0.000 C 
ATOM     24  O   UNL     1      -0.487   9.961  19.298  0.00  0.00    +0.000 OA
ENDBRANCH  18  19
ENDBRANCH  17  18
ENDBRANCH  13  17
TORSDOF 5
ENDMDL
MODEL 6
REMARK VINA RESULT:      -7.4      3.723      6.945
REMARK  Name = 
REMARK  7 active torsions:
REMARK  status: ('A' for Active; 'I' for Inactive)
REMARK    1  A    between atoms: C_6  and  C_7
REMARK    2  A    between atoms: C_11  and  C_12
REMARK    3  A    between atoms: C_11  and  C_13
REMARK    4  A    between atoms: C_13  and  O_14
REMARK    5  A    between atoms: C_15  and  C_16
REMARK    6  A    between atoms: C_16  and  C_17
REMARK    7  A    between atoms: C_17  and  C_18
REMARK                            x       y       z     vdW  Elec       q    Type
REMARK                         _______ _______ _______ _____ _____    ______ ____
ROOT
ATOM      1  C   UNL     1       4.101   7.376  17.025  0.00  0.00    +0.000 C 
ATOM      2  C   UNL     1       4.179   6.615  18.128  0.00  0.00    +0.000 C 
ATOM      3  C   UNL     1       5.339   5.663  18.316  0.00  0.00    +0.000 C 
ATOM      4  C   UNL     1       4.901   4.204  18.521  0.00  0.00    +0.000 C 
ATOM      5  C   UNL     1       3.806   4.064  19.594  0.00  0.00    +0.000 C 
ATOM      6  C   UNL     1       2.584   5.024  19.323  0.00  0.00    +0.000 C 
ATOM      7  C   UNL     1       1.889   4.751  17.956  0.00  0.00    +0.000 C 
ATOM      8  C   UNL     1       1.590   4.877  20.508  0.00  0.00    +0.000 C 
ATOM      9  C   UNL     1       1.408   3.558  21.247  0.00  0.00    +0.000 C 
ATOM     10  C   UNL     1       2.657   2.708  21.359  0.00  0.00    +0.000 C 
ATOM     11  C   UNL     1       3.392   2.583  20.004  0.00  0.00    +0.000 C 
ATOM     12  C   UNL     1       4.628   1.685  20.235  0.00  0.00    +0.000 C 
ATOM     13  C   UNL     1       3.094   6.543  19.242  0.00  0.00    +0.000 C 
ENDROOT
BRANCH  11  14
ATOM     14  C   UNL     1       2.458   1.803  19.043  0.00  0.00    +0.000 C 
BRANCH  14  15
ATOM     15  O   UNL     1       3.120   1.387  17.859  0.00  0.00    +0.000 OA
ATOM     16  H   UNL     1       3.894   1.961  17.747  0.00  0.00    +0.000 HD
ENDBRANCH  14  15
ENDBRANCH  11  14
BRANCH  13  17
ATOM     17  C   UNL     1       1.965   7.625  19.039  0.00  0.00    +0.000 C 
BRANCH  17  18
ATOM     18  C   UNL     1       1.504   8.463  20.244  0.00  0.00    +0.000 C 
BRANCH  18  19
ATOM     19  C   UNL     1       0.835   9.726  19.831  0.00  0.00    +0.000 C 
ATOM     20  C   UNL     1       0.313  10.058  18.651  0.00  0.00    +0.000 C 
ATOM     21  C   UNL     1      -0.322  11.383  18.717  0.00  0.00    +0.000 C 
ATOM     22  O   UNL     1      -0.147  11.792  20.073  0.00  0.00    +0.000 OA
ATOM     23  C   UNL     1       0.523  10.820  20.754  0.00  0.00    +0.000 C 
ATOM     24  O   UNL     1       0.803  10.846  21.938  0.00  0.00    +0.000 OA
ENDBRANCH  18  19
ENDBRANCH  17  18
ENDBRANCH  13  17
TORSDOF 5
ENDMDL
MODEL 7
REMARK VINA RESULT:      -7.4      3.283      7.608
REMARK  Name = 
REMARK  7 active torsions:
REMARK  status: ('A' for Active; 'I' for Inactive)
REMARK    1  A    between atoms: C_6  and  C_7
REMARK    2  A    between atoms: C_11  and  C_12
REMARK    3  A    between atoms: C_11  and  C_13
REMARK    4  A    between atoms: C_13  and  O_14
REMARK    5  A    between atoms: C_15  and  C_16
REMARK    6  A    between atoms: C_16  and  C_17
REMARK    7  A    between atoms: C_17  and  C_18
REMARK                            x       y       z     vdW  Elec       q    Type
REMARK                         _______ _______ _______ _____ _____    ______ ____
ROOT
ATOM      1  C   UNL     1       1.429   3.994  20.375  0.00  0.00    +0.000 C 
ATOM      2  C   UNL     1       1.847   4.471  19.193  0.00  0.00    +0.000 C 
ATOM      3  C   UNL     1       1.851   3.580  17.971  0.00  0.00    +0.000 C 
ATOM      4  C   UNL     1       3.234   3.459  17.310  0.00  0.00    +0.000 C 
ATOM      5  C   UNL     1       3.896   4.830  17.078  0.00  0.00    +0.000 C 
ATOM      6  C   UNL     1       3.933   5.700  18.394  0.00  0.00    +0.000 C 
ATOM      7  C   UNL     1       4.731   5.023  19.547  0.00  0.00    +0.000 C 
ATOM      8  C   UNL     1       4.525   7.090  18.029  0.00  0.00    +0.000 C 
ATOM      9  C   UNL     1       5.580   7.255  16.943  0.00  0.00    +0.000 C 
ATOM     10  C   UNL     1       5.458   6.294  15.779  0.00  0.00    +0.000 C 
ATOM     11  C   UNL     1       5.258   4.836  16.254  0.00  0.00    +0.000 C 
ATOM     12  C   UNL     1       5.167   3.951  14.992  0.00  0.00    +0.000 C 
ATOM     13  C   UNL     1       2.445   5.890  18.963  0.00  0.00    +0.000 C 
ENDROOT
BRANCH  11  14
ATOM     14  C   UNL     1       6.551   4.410  16.996  0.00  0.00    +0.000 C 
BRANCH  14  15
ATOM     15  O   UNL     1       7.703   4.490  16.172  0.00  0.00    +0.000 OA
ATOM     16  H   UNL     1       8.350   3.856  16.523  0.00  0.00    +0.000 HD
ENDBRANCH  14  15
ENDBRANCH  11  14
BRANCH  13  17
ATOM     17  C   UNL     1       2.323   6.798  20.245  0.00  0.00    +0.000 C 
BRANCH  17  18
ATOM     18  C   UNL     1       0.969   7.447  20.577  0.00  0.00    +0.000 C 
BRANCH  18  19
ATOM     19  C   UNL     1       1.028   8.933  20.533  0.00  0.00    +0.000 C 
ATOM     20  C   UNL     1       0.896   9.752  19.490  0.00  0.00    +0.000 C 
ATOM     21  C   UNL     1       0.944  11.158  19.922  0.00  0.00    +0.000 C 
ATOM     22  O   UNL     1       1.090  11.086  21.340  0.00  0.00    +0.000 OA
ATOM     23  C   UNL     1       1.128   9.780  21.724  0.00  0.00    +0.000 C 
ATOM     24  O   UNL     1       1.214   9.378  22.870  0.00  0.00    +0.000 OA
ENDBRANCH  18  19
ENDBRANCH  17  18
ENDBRANCH  13  17
TORSDOF 5
ENDMDL
MODEL 8
REMARK VINA RESULT:      -7.3      3.044      7.220
REMARK  Name = 
REMARK  7 active torsions:
REMARK  status: ('A' for Active; 'I' for Inactive)
REMARK    1  A    between atoms: C_6  and  C_7
REMARK    2  A    between atoms: C_11  and  C_12
REMARK    3  A    between atoms: C_11  and  C_13
REMARK    4  A    between atoms: C_13  and  O_14
REMARK    5  A    between atoms: C_15  and  C_16
REMARK    6  A    between atoms: C_16  and  C_17
REMARK    7  A    between atoms: C_17  and  C_18
REMARK                            x       y       z     vdW  Elec       q    Type
REMARK                         _______ _______ _______ _____ _____    ______ ____
ROOT
ATOM      1  C   UNL     1       1.486   3.295  20.153  0.00  0.00    +0.000 C 
ATOM      2  C   UNL     1       1.923   3.715  18.956  0.00  0.00    +0.000 C 
ATOM      3  C   UNL     1       2.292   2.713  17.885  0.00  0.00    +0.000 C 
ATOM      4  C   UNL     1       3.735   2.866  17.379  0.00  0.00    +0.000 C 
ATOM      5  C   UNL     1       4.077   4.320  17.008  0.00  0.00    +0.000 C 
ATOM      6  C   UNL     1       3.742   5.324  18.178  0.00  0.00    +0.000 C 
ATOM      7  C   UNL     1       4.527   5.014  19.487  0.00  0.00    +0.000 C 
ATOM      8  C   UNL     1       4.029   6.764  17.668  0.00  0.00    +0.000 C 
ATOM      9  C   UNL     1       5.142   7.057  16.670  0.00  0.00    +0.000 C 
ATOM     10  C   UNL     1       5.398   5.962  15.655  0.00  0.00    +0.000 C 
ATOM     11  C   UNL     1       5.491   4.569  16.320  0.00  0.00    +0.000 C 
ATOM     12  C   UNL     1       5.771   3.544  15.200  0.00  0.00    +0.000 C 
ATOM     13  C   UNL     1       2.193   5.200  18.575  0.00  0.00    +0.000 C 
ENDROOT
BRANCH  11  14
ATOM     14  C   UNL     1       6.745   4.576  17.232  0.00  0.00    +0.000 C 
BRANCH  14  15
ATOM     15  O   UNL     1       7.954   4.489  16.496  0.00  0.00    +0.000 OA
ATOM     16  H   UNL     1       8.263   5.397  16.345  0.00  0.00    +0.000 HD
ENDBRANCH  14  15
ENDBRANCH  11  14
BRANCH  13  17
ATOM     17  C   UNL     1       1.700   6.197  19.692  0.00  0.00    +0.000 C 
BRANCH  17  18
ATOM     18  C   UNL     1       2.356   7.584  19.802  0.00  0.00    +0.000 C 
BRANCH  18  19
ATOM     19  C   UNL     1       1.409   8.685  19.478  0.00  0.00    +0.000 C 
ATOM     20  C   UNL     1       1.176   9.281  18.310  0.00  0.00    +0.000 C 
ATOM     21  C   UNL     1       0.093  10.269  18.435  0.00  0.00    +0.000 C 
ATOM     22  O   UNL     1      -0.314  10.174  19.800  0.00  0.00    +0.000 OA
ATOM     23  C   UNL     1       0.442   9.234  20.432  0.00  0.00    +0.000 C 
ATOM     24  O   UNL     1       0.324   8.890  21.594  0.00  0.00    +0.000 OA
ENDBRANCH  18  19
ENDBRANCH  17  18
ENDBRANCH  13  17
TORSDOF 5
ENDMDL
MODEL 9
REMARK VINA RESULT:      -7.3      3.679      7.410
REMARK  Name = 
REMARK  7 active torsions:
REMARK  status: ('A' for Active; 'I' for Inactive)
REMARK    1  A    between atoms: C_6  and  C_7
REMARK    2  A    between atoms: C_11  and  C_12
REMARK    3  A    between atoms: C_11  and  C_13
REMARK    4  A    between atoms: C_13  and  O_14
REMARK    5  A    between atoms: C_15  and  C_16
REMARK    6  A    between atoms: C_16  and  C_17
REMARK    7  A    between atoms: C_17  and  C_18
REMARK                            x       y       z     vdW  Elec       q    Type
REMARK                         _______ _______ _______ _____ _____    ______ ____
ROOT
ATOM      1  C   UNL     1       3.426   7.717  17.371  0.00  0.00    +0.000 C 
ATOM      2  C   UNL     1       3.699   6.827  18.338  0.00  0.00    +0.000 C 
ATOM      3  C   UNL     1       4.881   5.894  18.203  0.00  0.00    +0.000 C 
ATOM      4  C   UNL     1       4.497   4.408  18.291  0.00  0.00    +0.000 C 
ATOM      5  C   UNL     1       3.604   4.103  19.507  0.00  0.00    +0.000 C 
ATOM      6  C   UNL     1       2.346   5.053  19.573  0.00  0.00    +0.000 C 
ATOM      7  C   UNL     1       1.429   4.932  18.320  0.00  0.00    +0.000 C 
ATOM      8  C   UNL     1       1.572   4.730  20.881  0.00  0.00    +0.000 C 
ATOM      9  C   UNL     1       1.531   3.324  21.465  0.00  0.00    +0.000 C 
ATOM     10  C   UNL     1       2.787   2.504  21.253  0.00  0.00    +0.000 C 
ATOM     11  C   UNL     1       3.278   2.570  19.788  0.00  0.00    +0.000 C 
ATOM     12  C   UNL     1       4.543   1.688  19.688  0.00  0.00    +0.000 C 
ATOM     13  C   UNL     1       2.823   6.584  19.602  0.00  0.00    +0.000 C 
ENDROOT
BRANCH  11  14
ATOM     14  C   UNL     1       2.199   1.890  18.908  0.00  0.00    +0.000 C 
BRANCH  14  15
ATOM     15  O   UNL     1       2.669   1.590  17.603  0.00  0.00    +0.000 OA
ATOM     16  H   UNL     1       2.067   0.927  17.228  0.00  0.00    +0.000 HD
ENDBRANCH  14  15
ENDBRANCH  11  14
BRANCH  13  17
ATOM     17  C   UNL     1       1.667   7.649  19.734  0.00  0.00    +0.000 C 
BRANCH  17  18
ATOM     18  C   UNL     1       1.210   8.089  21.135  0.00  0.00    +0.000 C 
BRANCH  18  19
ATOM     19  C   UNL     1       0.852   9.532  21.187  0.00  0.00    +0.000 C 
ATOM     20  C   UNL     1       0.749  10.412  20.192  0.00  0.00    +0.000 C 
ATOM     21  C   UNL     1       0.289  11.715  20.694  0.00  0.00    +0.000 C 
ATOM     22  O   UNL     1       0.102  11.508  22.093  0.00  0.00    +0.000 OA
ATOM     23  C   UNL     1       0.416  10.219  22.404  0.00  0.00    +0.000 C 
ATOM     24  O   UNL     1       0.331   9.714  23.508  0.00  0.00    +0.000 OA
ENDBRANCH  18  19
ENDBRANCH  17  18
ENDBRANCH  13  17
TORSDOF 5
ENDMDL
