MODEL 1
REMARK VINA RESULT:      -7.4      0.000      0.000
REMARK  Name = 
REMARK  8 active torsions:
REMARK  status: ('A' for Active; 'I' for Inactive)
REMARK    1  A    between atoms: C_1  and  C_2
REMARK    2  A    between atoms: C_2  and  C_3
REMARK    3  A    between atoms: C_2  and  N_20
REMARK    4  A    between atoms: C_6  and  C_7
REMARK    5  A    between atoms: C_6  and  C_13
REMARK    6  A    between atoms: N_20  and  C_21
REMARK    7  A    between atoms: N_20  and  C_22
REMARK    8  A    between atoms: N_20  and  C_23
REMARK                            x       y       z     vdW  Elec       q    Type
REMARK                         _______ _______ _______ _____ _____    ______ ____
ROOT
ATOM      1  C   UNL     1       3.425   4.302  17.234  0.00  0.00    +0.000 C 
ATOM      2  C   UNL     1       4.080   2.983  16.910  0.00  0.00    +0.000 C 
ATOM      3  O   UNL     1       5.439   3.274  16.860  0.00  0.00    +0.000 OA
ATOM      4  C   UNL     1       5.478   4.580  16.314  0.00  0.00    +0.000 C 
ATOM      5  O   UNL     1       4.165   5.147  16.378  0.00  0.00    +0.000 OA
ENDROOT
BRANCH   4   6
ATOM      6  C   UNL     1       6.436   5.468  17.096  0.00  0.00    +0.000 A 
ATOM      7  C   UNL     1       6.535   6.849  16.836  0.00  0.00    +0.000 A 
ATOM      8  C   UNL     1       7.372   7.657  17.612  0.00  0.00    +0.000 A 
ATOM      9  C   UNL     1       8.133   7.095  18.639  0.00  0.00    +0.000 A 
ATOM     10  C   UNL     1       8.047   5.727  18.904  0.00  0.00    +0.000 A 
ATOM     11  C   UNL     1       7.194   4.921  18.149  0.00  0.00    +0.000 A 
ENDBRANCH   4   6
BRANCH   4  12
ATOM     12  C   UNL     1       6.037   4.489  14.886  0.00  0.00    +0.000 A 
ATOM     13  C   UNL     1       7.246   5.094  14.490  0.00  0.00    +0.000 A 
ATOM     14  C   UNL     1       7.718   4.939  13.172  0.00  0.00    +0.000 A 
ATOM     15  C   UNL     1       6.993   4.184  12.244  0.00  0.00    +0.000 A 
ATOM     16  C   UNL     1       5.793   3.589  12.618  0.00  0.00    +0.000 A 
ATOM     17  C   UNL     1       5.317   3.742  13.924  0.00  0.00    +0.000 A 
ENDBRANCH   4  12
BRANCH   1  19
ATOM     18  C   UNL     1       3.278   6.385  18.690  0.00  0.00    +0.000 C 
ATOM     19  C   UNL     1       3.492   4.840  18.741  0.00  0.00    +0.000 C 
BRANCH  19  20
ATOM     20  N   UNL     1       2.569   4.191  19.777  0.00  0.00    +0.000 N 
ATOM     21  C   UNL     1       3.174   3.003  20.437  0.00  0.00    +0.000 C 
ATOM     22  C   UNL     1       2.156   5.135  20.843  0.00  0.00    +0.000 C 
ATOM     23  C   UNL     1       1.300   3.745  19.124  0.00  0.00    +0.000 C 
ENDBRANCH  19  20
ENDBRANCH   1  19
TORSDOF 4
ENDMDL
MODEL 2
REMARK VINA RESULT:      -7.3      0.165      1.023
REMARK  Name = 
REMARK  8 active torsions:
REMARK  status: ('A' for Active; 'I' for Inactive)
REMARK    1  A    between atoms: C_1  and  C_2
REMARK    2  A    between atoms: C_2  and  C_3
REMARK    3  A    between atoms: C_2  and  N_20
REMARK    4  A    between atoms: C_6  and  C_7
REMARK    5  A    between atoms: C_6  and  C_13
REMARK    6  A    between atoms: N_20  and  C_21
REMARK    7  A    between atoms: N_20  and  C_22
REMARK    8  A    between atoms: N_20  and  C_23
REMARK                            x       y       z     vdW  Elec       q    Type
REMARK                         _______ _______ _______ _____ _____    ______ ____
ROOT
ATOM      1  C   UNL     1       3.344   4.345  17.351  0.00  0.00    +0.000 C 
ATOM      2  C   UNL     1       4.018   3.030  17.050  0.00  0.00    +0.000 C 
ATOM      3  O   UNL     1       5.375   3.336  17.020  0.00  0.00    +0.000 OA
ATOM      4  C   UNL     1       5.409   4.637  16.462  0.00  0.00    +0.000 C 
ATOM      5  O   UNL     1       4.088   5.189  16.499  0.00  0.00    +0.000 OA
ENDROOT
BRANCH   4   6
ATOM      6  C   UNL     1       6.344   5.543  17.251  0.00  0.00    +0.000 A 
ATOM      7  C   UNL     1       7.154   5.038  18.287  0.00  0.00    +0.000 A 
ATOM      8  C   UNL     1       8.054   5.876  18.953  0.00  0.00    +0.000 A 
ATOM      9  C   UNL     1       8.143   7.226  18.607  0.00  0.00    +0.000 A 
ATOM     10  C   UNL     1       7.343   7.739  17.585  0.00  0.00    +0.000 A 
ATOM     11  C   UNL     1       6.460   6.902  16.901  0.00  0.00    +0.000 A 
ENDBRANCH   4   6
BRANCH   4  12
ATOM     12  C   UNL     1       5.992   4.538  15.044  0.00  0.00    +0.000 A 
ATOM     13  C   UNL     1       7.219   5.122  14.673  0.00  0.00    +0.000 A 
ATOM     14  C   UNL     1       7.713   4.960  13.363  0.00  0.00    +0.000 A 
ATOM     15  C   UNL     1       6.991   4.222  12.420  0.00  0.00    +0.000 A 
ATOM     16  C   UNL     1       5.773   3.648  12.770  0.00  0.00    +0.000 A 
ATOM     17  C   UNL     1       5.276   3.808  14.067  0.00  0.00    +0.000 A 
ENDBRANCH   4  12
BRANCH   1  19
ATOM     18  C   UNL     1       3.127   6.437  18.785  0.00  0.00    +0.000 C 
ATOM     19  C   UNL     1       3.380   4.898  18.853  0.00  0.00    +0.000 C 
BRANCH  19  20
ATOM     20  N   UNL     1       2.461   4.235  19.885  0.00  0.00    +0.000 N 
ATOM     21  C   UNL     1       3.099   3.086  20.582  0.00  0.00    +0.000 C 
ATOM     22  C   UNL     1       1.990   5.184  20.922  0.00  0.00    +0.000 C 
ATOM     23  C   UNL     1       1.225   3.725  19.217  0.00  0.00    +0.000 C 
ENDBRANCH  19  20
ENDBRANCH   1  19
TORSDOF 4
ENDMDL
MODEL 3
REMARK VINA RESULT:      -7.3      0.110      1.014
REMARK  Name = 
REMARK  8 active torsions:
REMARK  status: ('A' for Active; 'I' for Inactive)
REMARK    1  A    between atoms: C_1  and  C_2
REMARK    2  A    between atoms: C_2  and  C_3
REMARK    3  A    between atoms: C_2  and  N_20
REMARK    4  A    between atoms: C_6  and  C_7
REMARK    5  A    between atoms: C_6  and  C_13
REMARK    6  A    between atoms: N_20  and  C_21
REMARK    7  A    between atoms: N_20  and  C_22
REMARK    8  A    between atoms: N_20  and  C_23
REMARK                            x       y       z     vdW  Elec       q    Type
REMARK                         _______ _______ _______ _____ _____    ______ ____
ROOT
ATOM      1  C   UNL     1       3.335   4.296  17.276  0.00  0.00    +0.000 C 
ATOM      2  C   UNL     1       3.970   2.957  16.991  0.00  0.00    +0.000 C 
ATOM      3  O   UNL     1       5.334   3.226  16.932  0.00  0.00    +0.000 OA
ATOM      4  C   UNL     1       5.392   4.515  16.348  0.00  0.00    +0.000 C 
ATOM      5  O   UNL     1       4.088   5.102  16.395  0.00  0.00    +0.000 OA
ENDROOT
BRANCH   4   6
ATOM      6  C   UNL     1       6.364   5.410  17.103  0.00  0.00    +0.000 A 
ATOM      7  C   UNL     1       6.450   6.790  16.834  0.00  0.00    +0.000 A 
ATOM      8  C   UNL     1       7.302   7.606  17.586  0.00  0.00    +0.000 A 
ATOM      9  C   UNL     1       8.088   7.052  18.599  0.00  0.00    +0.000 A 
ATOM     10  C   UNL     1       8.015   5.686  18.872  0.00  0.00    +0.000 A 
ATOM     11  C   UNL     1       7.149   4.872  18.140  0.00  0.00    +0.000 A 
ENDBRANCH   4   6
BRANCH   4  12
ATOM     12  C   UNL     1       5.949   4.372  14.923  0.00  0.00    +0.000 A 
ATOM     13  C   UNL     1       5.294   3.647  13.908  0.00  0.00    +0.000 A 
ATOM     14  C   UNL     1       5.844   3.588  12.612  0.00  0.00    +0.000 A 
ATOM     15  C   UNL     1       7.044   4.246  12.321  0.00  0.00    +0.000 A 
ATOM     16  C   UNL     1       7.706   4.957  13.316  0.00  0.00    +0.000 A 
ATOM     17  C   UNL     1       7.167   5.016  14.605  0.00  0.00    +0.000 A 
ENDBRANCH   4  12
BRANCH   1  19
ATOM     18  C   UNL     1       3.188   6.419  18.672  0.00  0.00    +0.000 C 
ATOM     19  C   UNL     1       3.411   4.877  18.766  0.00  0.00    +0.000 C 
BRANCH  19  20
ATOM     20  N   UNL     1       2.500   4.253  19.828  0.00  0.00    +0.000 N 
ATOM     21  C   UNL     1       3.125   3.100  20.531  0.00  0.00    +0.000 C 
ATOM     22  C   UNL     1       2.073   5.230  20.858  0.00  0.00    +0.000 C 
ATOM     23  C   UNL     1       1.238   3.762  19.195  0.00  0.00    +0.000 C 
ENDBRANCH  19  20
ENDBRANCH   1  19
TORSDOF 4
ENDMDL
MODEL 4
REMARK VINA RESULT:      -7.3      0.206      1.667
REMARK  Name = 
REMARK  8 active torsions:
REMARK  status: ('A' for Active; 'I' for Inactive)
REMARK    1  A    between atoms: C_1  and  C_2
REMARK    2  A    between atoms: C_2  and  C_3
REMARK    3  A    between atoms: C_2  and  N_20
REMARK    4  A    between atoms: C_6  and  C_7
REMARK    5  A    between atoms: C_6  and  C_13
REMARK    6  A    between atoms: N_20  and  C_21
REMARK    7  A    between atoms: N_20  and  C_22
REMARK    8  A    between atoms: N_20  and  C_23
REMARK                            x       y       z     vdW  Elec       q    Type
REMARK                         _______ _______ _______ _____ _____    ______ ____
ROOT
ATOM      1  C   UNL     1       3.270   4.248  17.349  0.00  0.00    +0.000 C 
ATOM      2  C   UNL     1       3.942   2.926  17.069  0.00  0.00    +0.000 C 
ATOM      3  O   UNL     1       5.299   3.229  17.029  0.00  0.00    +0.000 OA
ATOM      4  C   UNL     1       5.333   4.521  16.449  0.00  0.00    +0.000 C 
ATOM      5  O   UNL     1       4.014   5.076  16.480  0.00  0.00    +0.000 OA
ENDROOT
BRANCH   4   6
ATOM      6  C   UNL     1       6.272   5.438  17.219  0.00  0.00    +0.000 A 
ATOM      7  C   UNL     1       7.125   4.941  18.222  0.00  0.00    +0.000 A 
ATOM      8  C   UNL     1       8.027   5.791  18.870  0.00  0.00    +0.000 A 
ATOM      9  C   UNL     1       8.074   7.147  18.539  0.00  0.00    +0.000 A 
ATOM     10  C   UNL     1       7.231   7.653  17.548  0.00  0.00    +0.000 A 
ATOM     11  C   UNL     1       6.346   6.804  16.882  0.00  0.00    +0.000 A 
ENDBRANCH   4   6
BRANCH   4  12
ATOM     12  C   UNL     1       5.912   4.396  15.031  0.00  0.00    +0.000 A 
ATOM     13  C   UNL     1       5.257   3.713  13.987  0.00  0.00    +0.000 A 
ATOM     14  C   UNL     1       5.829   3.669  12.701  0.00  0.00    +0.000 A 
ATOM     15  C   UNL     1       7.051   4.301  12.446  0.00  0.00    +0.000 A 
ATOM     16  C   UNL     1       7.713   4.971  13.470  0.00  0.00    +0.000 A 
ATOM     17  C   UNL     1       7.153   5.015  14.750  0.00  0.00    +0.000 A 
ENDBRANCH   4  12
BRANCH   1  19
ATOM     18  C   UNL     1       3.078   6.366  18.745  0.00  0.00    +0.000 C 
ATOM     19  C   UNL     1       3.312   4.826  18.840  0.00  0.00    +0.000 C 
BRANCH  19  20
ATOM     20  N   UNL     1       2.384   4.193  19.883  0.00  0.00    +0.000 N 
ATOM     21  C   UNL     1       1.145   3.620  19.292  0.00  0.00    +0.000 C 
ATOM     22  C   UNL     1       3.049   3.119  20.660  0.00  0.00    +0.000 C 
ATOM     23  C   UNL     1       1.970   5.217  20.890  0.00  0.00    +0.000 C 
ENDBRANCH  19  20
ENDBRANCH   1  19
TORSDOF 4
ENDMDL
MODEL 5
REMARK VINA RESULT:      -6.0      7.525     10.261
REMARK  Name = 
REMARK  8 active torsions:
REMARK  status: ('A' for Active; 'I' for Inactive)
REMARK    1  A    between atoms: C_1  and  C_2
REMARK    2  A    between atoms: C_2  and  C_3
REMARK    3  A    between atoms: C_2  and  N_20
REMARK    4  A    between atoms: C_6  and  C_7
REMARK    5  A    between atoms: C_6  and  C_13
REMARK    6  A    between atoms: N_20  and  C_21
REMARK    7  A    between atoms: N_20  and  C_22
REMARK    8  A    between atoms: N_20  and  C_23
REMARK                            x       y       z     vdW  Elec       q    Type
REMARK                         _______ _______ _______ _____ _____    ______ ____
ROOT
ATOM      1  C   UNL     1      -0.379  12.596  20.929  0.00  0.00    +0.000 C 
ATOM      2  C   UNL     1       0.897  12.816  20.155  0.00  0.00    +0.000 C 
ATOM      3  O   UNL     1       0.697  12.135  18.958  0.00  0.00    +0.000 OA
ATOM      4  C   UNL     1      -0.067  11.007  19.342  0.00  0.00    +0.000 C 
ATOM      5  O   UNL     1      -0.581  11.225  20.661  0.00  0.00    +0.000 OA
ENDROOT
BRANCH   4   6
ATOM      6  C   UNL     1      -1.234  10.789  18.389  0.00  0.00    +0.000 A 
ATOM      7  C   UNL     1      -2.117   9.703  18.545  0.00  0.00    +0.000 A 
ATOM      8  C   UNL     1      -3.220   9.561  17.698  0.00  0.00    +0.000 A 
ATOM      9  C   UNL     1      -3.444  10.487  16.677  0.00  0.00    +0.000 A 
ATOM     10  C   UNL     1      -2.574  11.565  16.509  0.00  0.00    +0.000 A 
ATOM     11  C   UNL     1      -1.485  11.725  17.367  0.00  0.00    +0.000 A 
ENDBRANCH   4   6
BRANCH   4  12
ATOM     12  C   UNL     1       0.825   9.760  19.230  0.00  0.00    +0.000 A 
ATOM     13  C   UNL     1       1.066   8.885  20.307  0.00  0.00    +0.000 A 
ATOM     14  C   UNL     1       1.865   7.740  20.124  0.00  0.00    +0.000 A 
ATOM     15  C   UNL     1       2.428   7.461  18.874  0.00  0.00    +0.000 A 
ATOM     16  C   UNL     1       2.206   8.322  17.804  0.00  0.00    +0.000 A 
ATOM     17  C   UNL     1       1.417   9.462  17.980  0.00  0.00    +0.000 A 
ENDBRANCH   4  12
BRANCH   1  19
ATOM     18  C   UNL     1      -2.922  12.645  21.025  0.00  0.00    +0.000 C 
ATOM     19  C   UNL     1      -1.677  13.440  20.521  0.00  0.00    +0.000 C 
BRANCH  19  20
ATOM     20  N   UNL     1      -1.747  14.907  20.959  0.00  0.00    +0.000 N 
ATOM     21  C   UNL     1      -1.087  15.159  22.267  0.00  0.00    +0.000 C 
ATOM     22  C   UNL     1      -1.142  15.827  19.966  0.00  0.00    +0.000 C 
ATOM     23  C   UNL     1      -3.174  15.335  21.085  0.00  0.00    +0.000 C 
ENDBRANCH  19  20
ENDBRANCH   1  19
TORSDOF 4
ENDMDL
MODEL 6
REMARK VINA RESULT:      -6.0      2.293      5.024
REMARK  Name = 
REMARK  8 active torsions:
REMARK  status: ('A' for Active; 'I' for Inactive)
REMARK    1  A    between atoms: C_1  and  C_2
REMARK    2  A    between atoms: C_2  and  C_3
REMARK    3  A    between atoms: C_2  and  N_20
REMARK    4  A    between atoms: C_6  and  C_7
REMARK    5  A    between atoms: C_6  and  C_13
REMARK    6  A    between atoms: N_20  and  C_21
REMARK    7  A    between atoms: N_20  and  C_22
REMARK    8  A    between atoms: N_20  and  C_23
REMARK                            x       y       z     vdW  Elec       q    Type
REMARK                         _______ _______ _______ _____ _____    ______ ____
ROOT
ATOM      1  C   UNL     1       2.854   7.615  19.392  0.00  0.00    +0.000 C 
ATOM      2  C   UNL     1       2.830   7.766  17.891  0.00  0.00    +0.000 C 
ATOM      3  O   UNL     1       2.708   6.465  17.414  0.00  0.00    +0.000 OA
ATOM      4  C   UNL     1       3.461   5.701  18.339  0.00  0.00    +0.000 C 
ATOM      5  O   UNL     1       3.712   6.500  19.500  0.00  0.00    +0.000 OA
ENDROOT
BRANCH   4   6
ATOM      6  C   UNL     1       2.702   4.450  18.757  0.00  0.00    +0.000 A 
ATOM      7  C   UNL     1       1.474   4.103  18.160  0.00  0.00    +0.000 A 
ATOM      8  C   UNL     1       0.828   2.914  18.512  0.00  0.00    +0.000 A 
ATOM      9  C   UNL     1       1.387   2.070  19.474  0.00  0.00    +0.000 A 
ATOM     10  C   UNL     1       2.601   2.405  20.076  0.00  0.00    +0.000 A 
ATOM     11  C   UNL     1       3.262   3.579  19.710  0.00  0.00    +0.000 A 
ENDBRANCH   4   6
BRANCH   4  12
ATOM     12  C   UNL     1       4.740   5.220  17.637  0.00  0.00    +0.000 A 
ATOM     13  C   UNL     1       4.731   4.481  16.438  0.00  0.00    +0.000 A 
ATOM     14  C   UNL     1       5.944   4.103  15.829  0.00  0.00    +0.000 A 
ATOM     15  C   UNL     1       7.167   4.456  16.408  0.00  0.00    +0.000 A 
ATOM     16  C   UNL     1       7.191   5.177  17.597  0.00  0.00    +0.000 A 
ATOM     17  C   UNL     1       5.991   5.552  18.208  0.00  0.00    +0.000 A 
ENDBRANCH   4  12
BRANCH   1  19
ATOM     18  C   UNL     1       1.736   6.176  21.168  0.00  0.00    +0.000 C 
ATOM     19  C   UNL     1       1.475   7.333  20.154  0.00  0.00    +0.000 C 
BRANCH  19  20
ATOM     20  N   UNL     1       0.776   8.514  20.836  0.00  0.00    +0.000 N 
ATOM     21  C   UNL     1       0.567   9.673  19.928  0.00  0.00    +0.000 C 
ATOM     22  C   UNL     1      -0.543   8.145  21.405  0.00  0.00    +0.000 C 
ATOM     23  C   UNL     1       1.592   8.992  21.994  0.00  0.00    +0.000 C 
ENDBRANCH  19  20
ENDBRANCH   1  19
TORSDOF 4
ENDMDL
MODEL 7
REMARK VINA RESULT:      -5.9      7.588     10.319
REMARK  Name = 
REMARK  8 active torsions:
REMARK  status: ('A' for Active; 'I' for Inactive)
REMARK    1  A    between atoms: C_1  and  C_2
REMARK    2  A    between atoms: C_2  and  C_3
REMARK    3  A    between atoms: C_2  and  N_20
REMARK    4  A    between atoms: C_6  and  C_7
REMARK    5  A    between atoms: C_6  and  C_13
REMARK    6  A    between atoms: N_20  and  C_21
REMARK    7  A    between atoms: N_20  and  C_22
REMARK    8  A    between atoms: N_20  and  C_23
REMARK                            x       y       z     vdW  Elec       q    Type
REMARK                         _______ _______ _______ _____ _____    ______ ____
ROOT
ATOM      1  C   UNL     1      -0.219  12.851  20.643  0.00  0.00    +0.000 C 
ATOM      2  C   UNL     1       1.020  12.964  19.791  0.00  0.00    +0.000 C 
ATOM      3  O   UNL     1       0.728  12.214  18.656  0.00  0.00    +0.000 OA
ATOM      4  C   UNL     1      -0.058  11.148  19.156  0.00  0.00    +0.000 C 
ATOM      5  O   UNL     1      -0.490  11.475  20.481  0.00  0.00    +0.000 OA
ENDROOT
BRANCH   4   6
ATOM      6  C   UNL     1      -1.283  10.918  18.282  0.00  0.00    +0.000 A 
ATOM      7  C   UNL     1      -1.555  11.738  17.170  0.00  0.00    +0.000 A 
ATOM      8  C   UNL     1      -2.649  11.467  16.342  0.00  0.00    +0.000 A 
ATOM      9  C   UNL     1      -3.492  10.390  16.624  0.00  0.00    +0.000 A 
ATOM     10  C   UNL     1      -3.235   9.572  17.725  0.00  0.00    +0.000 A 
ATOM     11  C   UNL     1      -2.130   9.824  18.541  0.00  0.00    +0.000 A 
ENDBRANCH   4   6
BRANCH   4  12
ATOM     12  C   UNL     1       0.776   9.859  19.084  0.00  0.00    +0.000 A 
ATOM     13  C   UNL     1       1.393   9.405  17.903  0.00  0.00    +0.000 A 
ATOM     14  C   UNL     1       2.175   8.233  17.917  0.00  0.00    +0.000 A 
ATOM     15  C   UNL     1       2.345   7.509  19.101  0.00  0.00    +0.000 A 
ATOM     16  C   UNL     1       1.733   7.940  20.274  0.00  0.00    +0.000 A 
ATOM     17  C   UNL     1       0.953   9.100  20.265  0.00  0.00    +0.000 A 
ENDBRANCH   4  12
BRANCH   1  19
ATOM     18  C   UNL     1      -2.757  12.973  20.796  0.00  0.00    +0.000 C 
ATOM     19  C   UNL     1      -1.503  13.722  20.246  0.00  0.00    +0.000 C 
BRANCH  19  20
ATOM     20  N   UNL     1      -1.523  15.199  20.651  0.00  0.00    +0.000 N 
ATOM     21  C   UNL     1      -0.886  16.090  19.645  0.00  0.00    +0.000 C 
ATOM     22  C   UNL     1      -2.895  15.705  20.895  0.00  0.00    +0.000 C 
ATOM     23  C   UNL     1      -0.793  15.385  21.942  0.00  0.00    +0.000 C 
ENDBRANCH  19  20
ENDBRANCH   1  19
TORSDOF 4
ENDMDL
MODEL 8
REMARK VINA RESULT:      -5.9      8.969     11.058
REMARK  Name = 
REMARK  8 active torsions:
REMARK  status: ('A' for Active; 'I' for Inactive)
REMARK    1  A    between atoms: C_1  and  C_2
REMARK    2  A    between atoms: C_2  and  C_3
REMARK    3  A    between atoms: C_2  and  N_20
REMARK    4  A    between atoms: C_6  and  C_7
REMARK    5  A    between atoms: C_6  and  C_13
REMARK    6  A    between atoms: N_20  and  C_21
REMARK    7  A    between atoms: N_20  and  C_22
REMARK    8  A    between atoms: N_20  and  C_23
REMARK                            x       y       z     vdW  Elec       q    Type
REMARK                         _______ _______ _______ _____ _____    ______ ____
ROOT
ATOM      1  C   UNL     1       0.591  14.053  19.583  0.00  0.00    +0.000 C 
ATOM      2  C   UNL     1      -0.858  14.474  19.575  0.00  0.00    +0.000 C 
ATOM      3  O   UNL     1      -1.530  13.414  20.176  0.00  0.00    +0.000 OA
ATOM      4  C   UNL     1      -0.808  12.276  19.741  0.00  0.00    +0.000 C 
ATOM      5  O   UNL     1       0.443  12.705  19.193  0.00  0.00    +0.000 OA
ENDROOT
BRANCH   4   6
ATOM      6  C   UNL     1      -0.539  11.327  20.900  0.00  0.00    +0.000 A 
ATOM      7  C   UNL     1       0.463  10.340  20.823  0.00  0.00    +0.000 A 
ATOM      8  C   UNL     1       0.738   9.523  21.924  0.00  0.00    +0.000 A 
ATOM      9  C   UNL     1       0.006   9.668  23.104  0.00  0.00    +0.000 A 
ATOM     10  C   UNL     1      -0.992  10.640  23.192  0.00  0.00    +0.000 A 
ATOM     11  C   UNL     1      -1.254  11.474  22.104  0.00  0.00    +0.000 A 
ENDBRANCH   4   6
BRANCH   4  12
ATOM     12  C   UNL     1      -1.683  11.505  18.741  0.00  0.00    +0.000 A 
ATOM     13  C   UNL     1      -1.169  10.551  17.841  0.00  0.00    +0.000 A 
ATOM     14  C   UNL     1      -2.035   9.854  16.976  0.00  0.00    +0.000 A 
ATOM     15  C   UNL     1      -3.411  10.101  17.000  0.00  0.00    +0.000 A 
ATOM     16  C   UNL     1      -3.932  11.048  17.876  0.00  0.00    +0.000 A 
ATOM     17  C   UNL     1      -3.077  11.746  18.735  0.00  0.00    +0.000 A 
ENDBRANCH   4  12
BRANCH   1  19
ATOM     18  C   UNL     1       2.729  13.340  20.764  0.00  0.00    +0.000 C 
ATOM     19  C   UNL     1       1.409  14.150  20.955  0.00  0.00    +0.000 C 
BRANCH  19  20
ATOM     20  N   UNL     1       1.696  15.544  21.524  0.00  0.00    +0.000 N 
ATOM     21  C   UNL     1       1.835  16.587  20.473  0.00  0.00    +0.000 C 
ATOM     22  C   UNL     1       0.651  15.999  22.472  0.00  0.00    +0.000 C 
ATOM     23  C   UNL     1       2.968  15.524  22.309  0.00  0.00    +0.000 C 
ENDBRANCH  19  20
ENDBRANCH   1  19
TORSDOF 4
ENDMDL
MODEL 9
REMARK VINA RESULT:      -5.9      2.294      4.885
REMARK  Name = 
REMARK  8 active torsions:
REMARK  status: ('A' for Active; 'I' for Inactive)
REMARK    1  A    between atoms: C_1  and  C_2
REMARK    2  A    between atoms: C_2  and  C_3
REMARK    3  A    between atoms: C_2  and  N_20
REMARK    4  A    between atoms: C_6  and  C_7
REMARK    5  A    between atoms: C_6  and  C_13
REMARK    6  A    between atoms: N_20  and  C_21
REMARK    7  A    between atoms: N_20  and  C_22
REMARK    8  A    between atoms: N_20  and  C_23
REMARK                            x       y       z     vdW  Elec       q    Type
REMARK                         _______ _______ _______ _____ _____    ______ ____
ROOT
ATOM      1  C   UNL     1       2.866   7.661  19.374  0.00  0.00    +0.000 C 
ATOM      2  C   UNL     1       2.834   7.818  17.874  0.00  0.00    +0.000 C 
ATOM      3  O   UNL     1       2.736   6.517  17.391  0.00  0.00    +0.000 OA
ATOM      4  C   UNL     1       3.507   5.764  18.310  0.00  0.00    +0.000 C 
ATOM      5  O   UNL     1       3.747   6.562  19.474  0.00  0.00    +0.000 OA
ENDROOT
BRANCH   4   6
ATOM      6  C   UNL     1       2.774   4.496  18.725  0.00  0.00    +0.000 A 
ATOM      7  C   UNL     1       1.541   4.138  18.146  0.00  0.00    +0.000 A 
ATOM      8  C   UNL     1       0.919   2.935  18.493  0.00  0.00    +0.000 A 
ATOM      9  C   UNL     1       1.508   2.087  19.434  0.00  0.00    +0.000 A 
ATOM     10  C   UNL     1       2.727   2.432  20.017  0.00  0.00    +0.000 A 
ATOM     11  C   UNL     1       3.364   3.621  19.656  0.00  0.00    +0.000 A 
ENDBRANCH   4   6
BRANCH   4  12
ATOM     12  C   UNL     1       4.793   5.311  17.601  0.00  0.00    +0.000 A 
ATOM     13  C   UNL     1       6.081   5.523  18.131  0.00  0.00    +0.000 A 
ATOM     14  C   UNL     1       7.216   5.048  17.445  0.00  0.00    +0.000 A 
ATOM     15  C   UNL     1       7.077   4.365  16.232  0.00  0.00    +0.000 A 
ATOM     16  C   UNL     1       5.811   4.157  15.693  0.00  0.00    +0.000 A 
ATOM     17  C   UNL     1       4.681   4.629  16.367  0.00  0.00    +0.000 A 
ENDBRANCH   4  12
BRANCH   1  19
ATOM     18  C   UNL     1       1.784   6.191  21.147  0.00  0.00    +0.000 C 
ATOM     19  C   UNL     1       1.496   7.347  20.140  0.00  0.00    +0.000 C 
BRANCH  19  20
ATOM     20  N   UNL     1       0.776   8.511  20.830  0.00  0.00    +0.000 N 
ATOM     21  C   UNL     1       0.573   9.684  19.938  0.00  0.00    +0.000 C 
ATOM     22  C   UNL     1      -0.549   8.123  21.369  0.00  0.00    +0.000 C 
ATOM     23  C   UNL     1       1.568   8.975  22.009  0.00  0.00    +0.000 C 
ENDBRANCH  19  20
ENDBRANCH   1  19
TORSDOF 4
ENDMDL
