MODEL 1
REMARK VINA RESULT:      -7.2      0.000      0.000
REMARK  Name = 
REMARK  5 active torsions:
REMARK  status: ('A' for Active; 'I' for Inactive)
REMARK    1  A    between atoms: O_1  and  C_2
REMARK    2  A    between atoms: C_7  and  O_8
REMARK    3  A    between atoms: C_13  and  O_14
REMARK    4  A    between atoms: C_15  and  O_16
REMARK    5  A    between atoms: C_20  and  O_21
REMARK                            x       y       z     vdW  Elec       q    Type
REMARK                         _______ _______ _______ _____ _____    ______ ____
ROOT
ATOM      1  C   UNL     1       2.495   7.082  19.047  0.00  0.00    +0.000 A 
ATOM      2  C   UNL     1       2.908   5.900  19.670  0.00  0.00    +0.000 A 
ATOM      3  C   UNL     1       3.894   5.175  19.033  0.00  0.00    +0.000 A 
ATOM      4  C   UNL     1       4.279   5.467  17.733  0.00  0.00    +0.000 A 
ATOM      5  C   UNL     1       3.951   6.674  17.145  0.00  0.00    +0.000 A 
ATOM      6  C   UNL     1       3.092   7.508  17.849  0.00  0.00    +0.000 A 
ATOM      7  C   UNL     1       5.290   4.426  17.375  0.00  0.00    +0.000 C 
ATOM      8  C   UNL     1       5.736   4.372  15.960  0.00  0.00    +0.000 A 
ATOM      9  C   UNL     1       4.925   3.761  14.979  0.00  0.00    +0.000 A 
ATOM     10  C   UNL     1       5.306   3.746  13.642  0.00  0.00    +0.000 A 
ATOM     11  C   UNL     1       6.481   4.390  13.288  0.00  0.00    +0.000 A 
ATOM     12  C   UNL     1       7.301   4.972  14.261  0.00  0.00    +0.000 A 
ATOM     13  C   UNL     1       6.954   4.911  15.611  0.00  0.00    +0.000 A 
ATOM     14  O   UNL     1       7.823   5.284  16.583  0.00  0.00    +0.000 OA
ATOM     15  C   UNL     1       7.250   5.553  17.878  0.00  0.00    +0.000 C 
ATOM     16  C   UNL     1       6.308   4.457  18.628  0.00  0.00    +0.000 C 
ATOM     17  C   UNL     1       4.914   4.183  19.561  0.00  0.00    +0.000 C 
ENDROOT
BRANCH   1  18
ATOM     18  O   UNL     1       1.561   7.880  19.649  0.00  0.00    +0.000 OA
ATOM     19  H   UNL     1       1.387   8.634  19.064  0.00  0.00    +0.000 HD
ENDBRANCH   1  18
BRANCH   6  20
ATOM     20  O   UNL     1       2.911   8.789  17.402  0.00  0.00    +0.000 OA
ATOM     21  H   UNL     1       3.775   9.095  17.101  0.00  0.00    +0.000 HD
ENDBRANCH   6  20
BRANCH  11  22
ATOM     22  O   UNL     1       6.883   4.461  11.977  0.00  0.00    +0.000 OA
ATOM     23  H   UNL     1       6.905   3.558  11.614  0.00  0.00    +0.000 HD
ENDBRANCH  11  22
BRANCH  12  24
ATOM     24  O   UNL     1       8.431   5.631  13.858  0.00  0.00    +0.000 OA
ATOM     25  H   UNL     1       8.838   5.037  13.198  0.00  0.00    +0.000 HD
ENDBRANCH  12  24
BRANCH  16  26
ATOM     26  O   UNL     1       6.554   5.411  19.792  0.00  0.00    +0.000 OA
ATOM     27  H   UNL     1       6.458   6.312  19.430  0.00  0.00    +0.000 HD
ENDBRANCH  16  26
TORSDOF 5
ENDMDL
MODEL 2
REMARK VINA RESULT:      -6.8      2.519      5.655
REMARK  Name = 
REMARK  5 active torsions:
REMARK  status: ('A' for Active; 'I' for Inactive)
REMARK    1  A    between atoms: O_1  and  C_2
REMARK    2  A    between atoms: C_7  and  O_8
REMARK    3  A    between atoms: C_13  and  O_14
REMARK    4  A    between atoms: C_15  and  O_16
REMARK    5  A    between atoms: C_20  and  O_21
REMARK                            x       y       z     vdW  Elec       q    Type
REMARK                         _______ _______ _______ _____ _____    ______ ____
ROOT
ATOM      1  C   UNL     1       7.128   5.373  14.584  0.00  0.00    +0.000 A 
ATOM      2  C   UNL     1       7.234   6.290  15.634  0.00  0.00    +0.000 A 
ATOM      3  C   UNL     1       6.437   6.065  16.738  0.00  0.00    +0.000 A 
ATOM      4  C   UNL     1       5.414   5.129  16.711  0.00  0.00    +0.000 A 
ATOM      5  C   UNL     1       5.358   4.162  15.726  0.00  0.00    +0.000 A 
ATOM      6  C   UNL     1       6.270   4.264  14.685  0.00  0.00    +0.000 A 
ATOM      7  C   UNL     1       4.741   5.239  18.041  0.00  0.00    +0.000 C 
ATOM      8  C   UNL     1       3.474   4.486  18.223  0.00  0.00    +0.000 A 
ATOM      9  C   UNL     1       2.264   4.987  17.695  0.00  0.00    +0.000 A 
ATOM     10  C   UNL     1       1.079   4.269  17.815  0.00  0.00    +0.000 A 
ATOM     11  C   UNL     1       1.124   3.025  18.426  0.00  0.00    +0.000 A 
ATOM     12  C   UNL     1       2.316   2.539  18.975  0.00  0.00    +0.000 A 
ATOM     13  C   UNL     1       3.484   3.301  18.924  0.00  0.00    +0.000 A 
ATOM     14  O   UNL     1       4.592   2.946  19.621  0.00  0.00    +0.000 OA
ATOM     15  C   UNL     1       5.829   3.557  19.203  0.00  0.00    +0.000 C 
ATOM     16  C   UNL     1       5.973   5.173  19.082  0.00  0.00    +0.000 C 
ATOM     17  C   UNL     1       6.587   6.483  18.189  0.00  0.00    +0.000 C 
ENDROOT
BRANCH   1  18
ATOM     18  O   UNL     1       7.927   5.501  13.482  0.00  0.00    +0.000 OA
ATOM     19  H   UNL     1       8.446   6.315  13.580  0.00  0.00    +0.000 HD
ENDBRANCH   1  18
BRANCH   6  20
ATOM     20  O   UNL     1       6.384   3.219  13.808  0.00  0.00    +0.000 OA
ATOM     21  H   UNL     1       7.201   3.368  13.316  0.00  0.00    +0.000 HD
ENDBRANCH   6  20
BRANCH  11  22
ATOM     22  O   UNL     1       0.001   2.242  18.524  0.00  0.00    +0.000 OA
ATOM     23  H   UNL     1      -0.137   2.021  19.462  0.00  0.00    +0.000 HD
ENDBRANCH  11  22
BRANCH  12  24
ATOM     24  O   UNL     1       2.320   1.288  19.532  0.00  0.00    +0.000 OA
ATOM     25  H   UNL     1       3.266   1.083  19.665  0.00  0.00    +0.000 HD
ENDBRANCH  12  24
BRANCH  16  26
ATOM     26  O   UNL     1       7.444   4.786  18.986  0.00  0.00    +0.000 OA
ATOM     27  H   UNL     1       7.738   5.051  18.095  0.00  0.00    +0.000 HD
ENDBRANCH  16  26
TORSDOF 5
ENDMDL
MODEL 3
REMARK VINA RESULT:      -6.4      2.943      5.819
REMARK  Name = 
REMARK  5 active torsions:
REMARK  status: ('A' for Active; 'I' for Inactive)
REMARK    1  A    between atoms: O_1  and  C_2
REMARK    2  A    between atoms: C_7  and  O_8
REMARK    3  A    between atoms: C_13  and  O_14
REMARK    4  A    between atoms: C_15  and  O_16
REMARK    5  A    between atoms: C_20  and  O_21
REMARK                            x       y       z     vdW  Elec       q    Type
REMARK                         _______ _______ _______ _____ _____    ______ ____
ROOT
ATOM      1  C   UNL     1       7.510   6.737  18.390  0.00  0.00    +0.000 A 
ATOM      2  C   UNL     1       6.748   7.292  17.358  0.00  0.00    +0.000 A 
ATOM      3  C   UNL     1       5.441   6.861  17.251  0.00  0.00    +0.000 A 
ATOM      4  C   UNL     1       4.981   5.767  17.967  0.00  0.00    +0.000 A 
ATOM      5  C   UNL     1       5.686   5.273  19.048  0.00  0.00    +0.000 A 
ATOM      6  C   UNL     1       6.942   5.814  19.286  0.00  0.00    +0.000 A 
ATOM      7  C   UNL     1       3.567   5.569  17.525  0.00  0.00    +0.000 C 
ATOM      8  C   UNL     1       2.879   4.336  17.985  0.00  0.00    +0.000 A 
ATOM      9  C   UNL     1       3.132   3.100  17.351  0.00  0.00    +0.000 A 
ATOM     10  C   UNL     1       2.533   1.929  17.801  0.00  0.00    +0.000 A 
ATOM     11  C   UNL     1       1.717   1.997  18.920  0.00  0.00    +0.000 A 
ATOM     12  C   UNL     1       1.443   3.225  19.532  0.00  0.00    +0.000 A 
ATOM     13  C   UNL     1       1.981   4.408  19.025  0.00  0.00    +0.000 A 
ATOM     14  O   UNL     1       1.571   5.621  19.472  0.00  0.00    +0.000 OA
ATOM     15  C   UNL     1       2.442   6.732  19.181  0.00  0.00    +0.000 C 
ATOM     16  C   UNL     1       2.930   7.047  17.661  0.00  0.00    +0.000 C 
ATOM     17  C   UNL     1       4.213   7.517  16.648  0.00  0.00    +0.000 C 
ENDROOT
BRANCH   1  18
ATOM     18  O   UNL     1       8.797   7.157  18.590  0.00  0.00    +0.000 OA
ATOM     19  H   UNL     1       9.379   6.618  18.032  0.00  0.00    +0.000 HD
ENDBRANCH   1  18
BRANCH   6  20
ATOM     20  O   UNL     1       7.579   5.505  20.457  0.00  0.00    +0.000 OA
ATOM     21  H   UNL     1       7.029   4.845  20.897  0.00  0.00    +0.000 HD
ENDBRANCH   6  20
BRANCH  11  22
ATOM     22  O   UNL     1       1.143   0.868  19.449  0.00  0.00    +0.000 OA
ATOM     23  H   UNL     1       1.675   0.583  20.213  0.00  0.00    +0.000 HD
ENDBRANCH  11  22
BRANCH  12  24
ATOM     24  O   UNL     1       0.664   3.236  20.659  0.00  0.00    +0.000 OA
ATOM     25  H   UNL     1      -0.158   2.780  20.391  0.00  0.00    +0.000 HD
ENDBRANCH  12  24
BRANCH  16  26
ATOM     26  O   UNL     1       3.359   8.346  18.332  0.00  0.00    +0.000 OA
ATOM     27  H   UNL     1       4.032   8.101  18.995  0.00  0.00    +0.000 HD
ENDBRANCH  16  26
TORSDOF 5
ENDMDL
MODEL 4
REMARK VINA RESULT:      -6.3      9.116     11.440
REMARK  Name = 
REMARK  5 active torsions:
REMARK  status: ('A' for Active; 'I' for Inactive)
REMARK    1  A    between atoms: O_1  and  C_2
REMARK    2  A    between atoms: C_7  and  O_8
REMARK    3  A    between atoms: C_13  and  O_14
REMARK    4  A    between atoms: C_15  and  O_16
REMARK    5  A    between atoms: C_20  and  O_21
REMARK                            x       y       z     vdW  Elec       q    Type
REMARK                         _______ _______ _______ _____ _____    ______ ____
ROOT
ATOM      1  C   UNL     1      10.625  15.306  17.188  0.00  0.00    +0.000 A 
ATOM      2  C   UNL     1      11.750  14.707  17.763  0.00  0.00    +0.000 A 
ATOM      3  C   UNL     1      11.558  14.050  18.962  0.00  0.00    +0.000 A 
ATOM      4  C   UNL     1      10.377  14.182  19.677  0.00  0.00    +0.000 A 
ATOM      5  C   UNL     1       9.236  14.688  19.083  0.00  0.00    +0.000 A 
ATOM      6  C   UNL     1       9.364  15.201  17.799  0.00  0.00    +0.000 A 
ATOM      7  C   UNL     1      10.585  13.401  20.934  0.00  0.00    +0.000 C 
ATOM      8  C   UNL     1       9.547  13.527  21.989  0.00  0.00    +0.000 A 
ATOM      9  C   UNL     1       9.521  14.661  22.831  0.00  0.00    +0.000 A 
ATOM     10  C   UNL     1       8.527  14.816  23.791  0.00  0.00    +0.000 A 
ATOM     11  C   UNL     1       7.533  13.852  23.869  0.00  0.00    +0.000 A 
ATOM     12  C   UNL     1       7.573  12.715  23.056  0.00  0.00    +0.000 A 
ATOM     13  C   UNL     1       8.619  12.524  22.152  0.00  0.00    +0.000 A 
ATOM     14  O   UNL     1       8.789  11.344  21.504  0.00  0.00    +0.000 OA
ATOM     15  C   UNL     1       9.631  11.378  20.334  0.00  0.00    +0.000 C 
ATOM     16  C   UNL     1      11.140  11.983  20.397  0.00  0.00    +0.000 C 
ATOM     17  C   UNL     1      12.328  12.924  19.626  0.00  0.00    +0.000 C 
ENDROOT
BRANCH   1  18
ATOM     18  O   UNL     1      10.729  15.927  15.973  0.00  0.00    +0.000 OA
ATOM     19  H   UNL     1      11.451  15.506  15.481  0.00  0.00    +0.000 HD
ENDBRANCH   1  18
BRANCH   6  20
ATOM     20  O   UNL     1       8.229  15.516  17.103  0.00  0.00    +0.000 OA
ATOM     21  H   UNL     1       7.669  16.015  17.711  0.00  0.00    +0.000 HD
ENDBRANCH   6  20
BRANCH  11  22
ATOM     22  O   UNL     1       6.492  13.977  24.756  0.00  0.00    +0.000 OA
ATOM     23  H   UNL     1       5.911  13.202  24.656  0.00  0.00    +0.000 HD
ENDBRANCH  11  22
BRANCH  12  24
ATOM     24  O   UNL     1       6.548  11.811  23.141  0.00  0.00    +0.000 OA
ATOM     25  H   UNL     1       5.831  12.297  23.593  0.00  0.00    +0.000 HD
ENDBRANCH  12  24
BRANCH  16  26
ATOM     26  O   UNL     1      11.205  11.297  19.037  0.00  0.00    +0.000 OA
ATOM     27  H   UNL     1      12.143  11.072  18.890  0.00  0.00    +0.000 HD
ENDBRANCH  16  26
TORSDOF 5
ENDMDL
MODEL 5
REMARK VINA RESULT:      -6.0     10.881     15.349
REMARK  Name = 
REMARK  5 active torsions:
REMARK  status: ('A' for Active; 'I' for Inactive)
REMARK    1  A    between atoms: O_1  and  C_2
REMARK    2  A    between atoms: C_7  and  O_8
REMARK    3  A    between atoms: C_13  and  O_14
REMARK    4  A    between atoms: C_15  and  O_16
REMARK    5  A    between atoms: C_20  and  O_21
REMARK                            x       y       z     vdW  Elec       q    Type
REMARK                         _______ _______ _______ _____ _____    ______ ____
ROOT
ATOM      1  C   UNL     1      -3.640  11.430  17.489  0.00  0.00    +0.000 A 
ATOM      2  C   UNL     1      -4.861  11.597  16.829  0.00  0.00    +0.000 A 
ATOM      3  C   UNL     1      -5.879  12.191  17.547  0.00  0.00    +0.000 A 
ATOM      4  C   UNL     1      -5.778  12.386  18.916  0.00  0.00    +0.000 A 
ATOM      5  C   UNL     1      -4.557  12.313  19.559  0.00  0.00    +0.000 A 
ATOM      6  C   UNL     1      -3.470  11.883  18.809  0.00  0.00    +0.000 A 
ATOM      7  C   UNL     1      -7.091  12.966  19.333  0.00  0.00    +0.000 C 
ATOM      8  C   UNL     1      -7.342  13.096  20.791  0.00  0.00    +0.000 A 
ATOM      9  C   UNL     1      -7.725  11.970  21.551  0.00  0.00    +0.000 A 
ATOM     10  C   UNL     1      -7.917  12.065  22.925  0.00  0.00    +0.000 A 
ATOM     11  C   UNL     1      -7.675  13.286  23.538  0.00  0.00    +0.000 A 
ATOM     12  C   UNL     1      -7.323  14.409  22.783  0.00  0.00    +0.000 A 
ATOM     13  C   UNL     1      -7.214  14.326  21.394  0.00  0.00    +0.000 A 
ATOM     14  O   UNL     1      -7.075  15.436  20.626  0.00  0.00    +0.000 OA
ATOM     15  C   UNL     1      -6.586  15.225  19.287  0.00  0.00    +0.000 C 
ATOM     16  C   UNL     1      -7.310  14.171  18.281  0.00  0.00    +0.000 C 
ATOM     17  C   UNL     1      -7.107  12.963  17.101  0.00  0.00    +0.000 C 
ENDROOT
BRANCH   1  18
ATOM     18  O   UNL     1      -2.570  10.900  16.822  0.00  0.00    +0.000 OA
ATOM     19  H   UNL     1      -1.866  11.567  16.803  0.00  0.00    +0.000 HD
ENDBRANCH   1  18
BRANCH   6  20
ATOM     20  O   UNL     1      -2.217  11.996  19.346  0.00  0.00    +0.000 OA
ATOM     21  H   UNL     1      -2.038  11.159  19.793  0.00  0.00    +0.000 HD
ENDBRANCH   6  20
BRANCH  11  22
ATOM     22  O   UNL     1      -7.790  13.431  24.899  0.00  0.00    +0.000 OA
ATOM     23  H   UNL     1      -7.216  12.769  25.326  0.00  0.00    +0.000 HD
ENDBRANCH  11  22
BRANCH  12  24
ATOM     24  O   UNL     1      -7.056  15.582  23.437  0.00  0.00    +0.000 OA
ATOM     25  H   UNL     1      -7.398  16.277  22.842  0.00  0.00    +0.000 HD
ENDBRANCH  12  24
BRANCH  16  26
ATOM     26  O   UNL     1      -6.422  14.900  17.279  0.00  0.00    +0.000 OA
ATOM     27  H   UNL     1      -6.668  15.843  17.333  0.00  0.00    +0.000 HD
ENDBRANCH  16  26
TORSDOF 5
ENDMDL
MODEL 6
REMARK VINA RESULT:      -6.0      9.529     10.987
REMARK  Name = 
REMARK  5 active torsions:
REMARK  status: ('A' for Active; 'I' for Inactive)
REMARK    1  A    between atoms: O_1  and  C_2
REMARK    2  A    between atoms: C_7  and  O_8
REMARK    3  A    between atoms: C_13  and  O_14
REMARK    4  A    between atoms: C_15  and  O_16
REMARK    5  A    between atoms: C_20  and  O_21
REMARK                            x       y       z     vdW  Elec       q    Type
REMARK                         _______ _______ _______ _____ _____    ______ ____
ROOT
ATOM      1  C   UNL     1       4.771  16.481  19.000  0.00  0.00    +0.000 A 
ATOM      2  C   UNL     1       5.607  17.275  19.789  0.00  0.00    +0.000 A 
ATOM      3  C   UNL     1       6.964  17.045  19.681  0.00  0.00    +0.000 A 
ATOM      4  C   UNL     1       7.457  15.932  19.018  0.00  0.00    +0.000 A 
ATOM      5  C   UNL     1       6.657  15.197  18.164  0.00  0.00    +0.000 A 
ATOM      6  C   UNL     1       5.308  15.525  18.121  0.00  0.00    +0.000 A 
ATOM      7  C   UNL     1       8.941  15.993  19.189  0.00  0.00    +0.000 C 
ATOM      8  C   UNL     1       9.723  14.811  18.745  0.00  0.00    +0.000 A 
ATOM      9  C   UNL     1       9.790  13.656  19.554  0.00  0.00    +0.000 A 
ATOM     10  C   UNL     1      10.477  12.524  19.130  0.00  0.00    +0.000 A 
ATOM     11  C   UNL     1      11.057  12.541  17.870  0.00  0.00    +0.000 A 
ATOM     12  C   UNL     1      11.016  13.694  17.079  0.00  0.00    +0.000 A 
ATOM     13  C   UNL     1      10.396  14.854  17.545  0.00  0.00    +0.000 A 
ATOM     14  O   UNL     1      10.518  16.035  16.889  0.00  0.00    +0.000 OA
ATOM     15  C   UNL     1       9.548  17.048  17.219  0.00  0.00    +0.000 C 
ATOM     16  C   UNL     1       9.298  17.508  18.760  0.00  0.00    +0.000 C 
ATOM     17  C   UNL     1       8.160  17.940  19.948  0.00  0.00    +0.000 C 
ENDROOT
BRANCH   1  18
ATOM     18  O   UNL     1       3.419  16.690  19.014  0.00  0.00    +0.000 OA
ATOM     19  H   UNL     1       3.203  17.309  18.300  0.00  0.00    +0.000 HD
ENDBRANCH   1  18
BRANCH   6  20
ATOM     20  O   UNL     1       4.529  14.968  17.144  0.00  0.00    +0.000 OA
ATOM     21  H   UNL     1       5.072  14.293  16.717  0.00  0.00    +0.000 HD
ENDBRANCH   6  20
BRANCH  11  22
ATOM     22  O   UNL     1      11.700  11.436  17.370  0.00  0.00    +0.000 OA
ATOM     23  H   UNL     1      12.081  11.669  16.505  0.00  0.00    +0.000 HD
ENDBRANCH  11  22
BRANCH  12  24
ATOM     24  O   UNL     1      11.567  13.650  15.826  0.00  0.00    +0.000 OA
ATOM     25  H   UNL     1      12.513  13.459  15.983  0.00  0.00    +0.000 HD
ENDBRANCH  12  24
BRANCH  16  26
ATOM     26  O   UNL     1       8.552  18.628  18.043  0.00  0.00    +0.000 OA
ATOM     27  H   UNL     1       8.894  18.641  17.129  0.00  0.00    +0.000 HD
ENDBRANCH  16  26
TORSDOF 5
ENDMDL
MODEL 7
REMARK VINA RESULT:      -5.9      9.907     13.205
REMARK  Name = 
REMARK  5 active torsions:
REMARK  status: ('A' for Active; 'I' for Inactive)
REMARK    1  A    between atoms: O_1  and  C_2
REMARK    2  A    between atoms: C_7  and  O_8
REMARK    3  A    between atoms: C_13  and  O_14
REMARK    4  A    between atoms: C_15  and  O_16
REMARK    5  A    between atoms: C_20  and  O_21
REMARK                            x       y       z     vdW  Elec       q    Type
REMARK                         _______ _______ _______ _____ _____    ______ ____
ROOT
ATOM      1  C   UNL     1      -2.029  11.875  17.630  0.00  0.00    +0.000 A 
ATOM      2  C   UNL     1      -0.975  12.585  18.213  0.00  0.00    +0.000 A 
ATOM      3  C   UNL     1      -1.141  12.972  19.528  0.00  0.00    +0.000 A 
ATOM      4  C   UNL     1      -2.373  12.881  20.157  0.00  0.00    +0.000 A 
ATOM      5  C   UNL     1      -3.388  12.105  19.631  0.00  0.00    +0.000 A 
ATOM      6  C   UNL     1      -3.177  11.553  18.374  0.00  0.00    +0.000 A 
ATOM      7  C   UNL     1      -2.168  13.465  21.518  0.00  0.00    +0.000 C 
ATOM      8  C   UNL     1      -3.378  13.680  22.352  0.00  0.00    +0.000 A 
ATOM      9  C   UNL     1      -4.214  14.794  22.122  0.00  0.00    +0.000 A 
ATOM     10  C   UNL     1      -5.376  14.983  22.862  0.00  0.00    +0.000 A 
ATOM     11  C   UNL     1      -5.719  14.021  23.801  0.00  0.00    +0.000 A 
ATOM     12  C   UNL     1      -4.878  12.932  24.050  0.00  0.00    +0.000 A 
ATOM     13  C   UNL     1      -3.672  12.792  23.362  0.00  0.00    +0.000 A 
ATOM     14  O   UNL     1      -2.751  11.865  23.726  0.00  0.00    +0.000 OA
ATOM     15  C   UNL     1      -1.749  11.544  22.741  0.00  0.00    +0.000 C 
ATOM     16  C   UNL     1      -0.845  12.706  22.047  0.00  0.00    +0.000 C 
ATOM     17  C   UNL     1      -0.134  13.290  20.617  0.00  0.00    +0.000 C 
ENDROOT
BRANCH   1  18
ATOM     18  O   UNL     1      -1.911  11.411  16.348  0.00  0.00    +0.000 OA
ATOM     19  H   UNL     1      -1.206  10.745  16.333  0.00  0.00    +0.000 HD
ENDBRANCH   1  18
BRANCH   6  20
ATOM     20  O   UNL     1      -4.061  10.616  17.912  0.00  0.00    +0.000 OA
ATOM     21  H   UNL     1      -4.361  10.123  18.686  0.00  0.00    +0.000 HD
ENDBRANCH   6  20
BRANCH  11  22
ATOM     22  O   UNL     1      -6.882  14.119  24.523  0.00  0.00    +0.000 OA
ATOM     23  H   UNL     1      -6.722  13.754  25.412  0.00  0.00    +0.000 HD
ENDBRANCH  11  22
BRANCH  12  24
ATOM     24  O   UNL     1      -5.279  11.988  24.958  0.00  0.00    +0.000 OA
ATOM     25  H   UNL     1      -4.688  12.121  25.725  0.00  0.00    +0.000 HD
ENDBRANCH  12  24
BRANCH  16  26
ATOM     26  O   UNL     1      -0.057  11.479  21.602  0.00  0.00    +0.000 OA
ATOM     27  H   UNL     1       0.824  11.557  22.015  0.00  0.00    +0.000 HD
ENDBRANCH  16  26
TORSDOF 5
ENDMDL
MODEL 8
REMARK VINA RESULT:      -5.9      8.255     12.849
REMARK  Name = 
REMARK  5 active torsions:
REMARK  status: ('A' for Active; 'I' for Inactive)
REMARK    1  A    between atoms: O_1  and  C_2
REMARK    2  A    between atoms: C_7  and  O_8
REMARK    3  A    between atoms: C_13  and  O_14
REMARK    4  A    between atoms: C_15  and  O_16
REMARK    5  A    between atoms: C_20  and  O_21
REMARK                            x       y       z     vdW  Elec       q    Type
REMARK                         _______ _______ _______ _____ _____    ______ ____
ROOT
ATOM      1  C   UNL     1       0.706   9.642  21.864  0.00  0.00    +0.000 A 
ATOM      2  C   UNL     1       0.768  10.496  20.759  0.00  0.00    +0.000 A 
ATOM      3  C   UNL     1      -0.040  11.615  20.793  0.00  0.00    +0.000 A 
ATOM      4  C   UNL     1      -1.034  11.759  21.749  0.00  0.00    +0.000 A 
ATOM      5  C   UNL     1      -1.046  10.978  22.889  0.00  0.00    +0.000 A 
ATOM      6  C   UNL     1      -0.120   9.946  22.960  0.00  0.00    +0.000 A 
ATOM      7  C   UNL     1      -1.731  13.036  21.407  0.00  0.00    +0.000 C 
ATOM      8  C   UNL     1      -2.978  13.347  22.152  0.00  0.00    +0.000 A 
ATOM      9  C   UNL     1      -4.193  12.720  21.801  0.00  0.00    +0.000 A 
ATOM     10  C   UNL     1      -5.359  12.964  22.520  0.00  0.00    +0.000 A 
ATOM     11  C   UNL     1      -5.286  13.804  23.622  0.00  0.00    +0.000 A 
ATOM     12  C   UNL     1      -4.089  14.448  23.954  0.00  0.00    +0.000 A 
ATOM     13  C   UNL     1      -2.944  14.263  23.179  0.00  0.00    +0.000 A 
ATOM     14  O   UNL     1      -1.837  15.027  23.357  0.00  0.00    +0.000 OA
ATOM     15  C   UNL     1      -0.613  14.511  22.799  0.00  0.00    +0.000 C 
ATOM     16  C   UNL     1      -0.515  14.082  21.232  0.00  0.00    +0.000 C 
ATOM     17  C   UNL     1       0.075  12.959  20.099  0.00  0.00    +0.000 C 
ENDROOT
BRANCH   1  18
ATOM     18  O   UNL     1       1.519   8.544  21.924  0.00  0.00    +0.000 OA
ATOM     19  H   UNL     1       2.150   8.676  22.649  0.00  0.00    +0.000 HD
ENDBRANCH   1  18
BRANCH   6  20
ATOM     20  O   UNL     1       0.039   9.288  24.150  0.00  0.00    +0.000 OA
ATOM     21  H   UNL     1       0.614   8.535  23.967  0.00  0.00    +0.000 HD
ENDBRANCH   6  20
BRANCH  11  22
ATOM     22  O   UNL     1      -6.387  14.040  24.407  0.00  0.00    +0.000 OA
ATOM     23  H   UNL     1      -6.262  13.581  25.257  0.00  0.00    +0.000 HD
ENDBRANCH  11  22
BRANCH  12  24
ATOM     24  O   UNL     1      -4.058  15.236  25.073  0.00  0.00    +0.000 OA
ATOM     25  H   UNL     1      -4.848  15.805  24.994  0.00  0.00    +0.000 HD
ENDBRANCH  12  24
BRANCH  16  26
ATOM     26  O   UNL     1       0.969  14.078  21.583  0.00  0.00    +0.000 OA
ATOM     27  H   UNL     1       1.289  13.174  21.400  0.00  0.00    +0.000 HD
ENDBRANCH  16  26
TORSDOF 5
ENDMDL
MODEL 9
REMARK VINA RESULT:      -5.9      5.043      8.559
REMARK  Name = 
REMARK  5 active torsions:
REMARK  status: ('A' for Active; 'I' for Inactive)
REMARK    1  A    between atoms: O_1  and  C_2
REMARK    2  A    between atoms: C_7  and  O_8
REMARK    3  A    between atoms: C_13  and  O_14
REMARK    4  A    between atoms: C_15  and  O_16
REMARK    5  A    between atoms: C_20  and  O_21
REMARK                            x       y       z     vdW  Elec       q    Type
REMARK                         _______ _______ _______ _____ _____    ______ ____
ROOT
ATOM      1  C   UNL     1       1.733  14.900  19.300  0.00  0.00    +0.000 A 
ATOM      2  C   UNL     1       0.459  14.631  18.793  0.00  0.00    +0.000 A 
ATOM      3  C   UNL     1       0.052  13.312  18.805  0.00  0.00    +0.000 A 
ATOM      4  C   UNL     1       0.943  12.284  19.074  0.00  0.00    +0.000 A 
ATOM      5  C   UNL     1       2.168  12.537  19.661  0.00  0.00    +0.000 A 
ATOM      6  C   UNL     1       2.530  13.868  19.823  0.00  0.00    +0.000 A 
ATOM      7  C   UNL     1       0.156  11.025  18.912  0.00  0.00    +0.000 C 
ATOM      8  C   UNL     1       0.910   9.745  18.947  0.00  0.00    +0.000 A 
ATOM      9  C   UNL     1       1.629   9.310  17.813  0.00  0.00    +0.000 A 
ATOM     10  C   UNL     1       2.379   8.140  17.846  0.00  0.00    +0.000 A 
ATOM     11  C   UNL     1       2.442   7.435  19.039  0.00  0.00    +0.000 A 
ATOM     12  C   UNL     1       1.708   7.849  20.155  0.00  0.00    +0.000 A 
ATOM     13  C   UNL     1       0.891   8.979  20.090  0.00  0.00    +0.000 A 
ATOM     14  O   UNL     1       0.020   9.282  21.085  0.00  0.00    +0.000 OA
ATOM     15  C   UNL     1      -0.472  10.636  21.106  0.00  0.00    +0.000 C 
ATOM     16  C   UNL     1      -1.167  11.302  19.794  0.00  0.00    +0.000 C 
ATOM     17  C   UNL     1      -1.330  12.686  18.820  0.00  0.00    +0.000 C 
ENDROOT
BRANCH   1  18
ATOM     18  O   UNL     1       2.181  16.191  19.371  0.00  0.00    +0.000 OA
ATOM     19  H   UNL     1       1.412  16.771  19.488  0.00  0.00    +0.000 HD
ENDBRANCH   1  18
BRANCH   6  20
ATOM     20  O   UNL     1       3.630  14.160  20.583  0.00  0.00    +0.000 OA
ATOM     21  H   UNL     1       4.231  14.653  20.011  0.00  0.00    +0.000 HD
ENDBRANCH   6  20
BRANCH  11  22
ATOM     22  O   UNL     1       3.212   6.303  19.154  0.00  0.00    +0.000 OA
ATOM     23  H   UNL     1       3.097   5.772  18.345  0.00  0.00    +0.000 HD
ENDBRANCH  11  22
BRANCH  12  24
ATOM     24  O   UNL     1       1.834   7.143  21.322  0.00  0.00    +0.000 OA
ATOM     25  H   UNL     1       1.419   7.713  21.998  0.00  0.00    +0.000 HD
ENDBRANCH  12  24
BRANCH  16  26
ATOM     26  O   UNL     1      -1.567  12.338  20.839  0.00  0.00    +0.000 OA
ATOM     27  H   UNL     1      -0.766  12.514  21.368  0.00  0.00    +0.000 HD
ENDBRANCH  16  26
TORSDOF 5
ENDMDL
