MODEL 1
REMARK VINA RESULT:      -7.5      0.000      0.000
REMARK  Name = 
REMARK  17 active torsions:
REMARK  status: ('A' for Active; 'I' for Inactive)
REMARK    1  A    between atoms: C_1  and  C_2
REMARK    2  A    between atoms: C_2  and  C_3
REMARK    3  A    between atoms: C_4  and  C_5
REMARK    4  A    between atoms: C_5  and  C_6
REMARK    5  A    between atoms: C_6  and  C_7
REMARK    6  A    between atoms: C_7  and  C_8
REMARK    7  A    between atoms: C_9  and  C_10
REMARK    8  A    between atoms: C_10  and  C_11
REMARK    9  A    between atoms: C_11  and  C_12
REMARK   10  A    between atoms: C_12  and  C_13
REMARK   11  A    between atoms: C_14  and  C_15
REMARK   12  A    between atoms: C_15  and  C_16
REMARK   13  A    between atoms: C_16  and  C_17
REMARK   14  A    between atoms: C_17  and  C_18
REMARK   15  A    between atoms: C_19  and  C_20
REMARK   16  A    between atoms: C_20  and  C_21
REMARK   17  A    between atoms: C_22  and  O_23
REMARK                            x       y       z     vdW  Elec       q    Type
REMARK                         _______ _______ _______ _____ _____    ______ ____
ROOT
ATOM      1  C   UNL     1       2.241   7.725  19.189  0.00  0.00    +0.000 C 
ATOM      2  C   UNL     1       2.907   7.760  17.840  0.00  0.00    +0.000 C 
ATOM      3  C   UNL     1       1.420   8.720  19.573  0.00  0.00    +0.000 C 
ENDROOT
BRANCH   1   4
ATOM      4  C   UNL     1       2.485   6.573  20.139  0.00  0.00    +0.000 C 
BRANCH   4   5
ATOM      5  C   UNL     1       1.398   5.514  20.037  0.00  0.00    +0.000 C 
BRANCH   5   8
ATOM      6  C   UNL     1       1.939   3.181  19.402  0.00  0.00    +0.000 C 
ATOM      7  C   UNL     1       2.016   2.843  20.879  0.00  0.00    +0.000 C 
ATOM      8  C   UNL     1       1.648   4.440  19.018  0.00  0.00    +0.000 C 
BRANCH   6   9
ATOM      9  C   UNL     1       2.182   2.134  18.339  0.00  0.00    +0.000 C 
BRANCH   9  10
ATOM     10  C   UNL     1       3.641   2.031  17.942  0.00  0.00    +0.000 C 
BRANCH  10  13
ATOM     11  C   UNL     1       4.888   4.002  17.143  0.00  0.00    +0.000 C 
ATOM     12  C   UNL     1       5.367   4.235  18.567  0.00  0.00    +0.000 C 
ATOM     13  C   UNL     1       4.083   2.971  16.866  0.00  0.00    +0.000 C 
BRANCH  11  14
ATOM     14  C   UNL     1       5.313   4.927  16.022  0.00  0.00    +0.000 C 
BRANCH  14  15
ATOM     15  C   UNL     1       4.940   4.423  14.634  0.00  0.00    +0.000 C 
BRANCH  15  19
ATOM     16  C   UNL     1       7.179   3.071  11.784  0.00  0.00    +0.000 C 
ATOM     17  C   UNL     1       5.973   3.513  12.568  0.00  0.00    +0.000 C 
ATOM     18  C   UNL     1       4.631   3.419  11.891  0.00  0.00    +0.000 C 
ATOM     19  C   UNL     1       6.105   3.952  13.823  0.00  0.00    +0.000 C 
ENDBRANCH  15  19
ENDBRANCH  14  15
ENDBRANCH  11  14
ENDBRANCH  10  13
ENDBRANCH   9  10
ENDBRANCH   6   9
ENDBRANCH   5   8
ENDBRANCH   4   5
ENDBRANCH   1   4
BRANCH   3  20
ATOM     20  C   UNL     1       1.121   9.940  18.741  0.00  0.00    +0.000 C 
BRANCH  20  21
ATOM     21  C   UNL     1       0.039  10.781  19.350  0.00  0.00    +0.000 A 
ATOM     22  C   UNL     1       0.182  11.454  20.500  0.00  0.00    +0.000 A 
ATOM     23  C   UNL     1      -0.948  12.161  21.091  0.00  0.00    +0.000 A 
ATOM     24  C   UNL     1      -0.890  12.781  22.339  0.00  0.00    +0.000 A 
ATOM     25  C   UNL     1      -2.010  13.434  22.859  0.00  0.00    +0.000 A 
ATOM     26  C   UNL     1      -3.200  13.471  22.126  0.00  0.00    +0.000 A 
ATOM     27  C   UNL     1      -3.273  12.846  20.888  0.00  0.00    +0.000 A 
ATOM     28  C   UNL     1      -2.151  12.192  20.388  0.00  0.00    +0.000 A 
ATOM     29  O   UNL     1      -2.286  11.545  19.152  0.00  0.00    +0.000 OA
ATOM     30  C   UNL     1      -1.252  10.803  18.604  0.00  0.00    +0.000 A 
ATOM     31  O   UNL     1      -1.402  10.213  17.543  0.00  0.00    +0.000 OA
BRANCH  22  32
ATOM     32  O   UNL     1       1.356  11.516  21.236  0.00  0.00    +0.000 OA
ATOM     33  H   UNL     1       1.466  12.400  21.612  0.00  0.00    +0.000 HD
ENDBRANCH  22  32
ENDBRANCH  20  21
ENDBRANCH   3  20
TORSDOF 12
ENDMDL
MODEL 2
REMARK VINA RESULT:      -7.5      5.861     10.396
REMARK  Name = 
REMARK  17 active torsions:
REMARK  status: ('A' for Active; 'I' for Inactive)
REMARK    1  A    between atoms: C_1  and  C_2
REMARK    2  A    between atoms: C_2  and  C_3
REMARK    3  A    between atoms: C_4  and  C_5
REMARK    4  A    between atoms: C_5  and  C_6
REMARK    5  A    between atoms: C_6  and  C_7
REMARK    6  A    between atoms: C_7  and  C_8
REMARK    7  A    between atoms: C_9  and  C_10
REMARK    8  A    between atoms: C_10  and  C_11
REMARK    9  A    between atoms: C_11  and  C_12
REMARK   10  A    between atoms: C_12  and  C_13
REMARK   11  A    between atoms: C_14  and  C_15
REMARK   12  A    between atoms: C_15  and  C_16
REMARK   13  A    between atoms: C_16  and  C_17
REMARK   14  A    between atoms: C_17  and  C_18
REMARK   15  A    between atoms: C_19  and  C_20
REMARK   16  A    between atoms: C_20  and  C_21
REMARK   17  A    between atoms: C_22  and  O_23
REMARK                            x       y       z     vdW  Elec       q    Type
REMARK                         _______ _______ _______ _____ _____    ______ ____
ROOT
ATOM      1  C   UNL     1       7.635   6.895  17.802  0.00  0.00    +0.000 C 
ATOM      2  C   UNL     1       8.195   6.440  19.123  0.00  0.00    +0.000 C 
ATOM      3  C   UNL     1       6.981   6.030  17.003  0.00  0.00    +0.000 C 
ENDROOT
BRANCH   1   4
ATOM      4  C   UNL     1       7.799   8.328  17.347  0.00  0.00    +0.000 C 
BRANCH   4   5
ATOM      5  C   UNL     1       8.325   9.220  18.461  0.00  0.00    +0.000 C 
BRANCH   5   8
ATOM      6  C   UNL     1       9.666  11.262  18.872  0.00  0.00    +0.000 C 
ATOM      7  C   UNL     1       9.763  10.854  20.330  0.00  0.00    +0.000 C 
ATOM      8  C   UNL     1       8.987  10.488  18.003  0.00  0.00    +0.000 C 
BRANCH   6   9
ATOM      9  C   UNL     1      10.315  12.530  18.363  0.00  0.00    +0.000 C 
BRANCH   9  10
ATOM     10  C   UNL     1      10.054  13.723  19.261  0.00  0.00    +0.000 C 
BRANCH  10  13
ATOM     11  C   UNL     1       7.894  14.760  19.843  0.00  0.00    +0.000 C 
ATOM     12  C   UNL     1       8.044  14.204  21.250  0.00  0.00    +0.000 C 
ATOM     13  C   UNL     1       8.839  14.527  18.925  0.00  0.00    +0.000 C 
BRANCH  11  14
ATOM     14  C   UNL     1       6.682  15.582  19.460  0.00  0.00    +0.000 C 
BRANCH  14  15
ATOM     15  C   UNL     1       6.093  15.215  18.105  0.00  0.00    +0.000 C 
BRANCH  15  19
ATOM     16  C   UNL     1       2.480  13.836  18.031  0.00  0.00    +0.000 C 
ATOM     17  C   UNL     1       3.654  14.775  17.964  0.00  0.00    +0.000 C 
ATOM     18  C   UNL     1       3.370  16.224  17.665  0.00  0.00    +0.000 C 
ATOM     19  C   UNL     1       4.893  14.326  18.183  0.00  0.00    +0.000 C 
ENDBRANCH  15  19
ENDBRANCH  14  15
ENDBRANCH  11  14
ENDBRANCH  10  13
ENDBRANCH   9  10
ENDBRANCH   6   9
ENDBRANCH   5   8
ENDBRANCH   4   5
ENDBRANCH   1   4
BRANCH   3  20
ATOM     20  C   UNL     1       6.780   4.571  17.319  0.00  0.00    +0.000 C 
BRANCH  20  21
ATOM     21  C   UNL     1       5.355   4.269  17.676  0.00  0.00    +0.000 A 
ATOM     22  C   UNL     1       4.908   4.178  18.937  0.00  0.00    +0.000 A 
ATOM     23  C   UNL     1       3.536   3.771  19.211  0.00  0.00    +0.000 A 
ATOM     24  C   UNL     1       3.050   3.548  20.499  0.00  0.00    +0.000 A 
ATOM     25  C   UNL     1       1.727   3.148  20.698  0.00  0.00    +0.000 A 
ATOM     26  C   UNL     1       0.878   2.970  19.602  0.00  0.00    +0.000 A 
ATOM     27  C   UNL     1       1.355   3.175  18.314  0.00  0.00    +0.000 A 
ATOM     28  C   UNL     1       2.678   3.565  18.132  0.00  0.00    +0.000 A 
ATOM     29  O   UNL     1       3.122   3.724  16.811  0.00  0.00    +0.000 OA
ATOM     30  C   UNL     1       4.440   4.036  16.521  0.00  0.00    +0.000 A 
ATOM     31  O   UNL     1       4.818   4.132  15.362  0.00  0.00    +0.000 OA
BRANCH  22  32
ATOM     32  O   UNL     1       5.681   4.415  20.064  0.00  0.00    +0.000 OA
ATOM     33  H   UNL     1       6.532   3.963  19.984  0.00  0.00    +0.000 HD
ENDBRANCH  22  32
ENDBRANCH  20  21
ENDBRANCH   3  20
TORSDOF 12
ENDMDL
MODEL 3
REMARK VINA RESULT:      -7.4      6.235     10.846
REMARK  Name = 
REMARK  17 active torsions:
REMARK  status: ('A' for Active; 'I' for Inactive)
REMARK    1  A    between atoms: C_1  and  C_2
REMARK    2  A    between atoms: C_2  and  C_3
REMARK    3  A    between atoms: C_4  and  C_5
REMARK    4  A    between atoms: C_5  and  C_6
REMARK    5  A    between atoms: C_6  and  C_7
REMARK    6  A    between atoms: C_7  and  C_8
REMARK    7  A    between atoms: C_9  and  C_10
REMARK    8  A    between atoms: C_10  and  C_11
REMARK    9  A    between atoms: C_11  and  C_12
REMARK   10  A    between atoms: C_12  and  C_13
REMARK   11  A    between atoms: C_14  and  C_15
REMARK   12  A    between atoms: C_15  and  C_16
REMARK   13  A    between atoms: C_16  and  C_17
REMARK   14  A    between atoms: C_17  and  C_18
REMARK   15  A    between atoms: C_19  and  C_20
REMARK   16  A    between atoms: C_20  and  C_21
REMARK   17  A    between atoms: C_22  and  O_23
REMARK                            x       y       z     vdW  Elec       q    Type
REMARK                         _______ _______ _______ _____ _____    ______ ____
ROOT
ATOM      1  C   UNL     1       7.640   6.925  17.894  0.00  0.00    +0.000 C 
ATOM      2  C   UNL     1       8.195   6.404  19.192  0.00  0.00    +0.000 C 
ATOM      3  C   UNL     1       6.992   6.102  17.048  0.00  0.00    +0.000 C 
ENDROOT
BRANCH   1   4
ATOM      4  C   UNL     1       7.802   8.380  17.515  0.00  0.00    +0.000 C 
BRANCH   4   5
ATOM      5  C   UNL     1       8.575   9.158  18.568  0.00  0.00    +0.000 C 
BRANCH   5   8
ATOM      6  C   UNL     1       9.592  11.370  19.030  0.00  0.00    +0.000 C 
ATOM      7  C   UNL     1       9.735  10.954  20.481  0.00  0.00    +0.000 C 
ATOM      8  C   UNL     1       9.045  10.518  18.140  0.00  0.00    +0.000 C 
BRANCH   6   9
ATOM      9  C   UNL     1      10.050  12.728  18.550  0.00  0.00    +0.000 C 
BRANCH   9  10
ATOM     10  C   UNL     1       8.943  13.764  18.578  0.00  0.00    +0.000 C 
BRANCH  10  13
ATOM     11  C   UNL     1       7.266  14.786  20.068  0.00  0.00    +0.000 C 
ATOM     12  C   UNL     1       6.519  15.274  18.838  0.00  0.00    +0.000 C 
ATOM     13  C   UNL     1       8.396  14.083  19.932  0.00  0.00    +0.000 C 
BRANCH  11  14
ATOM     14  C   UNL     1       6.746  15.083  21.459  0.00  0.00    +0.000 C 
BRANCH  14  15
ATOM     15  C   UNL     1       6.640  13.854  22.351  0.00  0.00    +0.000 C 
BRANCH  15  19
ATOM     16  C   UNL     1       8.529  13.254  25.672  0.00  0.00    +0.000 C 
ATOM     17  C   UNL     1       7.898  13.029  24.325  0.00  0.00    +0.000 C 
ATOM     18  C   UNL     1       7.996  11.646  23.734  0.00  0.00    +0.000 C 
ATOM     19  C   UNL     1       7.262  14.023  23.700  0.00  0.00    +0.000 C 
ENDBRANCH  15  19
ENDBRANCH  14  15
ENDBRANCH  11  14
ENDBRANCH  10  13
ENDBRANCH   9  10
ENDBRANCH   6   9
ENDBRANCH   5   8
ENDBRANCH   4   5
ENDBRANCH   1   4
BRANCH   3  20
ATOM     20  C   UNL     1       6.793   4.628  17.287  0.00  0.00    +0.000 C 
BRANCH  20  21
ATOM     21  C   UNL     1       5.372   4.306  17.641  0.00  0.00    +0.000 A 
ATOM     22  C   UNL     1       4.923   4.220  18.901  0.00  0.00    +0.000 A 
ATOM     23  C   UNL     1       3.556   3.793  19.173  0.00  0.00    +0.000 A 
ATOM     24  C   UNL     1       3.069   3.574  20.462  0.00  0.00    +0.000 A 
ATOM     25  C   UNL     1       1.752   3.155  20.661  0.00  0.00    +0.000 A 
ATOM     26  C   UNL     1       0.910   2.953  19.563  0.00  0.00    +0.000 A 
ATOM     27  C   UNL     1       1.388   3.154  18.275  0.00  0.00    +0.000 A 
ATOM     28  C   UNL     1       2.705   3.564  18.093  0.00  0.00    +0.000 A 
ATOM     29  O   UNL     1       3.151   3.717  16.773  0.00  0.00    +0.000 OA
ATOM     30  C   UNL     1       4.466   4.048  16.485  0.00  0.00    +0.000 A 
ATOM     31  O   UNL     1       4.846   4.139  15.326  0.00  0.00    +0.000 OA
BRANCH  22  32
ATOM     32  O   UNL     1       5.687   4.479  20.029  0.00  0.00    +0.000 OA
ATOM     33  H   UNL     1       6.548   4.836  19.772  0.00  0.00    +0.000 HD
ENDBRANCH  22  32
ENDBRANCH  20  21
ENDBRANCH   3  20
TORSDOF 12
ENDMDL
MODEL 4
REMARK VINA RESULT:      -7.3      1.597      2.992
REMARK  Name = 
REMARK  17 active torsions:
REMARK  status: ('A' for Active; 'I' for Inactive)
REMARK    1  A    between atoms: C_1  and  C_2
REMARK    2  A    between atoms: C_2  and  C_3
REMARK    3  A    between atoms: C_4  and  C_5
REMARK    4  A    between atoms: C_5  and  C_6
REMARK    5  A    between atoms: C_6  and  C_7
REMARK    6  A    between atoms: C_7  and  C_8
REMARK    7  A    between atoms: C_9  and  C_10
REMARK    8  A    between atoms: C_10  and  C_11
REMARK    9  A    between atoms: C_11  and  C_12
REMARK   10  A    between atoms: C_12  and  C_13
REMARK   11  A    between atoms: C_14  and  C_15
REMARK   12  A    between atoms: C_15  and  C_16
REMARK   13  A    between atoms: C_16  and  C_17
REMARK   14  A    between atoms: C_17  and  C_18
REMARK   15  A    between atoms: C_19  and  C_20
REMARK   16  A    between atoms: C_20  and  C_21
REMARK   17  A    between atoms: C_22  and  O_23
REMARK                            x       y       z     vdW  Elec       q    Type
REMARK                         _______ _______ _______ _____ _____    ______ ____
ROOT
ATOM      1  C   UNL     1       1.663   5.093  19.021  0.00  0.00    +0.000 C 
ATOM      2  C   UNL     1       1.258   4.647  20.400  0.00  0.00    +0.000 C 
ATOM      3  C   UNL     1       2.194   6.315  18.825  0.00  0.00    +0.000 C 
ENDROOT
BRANCH   1   4
ATOM      4  C   UNL     1       1.478   4.180  17.829  0.00  0.00    +0.000 C 
BRANCH   4   5
ATOM      5  C   UNL     1       2.615   3.178  17.702  0.00  0.00    +0.000 C 
BRANCH   5   8
ATOM      6  C   UNL     1       4.730   3.466  18.960  0.00  0.00    +0.000 C 
ATOM      7  C   UNL     1       4.165   2.557  20.034  0.00  0.00    +0.000 C 
ATOM      8  C   UNL     1       3.993   3.752  17.869  0.00  0.00    +0.000 C 
BRANCH   6   9
ATOM      9  C   UNL     1       6.112   4.067  19.082  0.00  0.00    +0.000 C 
BRANCH   9  10
ATOM     10  C   UNL     1       6.337   5.219  18.122  0.00  0.00    +0.000 C 
BRANCH  10  13
ATOM     11  C   UNL     1       6.416   5.318  15.659  0.00  0.00    +0.000 C 
ATOM     12  C   UNL     1       5.208   6.240  15.691  0.00  0.00    +0.000 C 
ATOM     13  C   UNL     1       6.931   4.849  16.801  0.00  0.00    +0.000 C 
BRANCH  11  14
ATOM     14  C   UNL     1       7.052   4.920  14.345  0.00  0.00    +0.000 C 
BRANCH  14  15
ATOM     15  C   UNL     1       6.052   4.469  13.289  0.00  0.00    +0.000 C 
BRANCH  15  19
ATOM     16  C   UNL     1       5.999   1.282  11.099  0.00  0.00    +0.000 C 
ATOM     17  C   UNL     1       5.597   2.580  11.745  0.00  0.00    +0.000 C 
ATOM     18  C   UNL     1       4.262   3.163  11.361  0.00  0.00    +0.000 C 
ATOM     19  C   UNL     1       6.398   3.169  12.637  0.00  0.00    +0.000 C 
ENDBRANCH  15  19
ENDBRANCH  14  15
ENDBRANCH  11  14
ENDBRANCH  10  13
ENDBRANCH   9  10
ENDBRANCH   6   9
ENDBRANCH   5   8
ENDBRANCH   4   5
ENDBRANCH   1   4
BRANCH   3  20
ATOM     20  C   UNL     1       2.398   7.334  19.917  0.00  0.00    +0.000 C 
BRANCH  20  21
ATOM     21  C   UNL     1       1.617   8.588  19.663  0.00  0.00    +0.000 A 
ATOM     22  C   UNL     1       0.874   9.201  20.595  0.00  0.00    +0.000 A 
ATOM     23  C   UNL     1       0.051  10.354  20.248  0.00  0.00    +0.000 A 
ATOM     24  C   UNL     1      -0.828  10.959  21.146  0.00  0.00    +0.000 A 
ATOM     25  C   UNL     1      -1.599  12.055  20.753  0.00  0.00    +0.000 A 
ATOM     26  C   UNL     1      -1.492  12.554  19.451  0.00  0.00    +0.000 A 
ATOM     27  C   UNL     1      -0.630  11.951  18.545  0.00  0.00    +0.000 A 
ATOM     28  C   UNL     1       0.125  10.854  18.950  0.00  0.00    +0.000 A 
ATOM     29  O   UNL     1       0.953  10.257  17.988  0.00  0.00    +0.000 OA
ATOM     30  C   UNL     1       1.686   9.116  18.270  0.00  0.00    +0.000 A 
ATOM     31  O   UNL     1       2.372   8.586  17.406  0.00  0.00    +0.000 OA
BRANCH  22  32
ATOM     32  O   UNL     1       0.783   8.799  21.919  0.00  0.00    +0.000 OA
ATOM     33  H   UNL     1      -0.111   8.956  22.254  0.00  0.00    +0.000 HD
ENDBRANCH  22  32
ENDBRANCH  20  21
ENDBRANCH   3  20
TORSDOF 12
ENDMDL
MODEL 5
REMARK VINA RESULT:      -7.2      6.245     10.570
REMARK  Name = 
REMARK  17 active torsions:
REMARK  status: ('A' for Active; 'I' for Inactive)
REMARK    1  A    between atoms: C_1  and  C_2
REMARK    2  A    between atoms: C_2  and  C_3
REMARK    3  A    between atoms: C_4  and  C_5
REMARK    4  A    between atoms: C_5  and  C_6
REMARK    5  A    between atoms: C_6  and  C_7
REMARK    6  A    between atoms: C_7  and  C_8
REMARK    7  A    between atoms: C_9  and  C_10
REMARK    8  A    between atoms: C_10  and  C_11
REMARK    9  A    between atoms: C_11  and  C_12
REMARK   10  A    between atoms: C_12  and  C_13
REMARK   11  A    between atoms: C_14  and  C_15
REMARK   12  A    between atoms: C_15  and  C_16
REMARK   13  A    between atoms: C_16  and  C_17
REMARK   14  A    between atoms: C_17  and  C_18
REMARK   15  A    between atoms: C_19  and  C_20
REMARK   16  A    between atoms: C_20  and  C_21
REMARK   17  A    between atoms: C_22  and  O_23
REMARK                            x       y       z     vdW  Elec       q    Type
REMARK                         _______ _______ _______ _____ _____    ______ ____
ROOT
ATOM      1  C   UNL     1       7.077   6.973  17.375  0.00  0.00    +0.000 C 
ATOM      2  C   UNL     1       7.557   5.926  16.407  0.00  0.00    +0.000 C 
ATOM      3  C   UNL     1       5.768   7.276  17.461  0.00  0.00    +0.000 C 
ENDROOT
BRANCH   1   4
ATOM      4  C   UNL     1       8.056   7.708  18.264  0.00  0.00    +0.000 C 
BRANCH   4   5
ATOM      5  C   UNL     1       8.060   9.203  17.988  0.00  0.00    +0.000 C 
BRANCH   5   8
ATOM      6  C   UNL     1       9.498  11.221  18.052  0.00  0.00    +0.000 C 
ATOM      7  C   UNL     1       8.279  12.048  17.691  0.00  0.00    +0.000 C 
ATOM      8  C   UNL     1       9.383   9.884  18.188  0.00  0.00    +0.000 C 
BRANCH   6   9
ATOM      9  C   UNL     1      10.851  11.860  18.264  0.00  0.00    +0.000 C 
BRANCH   9  10
ATOM     10  C   UNL     1      11.270  11.878  19.721  0.00  0.00    +0.000 C 
BRANCH  10  13
ATOM     11  C   UNL     1       9.669  12.585  21.457  0.00  0.00    +0.000 C 
ATOM     12  C   UNL     1      10.197  14.004  21.319  0.00  0.00    +0.000 C 
ATOM     13  C   UNL     1      10.179  11.603  20.706  0.00  0.00    +0.000 C 
BRANCH  11  14
ATOM     14  C   UNL     1       8.563  12.262  22.440  0.00  0.00    +0.000 C 
BRANCH  14  15
ATOM     15  C   UNL     1       8.442  13.264  23.580  0.00  0.00    +0.000 C 
BRANCH  15  19
ATOM     16  C   UNL     1       5.062  15.127  23.840  0.00  0.00    +0.000 C 
ATOM     17  C   UNL     1       6.491  14.797  23.503  0.00  0.00    +0.000 C 
ATOM     18  C   UNL     1       7.273  15.818  22.718  0.00  0.00    +0.000 C 
ATOM     19  C   UNL     1       7.034  13.646  23.909  0.00  0.00    +0.000 C 
ENDBRANCH  15  19
ENDBRANCH  14  15
ENDBRANCH  11  14
ENDBRANCH  10  13
ENDBRANCH   9  10
ENDBRANCH   6   9
ENDBRANCH   5   8
ENDBRANCH   4   5
ENDBRANCH   1   4
BRANCH   3  20
ATOM     20  C   UNL     1       4.696   6.647  16.610  0.00  0.00    +0.000 C 
BRANCH  20  21
ATOM     21  C   UNL     1       3.959   5.569  17.347  0.00  0.00    +0.000 A 
ATOM     22  C   UNL     1       3.120   5.805  18.365  0.00  0.00    +0.000 A 
ATOM     23  C   UNL     1       2.525   4.702  19.108  0.00  0.00    +0.000 A 
ATOM     24  C   UNL     1       1.739   4.885  20.246  0.00  0.00    +0.000 A 
ATOM     25  C   UNL     1       1.204   3.787  20.922  0.00  0.00    +0.000 A 
ATOM     26  C   UNL     1       1.453   2.492  20.459  0.00  0.00    +0.000 A 
ATOM     27  C   UNL     1       2.244   2.296  19.335  0.00  0.00    +0.000 A 
ATOM     28  C   UNL     1       2.777   3.400  18.677  0.00  0.00    +0.000 A 
ATOM     29  O   UNL     1       3.600   3.149  17.570  0.00  0.00    +0.000 OA
ATOM     30  C   UNL     1       4.239   4.176  16.893  0.00  0.00    +0.000 A 
ATOM     31  O   UNL     1       4.985   3.935  15.954  0.00  0.00    +0.000 OA
BRANCH  22  32
ATOM     32  O   UNL     1       2.777   7.068  18.825  0.00  0.00    +0.000 OA
ATOM     33  H   UNL     1       2.274   7.543  18.149  0.00  0.00    +0.000 HD
ENDBRANCH  22  32
ENDBRANCH  20  21
ENDBRANCH   3  20
TORSDOF 12
ENDMDL
MODEL 6
REMARK VINA RESULT:      -7.2      2.215      4.399
REMARK  Name = 
REMARK  17 active torsions:
REMARK  status: ('A' for Active; 'I' for Inactive)
REMARK    1  A    between atoms: C_1  and  C_2
REMARK    2  A    between atoms: C_2  and  C_3
REMARK    3  A    between atoms: C_4  and  C_5
REMARK    4  A    between atoms: C_5  and  C_6
REMARK    5  A    between atoms: C_6  and  C_7
REMARK    6  A    between atoms: C_7  and  C_8
REMARK    7  A    between atoms: C_9  and  C_10
REMARK    8  A    between atoms: C_10  and  C_11
REMARK    9  A    between atoms: C_11  and  C_12
REMARK   10  A    between atoms: C_12  and  C_13
REMARK   11  A    between atoms: C_14  and  C_15
REMARK   12  A    between atoms: C_15  and  C_16
REMARK   13  A    between atoms: C_16  and  C_17
REMARK   14  A    between atoms: C_17  and  C_18
REMARK   15  A    between atoms: C_19  and  C_20
REMARK   16  A    between atoms: C_20  and  C_21
REMARK   17  A    between atoms: C_22  and  O_23
REMARK                            x       y       z     vdW  Elec       q    Type
REMARK                         _______ _______ _______ _____ _____    ______ ____
ROOT
ATOM      1  C   UNL     1       1.228   9.466  19.102  0.00  0.00    +0.000 C 
ATOM      2  C   UNL     1       1.205   9.132  20.569  0.00  0.00    +0.000 C 
ATOM      3  C   UNL     1       1.235  10.749  18.692  0.00  0.00    +0.000 C 
ENDROOT
BRANCH   1   4
ATOM      4  C   UNL     1       1.239   8.368  18.061  0.00  0.00    +0.000 C 
BRANCH   4   5
ATOM      5  C   UNL     1       2.633   8.133  17.501  0.00  0.00    +0.000 C 
BRANCH   5   8
ATOM      6  C   UNL     1       4.472   6.475  17.597  0.00  0.00    +0.000 C 
ATOM      7  C   UNL     1       4.832   6.856  16.174  0.00  0.00    +0.000 C 
ATOM      8  C   UNL     1       3.435   7.080  18.210  0.00  0.00    +0.000 C 
BRANCH   6   9
ATOM      9  C   UNL     1       5.250   5.421  18.353  0.00  0.00    +0.000 C 
BRANCH   9  10
ATOM     10  C   UNL     1       5.321   4.101  17.612  0.00  0.00    +0.000 C 
BRANCH  10  13
ATOM     11  C   UNL     1       3.534   2.494  18.166  0.00  0.00    +0.000 C 
ATOM     12  C   UNL     1       4.337   2.073  19.386  0.00  0.00    +0.000 C 
ATOM     13  C   UNL     1       4.005   3.441  17.347  0.00  0.00    +0.000 C 
BRANCH  11  14
ATOM     14  C   UNL     1       2.196   1.856  17.862  0.00  0.00    +0.000 C 
BRANCH  14  15
ATOM     15  C   UNL     1       1.075   2.303  18.791  0.00  0.00    +0.000 C 
BRANCH  15  19
ATOM     16  C   UNL     1       1.536   5.546  20.847  0.00  0.00    +0.000 C 
ATOM     17  C   UNL     1       1.429   4.092  20.474  0.00  0.00    +0.000 C 
ATOM     18  C   UNL     1       1.606   3.078  21.574  0.00  0.00    +0.000 C 
ATOM     19  C   UNL     1       1.168   3.734  19.214  0.00  0.00    +0.000 C 
ENDBRANCH  15  19
ENDBRANCH  14  15
ENDBRANCH  11  14
ENDBRANCH  10  13
ENDBRANCH   9  10
ENDBRANCH   6   9
ENDBRANCH   5   8
ENDBRANCH   4   5
ENDBRANCH   1   4
BRANCH   3  20
ATOM     20  C   UNL     1       1.190  11.934  19.621  0.00  0.00    +0.000 C 
BRANCH  20  21
ATOM     21  C   UNL     1      -0.207  12.229  20.082  0.00  0.00    +0.000 A 
ATOM     22  C   UNL     1      -0.596  12.161  21.363  0.00  0.00    +0.000 A 
ATOM     23  C   UNL     1      -1.995  12.352  21.725  0.00  0.00    +0.000 A 
ATOM     24  C   UNL     1      -2.476  12.179  23.023  0.00  0.00    +0.000 A 
ATOM     25  C   UNL     1      -3.831  12.365  23.307  0.00  0.00    +0.000 A 
ATOM     26  C   UNL     1      -4.715  12.729  22.287  0.00  0.00    +0.000 A 
ATOM     27  C   UNL     1      -4.250  12.890  20.989  0.00  0.00    +0.000 A 
ATOM     28  C   UNL     1      -2.899  12.693  20.720  0.00  0.00    +0.000 A 
ATOM     29  O   UNL     1      -2.485  12.831  19.388  0.00  0.00    +0.000 OA
ATOM     30  C   UNL     1      -1.176  12.582  19.005  0.00  0.00    +0.000 A 
ATOM     31  O   UNL     1      -0.843  12.669  17.832  0.00  0.00    +0.000 OA
BRANCH  22  32
ATOM     32  O   UNL     1       0.247  11.877  22.428  0.00  0.00    +0.000 OA
ATOM     33  H   UNL     1       0.629  12.695  22.776  0.00  0.00    +0.000 HD
ENDBRANCH  22  32
ENDBRANCH  20  21
ENDBRANCH   3  20
TORSDOF 12
ENDMDL
MODEL 7
REMARK VINA RESULT:      -7.2      5.652     10.480
REMARK  Name = 
REMARK  17 active torsions:
REMARK  status: ('A' for Active; 'I' for Inactive)
REMARK    1  A    between atoms: C_1  and  C_2
REMARK    2  A    between atoms: C_2  and  C_3
REMARK    3  A    between atoms: C_4  and  C_5
REMARK    4  A    between atoms: C_5  and  C_6
REMARK    5  A    between atoms: C_6  and  C_7
REMARK    6  A    between atoms: C_7  and  C_8
REMARK    7  A    between atoms: C_9  and  C_10
REMARK    8  A    between atoms: C_10  and  C_11
REMARK    9  A    between atoms: C_11  and  C_12
REMARK   10  A    between atoms: C_12  and  C_13
REMARK   11  A    between atoms: C_14  and  C_15
REMARK   12  A    between atoms: C_15  and  C_16
REMARK   13  A    between atoms: C_16  and  C_17
REMARK   14  A    between atoms: C_17  and  C_18
REMARK   15  A    between atoms: C_19  and  C_20
REMARK   16  A    between atoms: C_20  and  C_21
REMARK   17  A    between atoms: C_22  and  O_23
REMARK                            x       y       z     vdW  Elec       q    Type
REMARK                         _______ _______ _______ _____ _____    ______ ____
ROOT
ATOM      1  C   UNL     1       7.745   7.289  17.879  0.00  0.00    +0.000 C 
ATOM      2  C   UNL     1       8.383   6.744  19.128  0.00  0.00    +0.000 C 
ATOM      3  C   UNL     1       7.044   6.482  17.060  0.00  0.00    +0.000 C 
ENDROOT
BRANCH   1   4
ATOM      4  C   UNL     1       7.881   8.752  17.519  0.00  0.00    +0.000 C 
BRANCH   4   5
ATOM      5  C   UNL     1       8.795   9.491  18.484  0.00  0.00    +0.000 C 
BRANCH   5   8
ATOM      6  C   UNL     1       9.299  11.788  19.265  0.00  0.00    +0.000 C 
ATOM      7  C   UNL     1       9.694  11.199  20.606  0.00  0.00    +0.000 C 
ATOM      8  C   UNL     1       8.877  10.975  18.276  0.00  0.00    +0.000 C 
BRANCH   6   9
ATOM      9  C   UNL     1       9.364  13.276  19.006  0.00  0.00    +0.000 C 
BRANCH   9  10
ATOM     10  C   UNL     1       8.311  14.051  19.774  0.00  0.00    +0.000 C 
BRANCH  10  13
ATOM     11  C   UNL     1       6.670  15.870  19.496  0.00  0.00    +0.000 C 
ATOM     12  C   UNL     1       6.753  16.128  20.992  0.00  0.00    +0.000 C 
ATOM     13  C   UNL     1       7.402  14.897  18.942  0.00  0.00    +0.000 C 
BRANCH  11  14
ATOM     14  C   UNL     1       5.766  16.706  18.615  0.00  0.00    +0.000 C 
BRANCH  14  15
ATOM     15  C   UNL     1       4.282  16.501  18.887  0.00  0.00    +0.000 C 
BRANCH  15  19
ATOM     16  C   UNL     1       2.640  13.060  18.236  0.00  0.00    +0.000 C 
ATOM     17  C   UNL     1       3.233  14.252  18.938  0.00  0.00    +0.000 C 
ATOM     18  C   UNL     1       3.289  14.216  20.443  0.00  0.00    +0.000 C 
ATOM     19  C   UNL     1       3.704  15.286  18.235  0.00  0.00    +0.000 C 
ENDBRANCH  15  19
ENDBRANCH  14  15
ENDBRANCH  11  14
ENDBRANCH  10  13
ENDBRANCH   9  10
ENDBRANCH   6   9
ENDBRANCH   5   8
ENDBRANCH   4   5
ENDBRANCH   1   4
BRANCH   3  20
ATOM     20  C   UNL     1       6.863   5.003  17.282  0.00  0.00    +0.000 C 
BRANCH  20  21
ATOM     21  C   UNL     1       5.435   4.654  17.579  0.00  0.00    +0.000 A 
ATOM     22  C   UNL     1       4.871   4.799  18.786  0.00  0.00    +0.000 A 
ATOM     23  C   UNL     1       3.511   4.335  19.031  0.00  0.00    +0.000 A 
ATOM     24  C   UNL     1       2.915   4.354  20.292  0.00  0.00    +0.000 A 
ATOM     25  C   UNL     1       1.611   3.886  20.467  0.00  0.00    +0.000 A 
ATOM     26  C   UNL     1       0.893   3.394  19.373  0.00  0.00    +0.000 A 
ATOM     27  C   UNL     1       1.480   3.358  18.115  0.00  0.00    +0.000 A 
ATOM     28  C   UNL     1       2.784   3.820  17.959  0.00  0.00    +0.000 A 
ATOM     29  O   UNL     1       3.346   3.729  16.678  0.00  0.00    +0.000 OA
ATOM     30  C   UNL     1       4.661   4.091  16.435  0.00  0.00    +0.000 A 
ATOM     31  O   UNL     1       5.146   3.967  15.319  0.00  0.00    +0.000 OA
BRANCH  22  32
ATOM     32  O   UNL     1       5.507   5.346  19.891  0.00  0.00    +0.000 OA
ATOM     33  H   UNL     1       6.330   5.776  19.622  0.00  0.00    +0.000 HD
ENDBRANCH  22  32
ENDBRANCH  20  21
ENDBRANCH   3  20
TORSDOF 12
ENDMDL
MODEL 8
REMARK VINA RESULT:      -7.1      1.991      2.862
REMARK  Name = 
REMARK  17 active torsions:
REMARK  status: ('A' for Active; 'I' for Inactive)
REMARK    1  A    between atoms: C_1  and  C_2
REMARK    2  A    between atoms: C_2  and  C_3
REMARK    3  A    between atoms: C_4  and  C_5
REMARK    4  A    between atoms: C_5  and  C_6
REMARK    5  A    between atoms: C_6  and  C_7
REMARK    6  A    between atoms: C_7  and  C_8
REMARK    7  A    between atoms: C_9  and  C_10
REMARK    8  A    between atoms: C_10  and  C_11
REMARK    9  A    between atoms: C_11  and  C_12
REMARK   10  A    between atoms: C_12  and  C_13
REMARK   11  A    between atoms: C_14  and  C_15
REMARK   12  A    between atoms: C_15  and  C_16
REMARK   13  A    between atoms: C_16  and  C_17
REMARK   14  A    between atoms: C_17  and  C_18
REMARK   15  A    between atoms: C_19  and  C_20
REMARK   16  A    between atoms: C_20  and  C_21
REMARK   17  A    between atoms: C_22  and  O_23
REMARK                            x       y       z     vdW  Elec       q    Type
REMARK                         _______ _______ _______ _____ _____    ______ ____
ROOT
ATOM      1  C   UNL     1       1.339   8.949  19.617  0.00  0.00    +0.000 C 
ATOM      2  C   UNL     1       1.591   8.990  18.134  0.00  0.00    +0.000 C 
ATOM      3  C   UNL     1       0.730   9.977  20.237  0.00  0.00    +0.000 C 
ENDROOT
BRANCH   1   4
ATOM      4  C   UNL     1       1.769   7.754  20.439  0.00  0.00    +0.000 C 
BRANCH   4   5
ATOM      5  C   UNL     1       2.442   6.691  19.585  0.00  0.00    +0.000 C 
BRANCH   5   8
ATOM      6  C   UNL     1       1.503   4.439  20.017  0.00  0.00    +0.000 C 
ATOM      7  C   UNL     1       2.313   4.394  21.298  0.00  0.00    +0.000 C 
ATOM      8  C   UNL     1       1.573   5.523  19.218  0.00  0.00    +0.000 C 
BRANCH   6   9
ATOM      9  C   UNL     1       0.613   3.288  19.605  0.00  0.00    +0.000 C 
BRANCH   9  10
ATOM     10  C   UNL     1       1.347   2.242  18.788  0.00  0.00    +0.000 C 
BRANCH  10  13
ATOM     11  C   UNL     1       3.584   2.673  17.845  0.00  0.00    +0.000 C 
ATOM     12  C   UNL     1       4.192   2.009  19.070  0.00  0.00    +0.000 C 
ATOM     13  C   UNL     1       2.256   2.776  17.728  0.00  0.00    +0.000 C 
BRANCH  11  14
ATOM     14  C   UNL     1       4.466   3.225  16.745  0.00  0.00    +0.000 C 
BRANCH  14  15
ATOM     15  C   UNL     1       4.967   4.638  17.009  0.00  0.00    +0.000 C 
BRANCH  15  19
ATOM     16  C   UNL     1       7.843   5.835  19.302  0.00  0.00    +0.000 C 
ATOM     17  C   UNL     1       6.820   5.783  18.200  0.00  0.00    +0.000 C 
ATOM     18  C   UNL     1       6.762   6.951  17.249  0.00  0.00    +0.000 C 
ATOM     19  C   UNL     1       6.014   4.725  18.073  0.00  0.00    +0.000 C 
ENDBRANCH  15  19
ENDBRANCH  14  15
ENDBRANCH  11  14
ENDBRANCH  10  13
ENDBRANCH   9  10
ENDBRANCH   6   9
ENDBRANCH   5   8
ENDBRANCH   4   5
ENDBRANCH   1   4
BRANCH   3  20
ATOM     20  C   UNL     1       0.284  11.239  19.544  0.00  0.00    +0.000 C 
BRANCH  20  21
ATOM     21  C   UNL     1      -1.007  11.757  20.103  0.00  0.00    +0.000 A 
ATOM     22  C   UNL     1      -1.185  12.070  21.394  0.00  0.00    +0.000 A 
ATOM     23  C   UNL     1      -2.499  12.462  21.888  0.00  0.00    +0.000 A 
ATOM     24  C   UNL     1      -2.769  12.687  23.239  0.00  0.00    +0.000 A 
ATOM     25  C   UNL     1      -4.052  13.049  23.654  0.00  0.00    +0.000 A 
ATOM     26  C   UNL     1      -5.077  13.190  22.714  0.00  0.00    +0.000 A 
ATOM     27  C   UNL     1      -4.824  12.955  21.369  0.00  0.00    +0.000 A 
ATOM     28  C   UNL     1      -3.542  12.586  20.972  0.00  0.00    +0.000 A 
ATOM     29  O   UNL     1      -3.345  12.325  19.609  0.00  0.00    +0.000 OA
ATOM     30  C   UNL     1      -2.126  11.878  19.124  0.00  0.00    +0.000 A 
ATOM     31  O   UNL     1      -1.985  11.616  17.938  0.00  0.00    +0.000 OA
BRANCH  22  32
ATOM     32  O   UNL     1      -0.191  12.021  22.360  0.00  0.00    +0.000 OA
ATOM     33  H   UNL     1      -0.078  11.114  22.674  0.00  0.00    +0.000 HD
ENDBRANCH  22  32
ENDBRANCH  20  21
ENDBRANCH   3  20
TORSDOF 12
ENDMDL
MODEL 9
REMARK VINA RESULT:      -7.1      6.428     10.352
REMARK  Name = 
REMARK  17 active torsions:
REMARK  status: ('A' for Active; 'I' for Inactive)
REMARK    1  A    between atoms: C_1  and  C_2
REMARK    2  A    between atoms: C_2  and  C_3
REMARK    3  A    between atoms: C_4  and  C_5
REMARK    4  A    between atoms: C_5  and  C_6
REMARK    5  A    between atoms: C_6  and  C_7
REMARK    6  A    between atoms: C_7  and  C_8
REMARK    7  A    between atoms: C_9  and  C_10
REMARK    8  A    between atoms: C_10  and  C_11
REMARK    9  A    between atoms: C_11  and  C_12
REMARK   10  A    between atoms: C_12  and  C_13
REMARK   11  A    between atoms: C_14  and  C_15
REMARK   12  A    between atoms: C_15  and  C_16
REMARK   13  A    between atoms: C_16  and  C_17
REMARK   14  A    between atoms: C_17  and  C_18
REMARK   15  A    between atoms: C_19  and  C_20
REMARK   16  A    between atoms: C_20  and  C_21
REMARK   17  A    between atoms: C_22  and  O_23
REMARK                            x       y       z     vdW  Elec       q    Type
REMARK                         _______ _______ _______ _____ _____    ______ ____
ROOT
ATOM      1  C   UNL     1       7.583   6.973  17.732  0.00  0.00    +0.000 C 
ATOM      2  C   UNL     1       8.017   6.306  19.009  0.00  0.00    +0.000 C 
ATOM      3  C   UNL     1       6.771   6.334  16.869  0.00  0.00    +0.000 C 
ENDROOT
BRANCH   1   4
ATOM      4  C   UNL     1       8.055   8.370  17.392  0.00  0.00    +0.000 C 
BRANCH   4   5
ATOM      5  C   UNL     1       8.168   9.246  18.630  0.00  0.00    +0.000 C 
BRANCH   5   8
ATOM      6  C   UNL     1       9.735  11.152  18.404  0.00  0.00    +0.000 C 
ATOM      7  C   UNL     1       8.629  11.924  17.709  0.00  0.00    +0.000 C 
ATOM      8  C   UNL     1       9.507   9.894  18.831  0.00  0.00    +0.000 C 
BRANCH   6   9
ATOM      9  C   UNL     1      11.100  11.762  18.630  0.00  0.00    +0.000 C 
BRANCH   9  10
ATOM     10  C   UNL     1      11.408  11.979  20.099  0.00  0.00    +0.000 C 
BRANCH  10  13
ATOM     11  C   UNL     1      10.242  13.964  20.981  0.00  0.00    +0.000 C 
ATOM     12  C   UNL     1      11.261  14.838  20.268  0.00  0.00    +0.000 C 
ATOM     13  C   UNL     1      10.324  12.632  20.894  0.00  0.00    +0.000 C 
BRANCH  11  14
ATOM     14  C   UNL     1       9.125  14.583  21.794  0.00  0.00    +0.000 C 
BRANCH  14  15
ATOM     15  C   UNL     1       8.237  15.530  20.998  0.00  0.00    +0.000 C 
BRANCH  15  19
ATOM     16  C   UNL     1       6.168  14.647  17.852  0.00  0.00    +0.000 C 
ATOM     17  C   UNL     1       6.564  15.198  19.195  0.00  0.00    +0.000 C 
ATOM     18  C   UNL     1       5.524  15.971  19.963  0.00  0.00    +0.000 C 
ATOM     19  C   UNL     1       7.790  14.984  19.680  0.00  0.00    +0.000 C 
ENDBRANCH  15  19
ENDBRANCH  14  15
ENDBRANCH  11  14
ENDBRANCH  10  13
ENDBRANCH   9  10
ENDBRANCH   6   9
ENDBRANCH   5   8
ENDBRANCH   4   5
ENDBRANCH   1   4
BRANCH   3  20
ATOM     20  C   UNL     1       6.259   4.931  17.068  0.00  0.00    +0.000 C 
BRANCH  20  21
ATOM     21  C   UNL     1       4.993   4.907  17.871  0.00  0.00    +0.000 A 
ATOM     22  C   UNL     1       4.738   4.005  18.828  0.00  0.00    +0.000 A 
ATOM     23  C   UNL     1       3.441   3.972  19.492  0.00  0.00    +0.000 A 
ATOM     24  C   UNL     1       3.079   2.986  20.410  0.00  0.00    +0.000 A 
ATOM     25  C   UNL     1       1.816   3.002  21.006  0.00  0.00    +0.000 A 
ATOM     26  C   UNL     1       0.904   4.011  20.684  0.00  0.00    +0.000 A 
ATOM     27  C   UNL     1       1.248   4.990  19.761  0.00  0.00    +0.000 A 
ATOM     28  C   UNL     1       2.507   4.956  19.170  0.00  0.00    +0.000 A 
ATOM     29  O   UNL     1       2.793   5.944  18.217  0.00  0.00    +0.000 OA
ATOM     30  C   UNL     1       3.989   5.952  17.517  0.00  0.00    +0.000 A 
ATOM     31  O   UNL     1       4.205   6.799  16.661  0.00  0.00    +0.000 OA
BRANCH  22  32
ATOM     32  O   UNL     1       5.628   3.025  19.244  0.00  0.00    +0.000 OA
ATOM     33  H   UNL     1       5.762   3.081  20.200  0.00  0.00    +0.000 HD
ENDBRANCH  22  32
ENDBRANCH  20  21
ENDBRANCH   3  20
TORSDOF 12
ENDMDL
