MODEL 1
REMARK VINA RESULT:      -9.6      0.000      0.000
REMARK  Name = 
REMARK  11 active torsions:
REMARK  status: ('A' for Active; 'I' for Inactive)
REMARK    1  A    between atoms: C_1  and  C_2
REMARK    2  A    between atoms: C_5  and  C_6
REMARK    3  A    between atoms: C_8  and  C_9
REMARK    4  A    between atoms: C_9  and  C_10
REMARK    5  A    between atoms: C_9  and  C_11
REMARK    6  A    between atoms: N_12  and  C_13
REMARK    7  A    between atoms: C_17  and  C_18
REMARK    8  A    between atoms: N_20  and  C_21
REMARK    9  A    between atoms: C_21  and  C_22
REMARK   10  A    between atoms: C_22  and  C_23
REMARK   11  A    between atoms: C_22  and  C_24
REMARK                            x       y       z     vdW  Elec       q    Type
REMARK                         _______ _______ _______ _____ _____    ______ ____
ROOT
ATOM      1  C   UNL     1       3.275   5.971  18.841  0.00  0.00    +0.000 A 
ATOM      2  C   UNL     1       2.859   5.588  20.122  0.00  0.00    +0.000 A 
ATOM      3  C   UNL     1       2.050   6.425  20.884  0.00  0.00    +0.000 A 
ATOM      4  C   UNL     1       1.619   7.639  20.354  0.00  0.00    +0.000 A 
ATOM      5  C   UNL     1       2.011   8.042  19.067  0.00  0.00    +0.000 A 
ATOM      6  C   UNL     1       2.855   7.208  18.320  0.00  0.00    +0.000 A 
ENDROOT
BRANCH   1  10
ATOM      7  C   UNL     1       5.303   4.622  16.357  0.00  0.00    +0.000 A 
ATOM      8  C   UNL     1       4.643   3.427  16.694  0.00  0.00    +0.000 A 
ATOM      9  C   UNL     1       3.873   3.715  17.803  0.00  0.00    +0.000 A 
ATOM     10  N   UNL     1       4.022   5.083  18.011  0.00  0.00    +0.000 N 
ATOM     11  N   UNL     1       5.004   5.602  17.218  0.00  0.00    +0.000 NA
BRANCH   7  16
ATOM     12  C   UNL     1       7.295   4.358  11.865  0.00  0.00    +0.000 C 
ATOM     13  C   UNL     1       7.194   4.680  13.298  0.00  0.00    +0.000 A 
ATOM     14  N   UNL     1       7.918   5.509  14.016  0.00  0.00    +0.000 NA
ATOM     15  N   UNL     1       7.327   5.555  15.258  0.00  0.00    +0.000 NA
ATOM     16  C   UNL     1       6.271   4.757  15.219  0.00  0.00    +0.000 A 
ATOM     17  O   UNL     1       6.153   4.131  13.997  0.00  0.00    +0.000 OA
ENDBRANCH   7  16
BRANCH   9  18
ATOM     18  C   UNL     1       3.052   2.774  18.649  0.00  0.00    +0.000 C 
ATOM     19  C   UNL     1       1.589   2.797  18.202  0.00  0.00    +0.000 C 
ATOM     20  C   UNL     1       3.600   1.348  18.623  0.00  0.00    +0.000 C 
ENDBRANCH   9  18
ENDBRANCH   1  10
BRANCH   5  21
ATOM     21  C   UNL     1       1.434   9.318  18.542  0.00  0.00    +0.000 C 
ATOM     22  O   UNL     1       1.854   9.781  17.477  0.00  0.00    +0.000 OA
ATOM     23  N   UNL     1       0.456   9.948  19.278  0.00  0.00    +0.000 N 
ATOM     24  H   UNL     1       0.030   9.497  20.070  0.00  0.00    +0.000 HD
BRANCH  23  25
ATOM     25  C   UNL     1      -0.102  11.226  18.854  0.00  0.00    +0.000 C 
BRANCH  25  26
ATOM     26  C   UNL     1      -1.604  11.360  19.171  0.00  0.00    +0.000 C 
ATOM     27  C   UNL     1      -1.912  12.734  19.788  0.00  0.00    +0.000 C 
BRANCH  26  28
ATOM     28  C   UNL     1      -2.439  11.055  17.932  0.00  0.00    +0.000 A 
ATOM     29  C   UNL     1      -1.876  10.293  16.894  0.00  0.00    +0.000 A 
ATOM     30  C   UNL     1      -2.600  10.013  15.732  0.00  0.00    +0.000 A 
ATOM     31  C   UNL     1      -3.898  10.495  15.585  0.00  0.00    +0.000 A 
ATOM     32  C   UNL     1      -4.469  11.259  16.599  0.00  0.00    +0.000 A 
ATOM     33  C   UNL     1      -3.744  11.541  17.762  0.00  0.00    +0.000 A 
ENDBRANCH  26  28
ENDBRANCH  25  26
ENDBRANCH  23  25
ENDBRANCH   5  21
TORSDOF 7
ENDMDL
MODEL 2
REMARK VINA RESULT:      -9.5      2.622      3.899
REMARK  Name = 
REMARK  11 active torsions:
REMARK  status: ('A' for Active; 'I' for Inactive)
REMARK    1  A    between atoms: C_1  and  C_2
REMARK    2  A    between atoms: C_5  and  C_6
REMARK    3  A    between atoms: C_8  and  C_9
REMARK    4  A    between atoms: C_9  and  C_10
REMARK    5  A    between atoms: C_9  and  C_11
REMARK    6  A    between atoms: N_12  and  C_13
REMARK    7  A    between atoms: C_17  and  C_18
REMARK    8  A    between atoms: N_20  and  C_21
REMARK    9  A    between atoms: C_21  and  C_22
REMARK   10  A    between atoms: C_22  and  C_23
REMARK   11  A    between atoms: C_22  and  C_24
REMARK                            x       y       z     vdW  Elec       q    Type
REMARK                         _______ _______ _______ _____ _____    ______ ____
ROOT
ATOM      1  C   UNL     1       2.152   7.686  18.781  0.00  0.00    +0.000 A 
ATOM      2  C   UNL     1       1.897   8.582  17.737  0.00  0.00    +0.000 A 
ATOM      3  C   UNL     1       1.192   9.758  17.969  0.00  0.00    +0.000 A 
ATOM      4  C   UNL     1       0.767  10.066  19.259  0.00  0.00    +0.000 A 
ATOM      5  C   UNL     1       1.021   9.191  20.328  0.00  0.00    +0.000 A 
ATOM      6  C   UNL     1       1.701   7.991  20.078  0.00  0.00    +0.000 A 
ENDROOT
BRANCH   1  10
ATOM      7  C   UNL     1       4.482   5.397  17.583  0.00  0.00    +0.000 A 
ATOM      8  C   UNL     1       3.661   4.464  18.241  0.00  0.00    +0.000 A 
ATOM      9  C   UNL     1       2.724   5.201  18.937  0.00  0.00    +0.000 A 
ATOM     10  N   UNL     1       2.957   6.526  18.579  0.00  0.00    +0.000 N 
ATOM     11  N   UNL     1       4.116   6.652  17.870  0.00  0.00    +0.000 NA
BRANCH   7  16
ATOM     12  C   UNL     1       7.409   4.814  13.671  0.00  0.00    +0.000 C 
ATOM     13  C   UNL     1       6.979   4.749  15.078  0.00  0.00    +0.000 A 
ATOM     14  N   UNL     1       7.701   4.552  16.158  0.00  0.00    +0.000 NA
ATOM     15  N   UNL     1       6.848   4.727  17.224  0.00  0.00    +0.000 NA
ATOM     16  C   UNL     1       5.658   5.029  16.728  0.00  0.00    +0.000 A 
ATOM     17  O   UNL     1       5.666   5.019  15.350  0.00  0.00    +0.000 OA
ENDBRANCH   7  16
BRANCH   9  18
ATOM     18  C   UNL     1       1.673   4.716  19.903  0.00  0.00    +0.000 C 
ATOM     19  C   UNL     1       1.003   3.448  19.367  0.00  0.00    +0.000 C 
ATOM     20  C   UNL     1       2.242   4.474  21.300  0.00  0.00    +0.000 C 
ENDBRANCH   9  18
ENDBRANCH   1  10
BRANCH   5  21
ATOM     21  C   UNL     1       0.607   9.637  21.694  0.00  0.00    +0.000 C 
ATOM     22  O   UNL     1       1.327   9.377  22.662  0.00  0.00    +0.000 OA
ATOM     23  N   UNL     1      -0.583  10.318  21.830  0.00  0.00    +0.000 N 
ATOM     24  H   UNL     1      -1.092  10.640  21.024  0.00  0.00    +0.000 HD
BRANCH  23  25
ATOM     25  C   UNL     1      -1.074  10.725  23.140  0.00  0.00    +0.000 C 
BRANCH  25  26
ATOM     26  C   UNL     1      -1.400  12.229  23.218  0.00  0.00    +0.000 C 
ATOM     27  C   UNL     1      -0.580  13.021  22.186  0.00  0.00    +0.000 C 
BRANCH  26  28
ATOM     28  C   UNL     1      -2.904  12.455  23.092  0.00  0.00    +0.000 A 
ATOM     29  C   UNL     1      -3.465  12.647  21.818  0.00  0.00    +0.000 A 
ATOM     30  C   UNL     1      -4.835  12.881  21.662  0.00  0.00    +0.000 A 
ATOM     31  C   UNL     1      -5.665  12.932  22.779  0.00  0.00    +0.000 A 
ATOM     32  C   UNL     1      -5.124  12.752  24.049  0.00  0.00    +0.000 A 
ATOM     33  C   UNL     1      -3.754  12.520  24.205  0.00  0.00    +0.000 A 
ENDBRANCH  26  28
ENDBRANCH  25  26
ENDBRANCH  23  25
ENDBRANCH   5  21
TORSDOF 7
ENDMDL
MODEL 3
REMARK VINA RESULT:      -9.1      1.657      2.581
REMARK  Name = 
REMARK  11 active torsions:
REMARK  status: ('A' for Active; 'I' for Inactive)
REMARK    1  A    between atoms: C_1  and  C_2
REMARK    2  A    between atoms: C_5  and  C_6
REMARK    3  A    between atoms: C_8  and  C_9
REMARK    4  A    between atoms: C_9  and  C_10
REMARK    5  A    between atoms: C_9  and  C_11
REMARK    6  A    between atoms: N_12  and  C_13
REMARK    7  A    between atoms: C_17  and  C_18
REMARK    8  A    between atoms: N_20  and  C_21
REMARK    9  A    between atoms: C_21  and  C_22
REMARK   10  A    between atoms: C_22  and  C_23
REMARK   11  A    between atoms: C_22  and  C_24
REMARK                            x       y       z     vdW  Elec       q    Type
REMARK                         _______ _______ _______ _____ _____    ______ ____
ROOT
ATOM      1  C   UNL     1       3.034   6.288  18.854  0.00  0.00    +0.000 A 
ATOM      2  C   UNL     1       2.570   5.963  20.134  0.00  0.00    +0.000 A 
ATOM      3  C   UNL     1       1.790   6.861  20.854  0.00  0.00    +0.000 A 
ATOM      4  C   UNL     1       1.435   8.081  20.282  0.00  0.00    +0.000 A 
ATOM      5  C   UNL     1       1.876   8.428  18.994  0.00  0.00    +0.000 A 
ATOM      6  C   UNL     1       2.692   7.531  18.291  0.00  0.00    +0.000 A 
ENDROOT
BRANCH   1  10
ATOM      7  C   UNL     1       5.046   4.767  16.457  0.00  0.00    +0.000 A 
ATOM      8  C   UNL     1       4.312   3.619  16.806  0.00  0.00    +0.000 A 
ATOM      9  C   UNL     1       3.532   3.977  17.887  0.00  0.00    +0.000 A 
ATOM     10  N   UNL     1       3.751   5.339  18.065  0.00  0.00    +0.000 N 
ATOM     11  N   UNL     1       4.780   5.783  17.287  0.00  0.00    +0.000 NA
BRANCH   7  16
ATOM     12  C   UNL     1       7.146   4.245  12.038  0.00  0.00    +0.000 C 
ATOM     13  C   UNL     1       7.018   4.630  13.454  0.00  0.00    +0.000 A 
ATOM     14  N   UNL     1       7.754   5.461  14.157  0.00  0.00    +0.000 NA
ATOM     15  N   UNL     1       7.132   5.580  15.379  0.00  0.00    +0.000 NA
ATOM     16  C   UNL     1       6.048   4.820  15.343  0.00  0.00    +0.000 A 
ATOM     17  O   UNL     1       5.940   4.148  14.144  0.00  0.00    +0.000 OA
ENDBRANCH   7  16
BRANCH   9  18
ATOM     18  C   UNL     1       2.639   3.104  18.733  0.00  0.00    +0.000 C 
ATOM     19  C   UNL     1       1.193   3.182  18.236  0.00  0.00    +0.000 C 
ATOM     20  C   UNL     1       3.117   1.654  18.769  0.00  0.00    +0.000 C 
ENDBRANCH   9  18
ENDBRANCH   1  10
BRANCH   5  21
ATOM     21  C   UNL     1       1.380   9.717  18.422  0.00  0.00    +0.000 C 
ATOM     22  O   UNL     1       2.046  10.294  17.558  0.00  0.00    +0.000 OA
ATOM     23  N   UNL     1       0.193  10.231  18.894  0.00  0.00    +0.000 N 
ATOM     24  H   UNL     1      -0.404   9.691  19.497  0.00  0.00    +0.000 HD
BRANCH  23  25
ATOM     25  C   UNL     1      -0.314  11.513  18.424  0.00  0.00    +0.000 C 
BRANCH  25  26
ATOM     26  C   UNL     1      -0.071  12.659  19.426  0.00  0.00    +0.000 C 
ATOM     27  C   UNL     1      -0.228  14.027  18.741  0.00  0.00    +0.000 C 
BRANCH  26  28
ATOM     28  C   UNL     1      -0.964  12.493  20.651  0.00  0.00    +0.000 A 
ATOM     29  C   UNL     1      -0.419  11.959  21.831  0.00  0.00    +0.000 A 
ATOM     30  C   UNL     1      -1.211  11.769  22.968  0.00  0.00    +0.000 A 
ATOM     31  C   UNL     1      -2.562  12.105  22.942  0.00  0.00    +0.000 A 
ATOM     32  C   UNL     1      -3.120  12.628  21.779  0.00  0.00    +0.000 A 
ATOM     33  C   UNL     1      -2.329  12.816  20.641  0.00  0.00    +0.000 A 
ENDBRANCH  26  28
ENDBRANCH  25  26
ENDBRANCH  23  25
ENDBRANCH   5  21
TORSDOF 7
ENDMDL
MODEL 4
REMARK VINA RESULT:      -9.0      1.679      2.761
REMARK  Name = 
REMARK  11 active torsions:
REMARK  status: ('A' for Active; 'I' for Inactive)
REMARK    1  A    between atoms: C_1  and  C_2
REMARK    2  A    between atoms: C_5  and  C_6
REMARK    3  A    between atoms: C_8  and  C_9
REMARK    4  A    between atoms: C_9  and  C_10
REMARK    5  A    between atoms: C_9  and  C_11
REMARK    6  A    between atoms: N_12  and  C_13
REMARK    7  A    between atoms: C_17  and  C_18
REMARK    8  A    between atoms: N_20  and  C_21
REMARK    9  A    between atoms: C_21  and  C_22
REMARK   10  A    between atoms: C_22  and  C_23
REMARK   11  A    between atoms: C_22  and  C_24
REMARK                            x       y       z     vdW  Elec       q    Type
REMARK                         _______ _______ _______ _____ _____    ______ ____
ROOT
ATOM      1  C   UNL     1       2.014   7.658  19.774  0.00  0.00    +0.000 A 
ATOM      2  C   UNL     1       1.768   7.658  21.152  0.00  0.00    +0.000 A 
ATOM      3  C   UNL     1       1.068   8.703  21.746  0.00  0.00    +0.000 A 
ATOM      4  C   UNL     1       0.576   9.741  20.959  0.00  0.00    +0.000 A 
ATOM      5  C   UNL     1       0.798   9.759  19.572  0.00  0.00    +0.000 A 
ATOM      6  C   UNL     1       1.535   8.720  18.987  0.00  0.00    +0.000 A 
ENDROOT
BRANCH   1  10
ATOM      7  C   UNL     1       3.838   5.632  17.611  0.00  0.00    +0.000 A 
ATOM      8  C   UNL     1       3.053   4.608  18.170  0.00  0.00    +0.000 A 
ATOM      9  C   UNL     1       2.338   5.190  19.198  0.00  0.00    +0.000 A 
ATOM     10  N   UNL     1       2.643   6.547  19.137  0.00  0.00    +0.000 N 
ATOM     11  N   UNL     1       3.664   6.787  18.264  0.00  0.00    +0.000 NA
BRANCH   7  16
ATOM     12  C   UNL     1       6.108   3.685  13.704  0.00  0.00    +0.000 C 
ATOM     13  C   UNL     1       5.824   4.651  14.779  0.00  0.00    +0.000 A 
ATOM     14  N   UNL     1       6.228   5.895  14.905  0.00  0.00    +0.000 NA
ATOM     15  N   UNL     1       5.569   6.400  16.003  0.00  0.00    +0.000 NA
ATOM     16  C   UNL     1       4.796   5.434  16.475  0.00  0.00    +0.000 A 
ATOM     17  O   UNL     1       4.946   4.268  15.755  0.00  0.00    +0.000 OA
ENDBRANCH   7  16
BRANCH   9  18
ATOM     18  C   UNL     1       1.431   4.530  20.206  0.00  0.00    +0.000 C 
ATOM     19  C   UNL     1       0.630   3.406  19.544  0.00  0.00    +0.000 C 
ATOM     20  C   UNL     1       2.200   4.002  21.416  0.00  0.00    +0.000 C 
ENDBRANCH   9  18
ENDBRANCH   1  10
BRANCH   5  21
ATOM     21  C   UNL     1       0.163  10.864  18.790  0.00  0.00    +0.000 C 
ATOM     22  O   UNL     1       0.565  12.022  18.937  0.00  0.00    +0.000 OA
ATOM     23  N   UNL     1      -0.870  10.553  17.933  0.00  0.00    +0.000 N 
ATOM     24  H   UNL     1      -1.099   9.596  17.722  0.00  0.00    +0.000 HD
BRANCH  23  25
ATOM     25  C   UNL     1      -1.572  11.590  17.190  0.00  0.00    +0.000 C 
BRANCH  25  26
ATOM     26  C   UNL     1      -2.946  11.128  16.667  0.00  0.00    +0.000 C 
ATOM     27  C   UNL     1      -2.954   9.611  16.416  0.00  0.00    +0.000 C 
BRANCH  26  28
ATOM     28  C   UNL     1      -4.056  11.588  17.606  0.00  0.00    +0.000 A 
ATOM     29  C   UNL     1      -5.362  11.734  17.107  0.00  0.00    +0.000 A 
ATOM     30  C   UNL     1      -6.402  12.177  17.930  0.00  0.00    +0.000 A 
ATOM     31  C   UNL     1      -6.152  12.486  19.265  0.00  0.00    +0.000 A 
ATOM     32  C   UNL     1      -4.863  12.356  19.774  0.00  0.00    +0.000 A 
ATOM     33  C   UNL     1      -3.822  11.914  18.950  0.00  0.00    +0.000 A 
ENDBRANCH  26  28
ENDBRANCH  25  26
ENDBRANCH  23  25
ENDBRANCH   5  21
TORSDOF 7
ENDMDL
MODEL 5
REMARK VINA RESULT:      -8.9      0.985      2.143
REMARK  Name = 
REMARK  11 active torsions:
REMARK  status: ('A' for Active; 'I' for Inactive)
REMARK    1  A    between atoms: C_1  and  C_2
REMARK    2  A    between atoms: C_5  and  C_6
REMARK    3  A    between atoms: C_8  and  C_9
REMARK    4  A    between atoms: C_9  and  C_10
REMARK    5  A    between atoms: C_9  and  C_11
REMARK    6  A    between atoms: N_12  and  C_13
REMARK    7  A    between atoms: C_17  and  C_18
REMARK    8  A    between atoms: N_20  and  C_21
REMARK    9  A    between atoms: C_21  and  C_22
REMARK   10  A    between atoms: C_22  and  C_23
REMARK   11  A    between atoms: C_22  and  C_24
REMARK                            x       y       z     vdW  Elec       q    Type
REMARK                         _______ _______ _______ _____ _____    ______ ____
ROOT
ATOM      1  C   UNL     1       3.154   6.156  18.964  0.00  0.00    +0.000 A 
ATOM      2  C   UNL     1       2.584   5.786  20.188  0.00  0.00    +0.000 A 
ATOM      3  C   UNL     1       1.728   6.652  20.861  0.00  0.00    +0.000 A 
ATOM      4  C   UNL     1       1.406   7.883  20.294  0.00  0.00    +0.000 A 
ATOM      5  C   UNL     1       1.953   8.273  19.061  0.00  0.00    +0.000 A 
ATOM      6  C   UNL     1       2.843   7.409  18.408  0.00  0.00    +0.000 A 
ENDROOT
BRANCH   1  10
ATOM      7  C   UNL     1       5.238   4.699  16.589  0.00  0.00    +0.000 A 
ATOM      8  C   UNL     1       4.680   3.501  17.072  0.00  0.00    +0.000 A 
ATOM      9  C   UNL     1       3.910   3.850  18.163  0.00  0.00    +0.000 A 
ATOM     10  N   UNL     1       3.954   5.240  18.216  0.00  0.00    +0.000 N 
ATOM     11  N   UNL     1       4.877   5.742  17.346  0.00  0.00    +0.000 NA
BRANCH   7  16
ATOM     12  C   UNL     1       7.111   4.195  12.067  0.00  0.00    +0.000 C 
ATOM     13  C   UNL     1       7.043   4.602  13.481  0.00  0.00    +0.000 A 
ATOM     14  N   UNL     1       7.772   5.485  14.126  0.00  0.00    +0.000 NA
ATOM     15  N   UNL     1       7.213   5.597  15.379  0.00  0.00    +0.000 NA
ATOM     16  C   UNL     1       6.172   4.781  15.419  0.00  0.00    +0.000 A 
ATOM     17  O   UNL     1       6.033   4.079  14.240  0.00  0.00    +0.000 OA
ENDBRANCH   7  16
BRANCH   9  18
ATOM     18  C   UNL     1       3.181   2.949  19.128  0.00  0.00    +0.000 C 
ATOM     19  C   UNL     1       2.201   2.046  18.375  0.00  0.00    +0.000 C 
ATOM     20  C   UNL     1       4.141   2.113  19.974  0.00  0.00    +0.000 C 
ENDBRANCH   9  18
ENDBRANCH   1  10
BRANCH   5  21
ATOM     21  C   UNL     1       1.488   9.572  18.483  0.00  0.00    +0.000 C 
ATOM     22  O   UNL     1       2.117  10.081  17.551  0.00  0.00    +0.000 OA
ATOM     23  N   UNL     1       0.372  10.169  19.025  0.00  0.00    +0.000 N 
ATOM     24  H   UNL     1      -0.207   9.684  19.690  0.00  0.00    +0.000 HD
BRANCH  23  25
ATOM     25  C   UNL     1      -0.096  11.465  18.550  0.00  0.00    +0.000 C 
BRANCH  25  26
ATOM     26  C   UNL     1      -1.590  11.461  18.171  0.00  0.00    +0.000 C 
ATOM     27  C   UNL     1      -2.014  10.084  17.635  0.00  0.00    +0.000 C 
BRANCH  26  28
ATOM     28  C   UNL     1      -2.439  11.938  19.344  0.00  0.00    +0.000 A 
ATOM     29  C   UNL     1      -3.821  12.116  19.164  0.00  0.00    +0.000 A 
ATOM     30  C   UNL     1      -4.630  12.575  20.209  0.00  0.00    +0.000 A 
ATOM     31  C   UNL     1      -4.068  12.868  21.449  0.00  0.00    +0.000 A 
ATOM     32  C   UNL     1      -2.700  12.705  21.642  0.00  0.00    +0.000 A 
ATOM     33  C   UNL     1      -1.890  12.247  20.598  0.00  0.00    +0.000 A 
ENDBRANCH  26  28
ENDBRANCH  25  26
ENDBRANCH  23  25
ENDBRANCH   5  21
TORSDOF 7
ENDMDL
MODEL 6
REMARK VINA RESULT:      -8.9      2.928      4.432
REMARK  Name = 
REMARK  11 active torsions:
REMARK  status: ('A' for Active; 'I' for Inactive)
REMARK    1  A    between atoms: C_1  and  C_2
REMARK    2  A    between atoms: C_5  and  C_6
REMARK    3  A    between atoms: C_8  and  C_9
REMARK    4  A    between atoms: C_9  and  C_10
REMARK    5  A    between atoms: C_9  and  C_11
REMARK    6  A    between atoms: N_12  and  C_13
REMARK    7  A    between atoms: C_17  and  C_18
REMARK    8  A    between atoms: N_20  and  C_21
REMARK    9  A    between atoms: C_21  and  C_22
REMARK   10  A    between atoms: C_22  and  C_23
REMARK   11  A    between atoms: C_22  and  C_24
REMARK                            x       y       z     vdW  Elec       q    Type
REMARK                         _______ _______ _______ _____ _____    ______ ____
ROOT
ATOM      1  C   UNL     1       4.702   4.407  18.457  0.00  0.00    +0.000 A 
ATOM      2  C   UNL     1       4.767   3.112  18.985  0.00  0.00    +0.000 A 
ATOM      3  C   UNL     1       3.921   2.724  20.018  0.00  0.00    +0.000 A 
ATOM      4  C   UNL     1       2.974   3.621  20.509  0.00  0.00    +0.000 A 
ATOM      5  C   UNL     1       2.878   4.922  19.989  0.00  0.00    +0.000 A 
ATOM      6  C   UNL     1       3.759   5.315  18.972  0.00  0.00    +0.000 A 
ENDROOT
BRANCH   1  10
ATOM      7  C   UNL     1       6.261   4.528  15.349  0.00  0.00    +0.000 A 
ATOM      8  C   UNL     1       7.155   5.388  16.013  0.00  0.00    +0.000 A 
ATOM      9  C   UNL     1       6.617   5.606  17.265  0.00  0.00    +0.000 A 
ATOM     10  N   UNL     1       5.494   4.787  17.333  0.00  0.00    +0.000 N 
ATOM     11  N   UNL     1       5.201   4.244  16.115  0.00  0.00    +0.000 NA
BRANCH   7  16
ATOM     12  C   UNL     1       5.608   2.089  11.125  0.00  0.00    +0.000 C 
ATOM     13  C   UNL     1       6.216   3.032  12.079  0.00  0.00    +0.000 A 
ATOM     14  N   UNL     1       7.042   4.028  11.850  0.00  0.00    +0.000 NA
ATOM     15  N   UNL     1       7.194   4.682  13.051  0.00  0.00    +0.000 NA
ATOM     16  C   UNL     1       6.443   4.049  13.940  0.00  0.00    +0.000 A 
ATOM     17  O   UNL     1       5.820   2.951  13.386  0.00  0.00    +0.000 OA
ENDBRANCH   7  16
BRANCH   9  18
ATOM     18  C   UNL     1       7.100   6.539  18.347  0.00  0.00    +0.000 C 
ATOM     19  C   UNL     1       8.003   5.791  19.331  0.00  0.00    +0.000 C 
ATOM     20  C   UNL     1       7.821   7.759  17.776  0.00  0.00    +0.000 C 
ENDBRANCH   9  18
ENDBRANCH   1  10
BRANCH   5  21
ATOM     21  C   UNL     1       1.780   5.791  20.512  0.00  0.00    +0.000 C 
ATOM     22  O   UNL     1       0.664   5.303  20.717  0.00  0.00    +0.000 OA
ATOM     23  N   UNL     1       2.046   7.124  20.735  0.00  0.00    +0.000 N 
ATOM     24  H   UNL     1       2.986   7.480  20.693  0.00  0.00    +0.000 HD
BRANCH  23  25
ATOM     25  C   UNL     1       1.004   8.037  21.185  0.00  0.00    +0.000 C 
BRANCH  25  26
ATOM     26  C   UNL     1       1.205   9.476  20.672  0.00  0.00    +0.000 C 
ATOM     27  C   UNL     1       0.992   9.549  19.151  0.00  0.00    +0.000 C 
BRANCH  26  28
ATOM     28  C   UNL     1       0.322  10.447  21.450  0.00  0.00    +0.000 A 
ATOM     29  C   UNL     1       0.388  11.820  21.158  0.00  0.00    +0.000 A 
ATOM     30  C   UNL     1      -0.387  12.744  21.865  0.00  0.00    +0.000 A 
ATOM     31  C   UNL     1      -1.237  12.311  22.879  0.00  0.00    +0.000 A 
ATOM     32  C   UNL     1      -1.309  10.955  23.187  0.00  0.00    +0.000 A 
ATOM     33  C   UNL     1      -0.533  10.031  22.481  0.00  0.00    +0.000 A 
ENDBRANCH  26  28
ENDBRANCH  25  26
ENDBRANCH  23  25
ENDBRANCH   5  21
TORSDOF 7
ENDMDL
MODEL 7
REMARK VINA RESULT:      -8.8      1.846      3.247
REMARK  Name = 
REMARK  11 active torsions:
REMARK  status: ('A' for Active; 'I' for Inactive)
REMARK    1  A    between atoms: C_1  and  C_2
REMARK    2  A    between atoms: C_5  and  C_6
REMARK    3  A    between atoms: C_8  and  C_9
REMARK    4  A    between atoms: C_9  and  C_10
REMARK    5  A    between atoms: C_9  and  C_11
REMARK    6  A    between atoms: N_12  and  C_13
REMARK    7  A    between atoms: C_17  and  C_18
REMARK    8  A    between atoms: N_20  and  C_21
REMARK    9  A    between atoms: C_21  and  C_22
REMARK   10  A    between atoms: C_22  and  C_23
REMARK   11  A    between atoms: C_22  and  C_24
REMARK                            x       y       z     vdW  Elec       q    Type
REMARK                         _______ _______ _______ _____ _____    ______ ____
ROOT
ATOM      1  C   UNL     1       3.075   6.244  18.831  0.00  0.00    +0.000 A 
ATOM      2  C   UNL     1       2.599   5.899  20.100  0.00  0.00    +0.000 A 
ATOM      3  C   UNL     1       1.811   6.787  20.826  0.00  0.00    +0.000 A 
ATOM      4  C   UNL     1       1.462   8.015  20.268  0.00  0.00    +0.000 A 
ATOM      5  C   UNL     1       1.916   8.381  18.991  0.00  0.00    +0.000 A 
ATOM      6  C   UNL     1       2.739   7.494  18.282  0.00  0.00    +0.000 A 
ENDROOT
BRANCH   1  10
ATOM      7  C   UNL     1       5.099   4.756  16.422  0.00  0.00    +0.000 A 
ATOM      8  C   UNL     1       4.377   3.599  16.765  0.00  0.00    +0.000 A 
ATOM      9  C   UNL     1       3.596   3.943  17.850  0.00  0.00    +0.000 A 
ATOM     10  N   UNL     1       3.801   5.306  18.035  0.00  0.00    +0.000 N 
ATOM     11  N   UNL     1       4.823   5.765  17.257  0.00  0.00    +0.000 NA
BRANCH   7  16
ATOM     12  C   UNL     1       7.198   4.274  11.997  0.00  0.00    +0.000 C 
ATOM     13  C   UNL     1       7.068   4.654  13.414  0.00  0.00    +0.000 A 
ATOM     14  N   UNL     1       7.793   5.493  14.119  0.00  0.00    +0.000 NA
ATOM     15  N   UNL     1       7.172   5.600  15.342  0.00  0.00    +0.000 NA
ATOM     16  C   UNL     1       6.098   4.826  15.306  0.00  0.00    +0.000 A 
ATOM     17  O   UNL     1       5.997   4.156  14.105  0.00  0.00    +0.000 OA
ENDBRANCH   7  16
BRANCH   9  18
ATOM     18  C   UNL     1       2.714   3.056  18.693  0.00  0.00    +0.000 C 
ATOM     19  C   UNL     1       1.261   3.146  18.219  0.00  0.00    +0.000 C 
ATOM     20  C   UNL     1       3.189   1.604  18.695  0.00  0.00    +0.000 C 
ENDBRANCH   9  18
ENDBRANCH   1  10
BRANCH   5  21
ATOM     21  C   UNL     1       1.426   9.678  18.433  0.00  0.00    +0.000 C 
ATOM     22  O   UNL     1       2.042  10.212  17.505  0.00  0.00    +0.000 OA
ATOM     23  N   UNL     1       0.301  10.248  18.986  0.00  0.00    +0.000 N 
ATOM     24  H   UNL     1      -0.266   9.743  19.647  0.00  0.00    +0.000 HD
BRANCH  23  25
ATOM     25  C   UNL     1      -0.192  11.541  18.531  0.00  0.00    +0.000 C 
BRANCH  25  26
ATOM     26  C   UNL     1      -0.102  12.634  19.614  0.00  0.00    +0.000 C 
ATOM     27  C   UNL     1      -0.460  12.063  20.997  0.00  0.00    +0.000 C 
BRANCH  26  28
ATOM     28  C   UNL     1       1.266  13.308  19.578  0.00  0.00    +0.000 A 
ATOM     29  C   UNL     1       1.843  13.624  18.337  0.00  0.00    +0.000 A 
ATOM     30  C   UNL     1       3.105  14.221  18.261  0.00  0.00    +0.000 A 
ATOM     31  C   UNL     1       3.814  14.506  19.425  0.00  0.00    +0.000 A 
ATOM     32  C   UNL     1       3.261  14.191  20.663  0.00  0.00    +0.000 A 
ATOM     33  C   UNL     1       1.999  13.593  20.740  0.00  0.00    +0.000 A 
ENDBRANCH  26  28
ENDBRANCH  25  26
ENDBRANCH  23  25
ENDBRANCH   5  21
TORSDOF 7
ENDMDL
MODEL 8
REMARK VINA RESULT:      -8.8      0.874      1.476
REMARK  Name = 
REMARK  11 active torsions:
REMARK  status: ('A' for Active; 'I' for Inactive)
REMARK    1  A    between atoms: C_1  and  C_2
REMARK    2  A    between atoms: C_5  and  C_6
REMARK    3  A    between atoms: C_8  and  C_9
REMARK    4  A    between atoms: C_9  and  C_10
REMARK    5  A    between atoms: C_9  and  C_11
REMARK    6  A    between atoms: N_12  and  C_13
REMARK    7  A    between atoms: C_17  and  C_18
REMARK    8  A    between atoms: N_20  and  C_21
REMARK    9  A    between atoms: C_21  and  C_22
REMARK   10  A    between atoms: C_22  and  C_23
REMARK   11  A    between atoms: C_22  and  C_24
REMARK                            x       y       z     vdW  Elec       q    Type
REMARK                         _______ _______ _______ _____ _____    ______ ____
ROOT
ATOM      1  C   UNL     1       3.191   6.154  18.878  0.00  0.00    +0.000 A 
ATOM      2  C   UNL     1       2.670   5.796  20.127  0.00  0.00    +0.000 A 
ATOM      3  C   UNL     1       1.833   6.664  20.820  0.00  0.00    +0.000 A 
ATOM      4  C   UNL     1       1.482   7.886  20.251  0.00  0.00    +0.000 A 
ATOM      5  C   UNL     1       1.980   8.265  18.994  0.00  0.00    +0.000 A 
ATOM      6  C   UNL     1       2.851   7.398  18.319  0.00  0.00    +0.000 A 
ENDROOT
BRANCH   1  10
ATOM      7  C   UNL     1       5.245   4.696  16.478  0.00  0.00    +0.000 A 
ATOM      8  C   UNL     1       4.653   3.503  16.931  0.00  0.00    +0.000 A 
ATOM      9  C   UNL     1       3.888   3.848  18.027  0.00  0.00    +0.000 A 
ATOM     10  N   UNL     1       3.969   5.234  18.112  0.00  0.00    +0.000 N 
ATOM     11  N   UNL     1       4.910   5.730  17.257  0.00  0.00    +0.000 NA
BRANCH   7  16
ATOM     12  C   UNL     1       7.157   4.173  11.974  0.00  0.00    +0.000 C 
ATOM     13  C   UNL     1       7.073   4.594  13.383  0.00  0.00    +0.000 A 
ATOM     14  N   UNL     1       7.784   5.494  14.024  0.00  0.00    +0.000 NA
ATOM     15  N   UNL     1       7.216   5.610  15.272  0.00  0.00    +0.000 NA
ATOM     16  C   UNL     1       6.186   4.779  15.313  0.00  0.00    +0.000 A 
ATOM     17  O   UNL     1       6.065   4.064  14.141  0.00  0.00    +0.000 OA
ENDBRANCH   7  16
BRANCH   9  18
ATOM     18  C   UNL     1       3.131   2.945  18.968  0.00  0.00    +0.000 C 
ATOM     19  C   UNL     1       2.349   1.891  18.179  0.00  0.00    +0.000 C 
ATOM     20  C   UNL     1       4.049   2.278  19.991  0.00  0.00    +0.000 C 
ENDBRANCH   9  18
ENDBRANCH   1  10
BRANCH   5  21
ATOM     21  C   UNL     1       1.485   9.553  18.418  0.00  0.00    +0.000 C 
ATOM     22  O   UNL     1       2.065  10.046  17.446  0.00  0.00    +0.000 OA
ATOM     23  N   UNL     1       0.398  10.160  19.006  0.00  0.00    +0.000 N 
ATOM     24  H   UNL     1      -0.145   9.686  19.708  0.00  0.00    +0.000 HD
BRANCH  23  25
ATOM     25  C   UNL     1      -0.095  11.447  18.534  0.00  0.00    +0.000 C 
BRANCH  25  26
ATOM     26  C   UNL     1      -0.993  12.161  19.562  0.00  0.00    +0.000 C 
ATOM     27  C   UNL     1      -0.520  13.606  19.792  0.00  0.00    +0.000 C 
BRANCH  26  28
ATOM     28  C   UNL     1      -2.458  12.066  19.146  0.00  0.00    +0.000 A 
ATOM     29  C   UNL     1      -3.450  12.554  20.013  0.00  0.00    +0.000 A 
ATOM     30  C   UNL     1      -4.805  12.464  19.679  0.00  0.00    +0.000 A 
ATOM     31  C   UNL     1      -5.190  11.880  18.475  0.00  0.00    +0.000 A 
ATOM     32  C   UNL     1      -4.220  11.384  17.608  0.00  0.00    +0.000 A 
ATOM     33  C   UNL     1      -2.865  11.473  17.943  0.00  0.00    +0.000 A 
ENDBRANCH  26  28
ENDBRANCH  25  26
ENDBRANCH  23  25
ENDBRANCH   5  21
TORSDOF 7
ENDMDL
MODEL 9
REMARK VINA RESULT:      -8.8      2.639      3.922
REMARK  Name = 
REMARK  11 active torsions:
REMARK  status: ('A' for Active; 'I' for Inactive)
REMARK    1  A    between atoms: C_1  and  C_2
REMARK    2  A    between atoms: C_5  and  C_6
REMARK    3  A    between atoms: C_8  and  C_9
REMARK    4  A    between atoms: C_9  and  C_10
REMARK    5  A    between atoms: C_9  and  C_11
REMARK    6  A    between atoms: N_12  and  C_13
REMARK    7  A    between atoms: C_17  and  C_18
REMARK    8  A    between atoms: N_20  and  C_21
REMARK    9  A    between atoms: C_21  and  C_22
REMARK   10  A    between atoms: C_22  and  C_23
REMARK   11  A    between atoms: C_22  and  C_24
REMARK                            x       y       z     vdW  Elec       q    Type
REMARK                         _______ _______ _______ _____ _____    ______ ____
ROOT
ATOM      1  C   UNL     1       4.496   6.018  17.657  0.00  0.00    +0.000 A 
ATOM      2  C   UNL     1       4.169   5.117  18.677  0.00  0.00    +0.000 A 
ATOM      3  C   UNL     1       3.188   5.432  19.613  0.00  0.00    +0.000 A 
ATOM      4  C   UNL     1       2.500   6.639  19.512  0.00  0.00    +0.000 A 
ATOM      5  C   UNL     1       2.800   7.555  18.491  0.00  0.00    +0.000 A 
ATOM      6  C   UNL     1       3.814   7.245  17.574  0.00  0.00    +0.000 A 
ENDROOT
BRANCH   1  10
ATOM      7  C   UNL     1       6.013   4.673  14.830  0.00  0.00    +0.000 A 
ATOM      8  C   UNL     1       7.199   4.958  15.530  0.00  0.00    +0.000 A 
ATOM      9  C   UNL     1       6.819   5.660  16.656  0.00  0.00    +0.000 A 
ATOM     10  N   UNL     1       5.428   5.667  16.634  0.00  0.00    +0.000 N 
ATOM     11  N   UNL     1       4.947   5.192  15.449  0.00  0.00    +0.000 NA
BRANCH   7  16
ATOM     12  C   UNL     1       7.330   1.940  10.955  0.00  0.00    +0.000 C 
ATOM     13  C   UNL     1       6.464   2.763  11.816  0.00  0.00    +0.000 A 
ATOM     14  N   UNL     1       5.156   2.895  11.795  0.00  0.00    +0.000 NA
ATOM     15  N   UNL     1       4.832   3.660  12.892  0.00  0.00    +0.000 NA
ATOM     16  C   UNL     1       5.963   3.941  13.522  0.00  0.00    +0.000 A 
ATOM     17  O   UNL     1       7.055   3.427  12.855  0.00  0.00    +0.000 OA
ENDBRANCH   7  16
BRANCH   9  18
ATOM     18  C   UNL     1       7.693   6.314  17.697  0.00  0.00    +0.000 C 
ATOM     19  C   UNL     1       7.560   7.837  17.623  0.00  0.00    +0.000 C 
ATOM     20  C   UNL     1       7.381   5.815  19.107  0.00  0.00    +0.000 C 
ENDBRANCH   9  18
ENDBRANCH   1  10
BRANCH   5  21
ATOM     21  C   UNL     1       1.957   8.787  18.404  0.00  0.00    +0.000 C 
ATOM     22  O   UNL     1       2.018   9.495  17.395  0.00  0.00    +0.000 OA
ATOM     23  N   UNL     1       1.142   9.102  19.469  0.00  0.00    +0.000 N 
ATOM     24  H   UNL     1       0.999   8.452  20.224  0.00  0.00    +0.000 HD
BRANCH  23  25
ATOM     25  C   UNL     1       0.343  10.320  19.474  0.00  0.00    +0.000 C 
BRANCH  25  26
ATOM     26  C   UNL     1       0.792  11.328  20.549  0.00  0.00    +0.000 C 
ATOM     27  C   UNL     1       1.558  12.500  19.914  0.00  0.00    +0.000 C 
BRANCH  26  28
ATOM     28  C   UNL     1      -0.399  11.773  21.392  0.00  0.00    +0.000 A 
ATOM     29  C   UNL     1      -1.069  12.963  21.059  0.00  0.00    +0.000 A 
ATOM     30  C   UNL     1      -2.150  13.417  21.821  0.00  0.00    +0.000 A 
ATOM     31  C   UNL     1      -2.574  12.693  22.932  0.00  0.00    +0.000 A 
ATOM     32  C   UNL     1      -1.916  11.517  23.282  0.00  0.00    +0.000 A 
ATOM     33  C   UNL     1      -0.834  11.063  22.520  0.00  0.00    +0.000 A 
ENDBRANCH  26  28
ENDBRANCH  25  26
ENDBRANCH  23  25
ENDBRANCH   5  21
TORSDOF 7
ENDMDL
