MODEL 1
REMARK VINA RESULT:      -7.3      0.000      0.000
REMARK  Name = 
REMARK  4 active torsions:
REMARK  status: ('A' for Active; 'I' for Inactive)
REMARK    1  A    between atoms: C_1  and  N_2
REMARK    2  A    between atoms: C_4  and  C_5
REMARK    3  A    between atoms: C_5  and  C_7
REMARK    4  A    between atoms: C_8  and  C_9
REMARK                            x       y       z     vdW  Elec       q    Type
REMARK                         _______ _______ _______ _____ _____    ______ ____
ROOT
ATOM      1  C   UNL     1       1.825   9.733  18.089  0.00  0.00    +0.000 C 
ATOM      2  O   UNL     1       2.614  10.461  17.492  0.00  0.00    +0.000 OA
ENDROOT
BRANCH   1   6
ATOM      3  C   UNL     1      -2.341  12.018  19.692  0.00  0.00    +0.000 C 
ATOM      4  N   UNL     1      -1.109  11.260  19.688  0.00  0.00    +0.000 N 
ATOM      5  C   UNL     1      -0.329  11.041  18.583  0.00  0.00    +0.000 A 
ATOM      6  C   UNL     1       0.752  10.249  18.947  0.00  0.00    +0.000 A 
ATOM      7  C   UNL     1       0.595   9.996  20.359  0.00  0.00    +0.000 A 
ATOM      8  C   UNL     1       1.341   9.265  21.312  0.00  0.00    +0.000 A 
ATOM      9  C   UNL     1       0.910   9.202  22.642  0.00  0.00    +0.000 A 
ATOM     10  C   UNL     1      -0.253   9.853  23.040  0.00  0.00    +0.000 A 
ATOM     11  C   UNL     1      -1.012  10.581  22.122  0.00  0.00    +0.000 A 
ATOM     12  C   UNL     1      -0.569  10.639  20.790  0.00  0.00    +0.000 A 
ENDBRANCH   1   6
BRANCH   1  13
ATOM     13  C   UNL     1       1.924   8.249  17.986  0.00  0.00    +0.000 C 
ATOM     14  C   UNL     1       3.094   7.647  18.259  0.00  0.00    +0.000 C 
BRANCH  14  15
ATOM     15  C   UNL     1       3.271   6.185  18.193  0.00  0.00    +0.000 A 
ATOM     16  C   UNL     1       4.066   5.595  17.192  0.00  0.00    +0.000 A 
ATOM     17 CL   UNL     1       4.882   6.544  15.994  0.00  0.00    +0.000 Cl
ATOM     18  C   UNL     1       4.236   4.206  17.131  0.00  0.00    +0.000 A 
ATOM     19  C   UNL     1       3.622   3.381  18.072  0.00  0.00    +0.000 A 
ATOM     20  C   UNL     1       2.839   3.946  19.074  0.00  0.00    +0.000 A 
ATOM     21  C   UNL     1       2.662   5.336  19.135  0.00  0.00    +0.000 A 
ATOM     22 CL   UNL     1       1.678   5.951  20.421  0.00  0.00    +0.000 Cl
ENDBRANCH  14  15
ENDBRANCH   1  13
TORSDOF 3
ENDMDL
MODEL 2
REMARK VINA RESULT:      -7.3      0.144      1.955
REMARK  Name = 
REMARK  4 active torsions:
REMARK  status: ('A' for Active; 'I' for Inactive)
REMARK    1  A    between atoms: C_1  and  N_2
REMARK    2  A    between atoms: C_4  and  C_5
REMARK    3  A    between atoms: C_5  and  C_7
REMARK    4  A    between atoms: C_8  and  C_9
REMARK                            x       y       z     vdW  Elec       q    Type
REMARK                         _______ _______ _______ _____ _____    ______ ____
ROOT
ATOM      1  C   UNL     1       1.808   9.614  18.023  0.00  0.00    +0.000 C 
ATOM      2  O   UNL     1       2.568  10.331  17.378  0.00  0.00    +0.000 OA
ENDROOT
BRANCH   1   6
ATOM      3  C   UNL     1      -2.293  11.935  19.738  0.00  0.00    +0.000 C 
ATOM      4  N   UNL     1      -1.065  11.172  19.702  0.00  0.00    +0.000 N 
ATOM      5  C   UNL     1      -0.323  10.936  18.573  0.00  0.00    +0.000 A 
ATOM      6  C   UNL     1       0.767  10.144  18.911  0.00  0.00    +0.000 A 
ATOM      7  C   UNL     1       0.658   9.911  20.330  0.00  0.00    +0.000 A 
ATOM      8  C   UNL     1       1.433   9.189  21.266  0.00  0.00    +0.000 A 
ATOM      9  C   UNL     1       1.047   9.144  22.612  0.00  0.00    +0.000 A 
ATOM     10  C   UNL     1      -0.099   9.804  23.041  0.00  0.00    +0.000 A 
ATOM     11  C   UNL     1      -0.887  10.524  22.140  0.00  0.00    +0.000 A 
ATOM     12  C   UNL     1      -0.489  10.563  20.792  0.00  0.00    +0.000 A 
ENDBRANCH   1   6
BRANCH   1  13
ATOM     13  C   UNL     1       1.912   8.128  17.953  0.00  0.00    +0.000 C 
ATOM     14  C   UNL     1       3.064   7.532  18.302  0.00  0.00    +0.000 C 
BRANCH  14  15
ATOM     15  C   UNL     1       3.244   6.069  18.272  0.00  0.00    +0.000 A 
ATOM     16  C   UNL     1       2.601   5.238  19.208  0.00  0.00    +0.000 A 
ATOM     17 CL   UNL     1       1.561   5.879  20.436  0.00  0.00    +0.000 Cl
ATOM     18  C   UNL     1       2.771   3.849  19.176  0.00  0.00    +0.000 A 
ATOM     19  C   UNL     1       3.581   3.262  18.206  0.00  0.00    +0.000 A 
ATOM     20  C   UNL     1       4.220   4.065  17.266  0.00  0.00    +0.000 A 
ATOM     21  C   UNL     1       4.055   5.458  17.297  0.00  0.00    +0.000 A 
ATOM     22 CL   UNL     1       4.881   6.378  16.084  0.00  0.00    +0.000 Cl
ENDBRANCH  14  15
ENDBRANCH   1  13
TORSDOF 3
ENDMDL
MODEL 3
REMARK VINA RESULT:      -7.3      1.374      2.649
REMARK  Name = 
REMARK  4 active torsions:
REMARK  status: ('A' for Active; 'I' for Inactive)
REMARK    1  A    between atoms: C_1  and  N_2
REMARK    2  A    between atoms: C_4  and  C_5
REMARK    3  A    between atoms: C_5  and  C_7
REMARK    4  A    between atoms: C_8  and  C_9
REMARK                            x       y       z     vdW  Elec       q    Type
REMARK                         _______ _______ _______ _____ _____    ______ ____
ROOT
ATOM      1  C   UNL     1       2.196   8.146  18.790  0.00  0.00    +0.000 C 
ATOM      2  O   UNL     1       2.581   8.730  17.780  0.00  0.00    +0.000 OA
ENDROOT
BRANCH   1   6
ATOM      3  C   UNL     1       0.147   9.417  23.186  0.00  0.00    +0.000 C 
ATOM      4  N   UNL     1       0.430   9.373  21.769  0.00  0.00    +0.000 N 
ATOM      5  C   UNL     1       1.326   8.521  21.176  0.00  0.00    +0.000 A 
ATOM      6  C   UNL     1       1.359   8.783  19.813  0.00  0.00    +0.000 A 
ATOM      7  C   UNL     1       0.414   9.851  19.596  0.00  0.00    +0.000 A 
ATOM      8  C   UNL     1      -0.008  10.568  18.452  0.00  0.00    +0.000 A 
ATOM      9  C   UNL     1      -0.963  11.584  18.574  0.00  0.00    +0.000 A 
ATOM     10  C   UNL     1      -1.504  11.901  19.815  0.00  0.00    +0.000 A 
ATOM     11  C   UNL     1      -1.105  11.214  20.963  0.00  0.00    +0.000 A 
ATOM     12  C   UNL     1      -0.147  10.194  20.829  0.00  0.00    +0.000 A 
ENDBRANCH   1   6
BRANCH   1  13
ATOM     13  C   UNL     1       2.579   6.728  19.048  0.00  0.00    +0.000 C 
ATOM     14  C   UNL     1       2.267   5.788  18.141  0.00  0.00    +0.000 C 
BRANCH  14  15
ATOM     15  C   UNL     1       2.620   4.367  18.314  0.00  0.00    +0.000 A 
ATOM     16  C   UNL     1       3.638   3.772  17.544  0.00  0.00    +0.000 A 
ATOM     17 CL   UNL     1       4.533   4.668  16.364  0.00  0.00    +0.000 Cl
ATOM     18  C   UNL     1       3.974   2.423  17.713  0.00  0.00    +0.000 A 
ATOM     19  C   UNL     1       3.306   1.644  18.656  0.00  0.00    +0.000 A 
ATOM     20  C   UNL     1       2.302   2.215  19.433  0.00  0.00    +0.000 A 
ATOM     21  C   UNL     1       1.960   3.565  19.264  0.00  0.00    +0.000 A 
ATOM     22 CL   UNL     1       0.705   4.194  20.279  0.00  0.00    +0.000 Cl
ENDBRANCH  14  15
ENDBRANCH   1  13
TORSDOF 3
ENDMDL
MODEL 4
REMARK VINA RESULT:      -7.3      1.359      3.281
REMARK  Name = 
REMARK  4 active torsions:
REMARK  status: ('A' for Active; 'I' for Inactive)
REMARK    1  A    between atoms: C_1  and  N_2
REMARK    2  A    between atoms: C_4  and  C_5
REMARK    3  A    between atoms: C_5  and  C_7
REMARK    4  A    between atoms: C_8  and  C_9
REMARK                            x       y       z     vdW  Elec       q    Type
REMARK                         _______ _______ _______ _____ _____    ______ ____
ROOT
ATOM      1  C   UNL     1       2.155   8.183  18.463  0.00  0.00    +0.000 C 
ATOM      2  O   UNL     1       2.393   8.750  17.399  0.00  0.00    +0.000 OA
ENDROOT
BRANCH   1   6
ATOM      3  C   UNL     1       0.347   9.383  22.983  0.00  0.00    +0.000 C 
ATOM      4  N   UNL     1       0.548   9.356  21.552  0.00  0.00    +0.000 N 
ATOM      5  C   UNL     1       1.420   8.523  20.899  0.00  0.00    +0.000 A 
ATOM      6  C   UNL     1       1.370   8.799  19.539  0.00  0.00    +0.000 A 
ATOM      7  C   UNL     1       0.400   9.855  19.388  0.00  0.00    +0.000 A 
ATOM      8  C   UNL     1      -0.098  10.576  18.278  0.00  0.00    +0.000 A 
ATOM      9  C   UNL     1      -1.059  11.578  18.466  0.00  0.00    +0.000 A 
ATOM     10  C   UNL     1      -1.531  11.875  19.739  0.00  0.00    +0.000 A 
ATOM     11  C   UNL     1      -1.057  11.182  20.855  0.00  0.00    +0.000 A 
ATOM     12  C   UNL     1      -0.094  10.178  20.655  0.00  0.00    +0.000 A 
ENDBRANCH   1   6
BRANCH   1  13
ATOM     13  C   UNL     1       2.675   6.813  18.734  0.00  0.00    +0.000 C 
ATOM     14  C   UNL     1       2.130   5.764  18.096  0.00  0.00    +0.000 C 
BRANCH  14  15
ATOM     15  C   UNL     1       2.595   4.380  18.298  0.00  0.00    +0.000 A 
ATOM     16  C   UNL     1       1.984   3.541  19.249  0.00  0.00    +0.000 A 
ATOM     17 CL   UNL     1       0.656   4.077  20.224  0.00  0.00    +0.000 Cl
ATOM     18  C   UNL     1       2.425   2.225  19.439  0.00  0.00    +0.000 A 
ATOM     19  C   UNL     1       3.478   1.720  18.679  0.00  0.00    +0.000 A 
ATOM     20  C   UNL     1       4.090   2.531  17.728  0.00  0.00    +0.000 A 
ATOM     21  C   UNL     1       3.655   3.851  17.539  0.00  0.00    +0.000 A 
ATOM     22 CL   UNL     1       4.469   4.784  16.328  0.00  0.00    +0.000 Cl
ENDBRANCH  14  15
ENDBRANCH   1  13
TORSDOF 3
ENDMDL
MODEL 5
REMARK VINA RESULT:      -7.3      1.098      1.350
REMARK  Name = 
REMARK  4 active torsions:
REMARK  status: ('A' for Active; 'I' for Inactive)
REMARK    1  A    between atoms: C_1  and  N_2
REMARK    2  A    between atoms: C_4  and  C_5
REMARK    3  A    between atoms: C_5  and  C_7
REMARK    4  A    between atoms: C_8  and  C_9
REMARK                            x       y       z     vdW  Elec       q    Type
REMARK                         _______ _______ _______ _____ _____    ______ ____
ROOT
ATOM      1  C   UNL     1       2.163   8.408  18.024  0.00  0.00    +0.000 C 
ATOM      2  O   UNL     1       3.144   8.903  17.473  0.00  0.00    +0.000 OA
ENDROOT
BRANCH   1   6
ATOM      3  C   UNL     1      -1.786  11.400  18.798  0.00  0.00    +0.000 C 
ATOM      4  N   UNL     1      -0.647  10.544  19.045  0.00  0.00    +0.000 N 
ATOM      5  C   UNL     1       0.149  10.000  18.069  0.00  0.00    +0.000 A 
ATOM      6  C   UNL     1       1.120   9.211  18.672  0.00  0.00    +0.000 A 
ATOM      7  C   UNL     1       0.880   9.308  20.091  0.00  0.00    +0.000 A 
ATOM      8  C   UNL     1       1.501   8.747  21.231  0.00  0.00    +0.000 A 
ATOM      9  C   UNL     1       1.012   9.035  22.510  0.00  0.00    +0.000 A 
ATOM     10  C   UNL     1      -0.087   9.871  22.676  0.00  0.00    +0.000 A 
ATOM     11  C   UNL     1      -0.724  10.439  21.570  0.00  0.00    +0.000 A 
ATOM     12  C   UNL     1      -0.223  10.144  20.290  0.00  0.00    +0.000 A 
ENDBRANCH   1   6
BRANCH   1  13
ATOM     13  C   UNL     1       1.980   6.930  18.080  0.00  0.00    +0.000 C 
ATOM     14  C   UNL     1       3.007   6.155  18.466  0.00  0.00    +0.000 C 
BRANCH  14  15
ATOM     15  C   UNL     1       2.905   4.687  18.560  0.00  0.00    +0.000 A 
ATOM     16  C   UNL     1       3.602   3.852  17.666  0.00  0.00    +0.000 A 
ATOM     17 CL   UNL     1       4.618   4.493  16.419  0.00  0.00    +0.000 Cl
ATOM     18  C   UNL     1       3.506   2.458  17.757  0.00  0.00    +0.000 A 
ATOM     19  C   UNL     1       2.718   1.871  18.746  0.00  0.00    +0.000 A 
ATOM     20  C   UNL     1       2.028   2.678  19.645  0.00  0.00    +0.000 A 
ATOM     21  C   UNL     1       2.118   4.075  19.553  0.00  0.00    +0.000 A 
ATOM     22 CL   UNL     1       1.232   5.001  20.718  0.00  0.00    +0.000 Cl
ENDBRANCH  14  15
ENDBRANCH   1  13
TORSDOF 3
ENDMDL
MODEL 6
REMARK VINA RESULT:      -7.2      1.120      2.375
REMARK  Name = 
REMARK  4 active torsions:
REMARK  status: ('A' for Active; 'I' for Inactive)
REMARK    1  A    between atoms: C_1  and  N_2
REMARK    2  A    between atoms: C_4  and  C_5
REMARK    3  A    between atoms: C_5  and  C_7
REMARK    4  A    between atoms: C_8  and  C_9
REMARK                            x       y       z     vdW  Elec       q    Type
REMARK                         _______ _______ _______ _____ _____    ______ ____
ROOT
ATOM      1  C   UNL     1       2.217   8.363  18.018  0.00  0.00    +0.000 C 
ATOM      2  O   UNL     1       3.201   8.836  17.454  0.00  0.00    +0.000 OA
ENDROOT
BRANCH   1   6
ATOM      3  C   UNL     1      -1.701  11.420  18.681  0.00  0.00    +0.000 C 
ATOM      4  N   UNL     1      -0.579  10.552  18.960  0.00  0.00    +0.000 N 
ATOM      5  C   UNL     1       0.226   9.983  18.006  0.00  0.00    +0.000 A 
ATOM      6  C   UNL     1       1.175   9.189  18.637  0.00  0.00    +0.000 A 
ATOM      7  C   UNL     1       0.911   9.310  20.050  0.00  0.00    +0.000 A 
ATOM      8  C   UNL     1       1.504   8.756  21.208  0.00  0.00    +0.000 A 
ATOM      9  C   UNL     1       0.998   9.070  22.475  0.00  0.00    +0.000 A 
ATOM     10  C   UNL     1      -0.092   9.924  22.609  0.00  0.00    +0.000 A 
ATOM     11  C   UNL     1      -0.701  10.485  21.484  0.00  0.00    +0.000 A 
ATOM     12  C   UNL     1      -0.183  10.164  20.218  0.00  0.00    +0.000 A 
ENDBRANCH   1   6
BRANCH   1  13
ATOM     13  C   UNL     1       2.030   6.888  18.122  0.00  0.00    +0.000 C 
ATOM     14  C   UNL     1       3.085   6.110  18.413  0.00  0.00    +0.000 C 
BRANCH  14  15
ATOM     15  C   UNL     1       2.982   4.645  18.545  0.00  0.00    +0.000 A 
ATOM     16  C   UNL     1       2.192   4.061  19.553  0.00  0.00    +0.000 A 
ATOM     17 CL   UNL     1       1.296   5.019  20.683  0.00  0.00    +0.000 Cl
ATOM     18  C   UNL     1       2.093   2.669  19.676  0.00  0.00    +0.000 A 
ATOM     19  C   UNL     1       2.774   1.835  18.792  0.00  0.00    +0.000 A 
ATOM     20  C   UNL     1       3.554   2.393  17.782  0.00  0.00    +0.000 A 
ATOM     21  C   UNL     1       3.659   3.786  17.659  0.00  0.00    +0.000 A 
ATOM     22 CL   UNL     1       4.645   4.392  16.370  0.00  0.00    +0.000 Cl
ENDBRANCH  14  15
ENDBRANCH   1  13
TORSDOF 3
ENDMDL
MODEL 7
REMARK VINA RESULT:      -7.2      0.900      2.257
REMARK  Name = 
REMARK  4 active torsions:
REMARK  status: ('A' for Active; 'I' for Inactive)
REMARK    1  A    between atoms: C_1  and  N_2
REMARK    2  A    between atoms: C_4  and  C_5
REMARK    3  A    between atoms: C_5  and  C_7
REMARK    4  A    between atoms: C_8  and  C_9
REMARK                            x       y       z     vdW  Elec       q    Type
REMARK                         _______ _______ _______ _____ _____    ______ ____
ROOT
ATOM      1  C   UNL     1       1.777   9.215  18.275  0.00  0.00    +0.000 C 
ATOM      2  O   UNL     1       2.298  10.041  17.529  0.00  0.00    +0.000 OA
ENDROOT
BRANCH   1   6
ATOM      3  C   UNL     1       0.038   9.469  22.971  0.00  0.00    +0.000 C 
ATOM      4  N   UNL     1       0.207   9.723  21.558  0.00  0.00    +0.000 N 
ATOM      5  C   UNL     1       1.088   9.059  20.743  0.00  0.00    +0.000 A 
ATOM      6  C   UNL     1       1.000   9.588  19.462  0.00  0.00    +0.000 A 
ATOM      7  C   UNL     1      -0.003  10.622  19.533  0.00  0.00    +0.000 A 
ATOM      8  C   UNL     1      -0.546  11.526  18.591  0.00  0.00    +0.000 A 
ATOM      9  C   UNL     1      -1.530  12.442  18.983  0.00  0.00    +0.000 A 
ATOM     10  C   UNL     1      -1.981  12.475  20.298  0.00  0.00    +0.000 A 
ATOM     11  C   UNL     1      -1.463  11.596  21.252  0.00  0.00    +0.000 A 
ATOM     12  C   UNL     1      -0.477  10.681  20.847  0.00  0.00    +0.000 A 
ENDBRANCH   1   6
BRANCH   1  13
ATOM     13  C   UNL     1       1.922   7.754  18.020  0.00  0.00    +0.000 C 
ATOM     14  C   UNL     1       3.021   7.116  18.455  0.00  0.00    +0.000 C 
BRANCH  14  15
ATOM     15  C   UNL     1       3.235   5.671  18.253  0.00  0.00    +0.000 A 
ATOM     16  C   UNL     1       4.072   5.197  17.225  0.00  0.00    +0.000 A 
ATOM     17 CL   UNL     1       4.899   6.273  16.150  0.00  0.00    +0.000 Cl
ATOM     18  C   UNL     1       4.276   3.824  17.037  0.00  0.00    +0.000 A 
ATOM     19  C   UNL     1       3.655   2.900  17.874  0.00  0.00    +0.000 A 
ATOM     20  C   UNL     1       2.830   3.348  18.902  0.00  0.00    +0.000 A 
ATOM     21  C   UNL     1       2.619   4.722  19.091  0.00  0.00    +0.000 A 
ATOM     22 CL   UNL     1       1.585   5.190  20.399  0.00  0.00    +0.000 Cl
ENDBRANCH  14  15
ENDBRANCH   1  13
TORSDOF 3
ENDMDL
MODEL 8
REMARK VINA RESULT:      -7.1      0.994      3.000
REMARK  Name = 
REMARK  4 active torsions:
REMARK  status: ('A' for Active; 'I' for Inactive)
REMARK    1  A    between atoms: C_1  and  N_2
REMARK    2  A    between atoms: C_4  and  C_5
REMARK    3  A    between atoms: C_5  and  C_7
REMARK    4  A    between atoms: C_8  and  C_9
REMARK                            x       y       z     vdW  Elec       q    Type
REMARK                         _______ _______ _______ _____ _____    ______ ____
ROOT
ATOM      1  C   UNL     1       1.806   8.999  18.285  0.00  0.00    +0.000 C 
ATOM      2  O   UNL     1       2.311   9.789  17.491  0.00  0.00    +0.000 OA
ENDROOT
BRANCH   1   6
ATOM      3  C   UNL     1       0.179   9.418  23.010  0.00  0.00    +0.000 C 
ATOM      4  N   UNL     1       0.328   9.636  21.588  0.00  0.00    +0.000 N 
ATOM      5  C   UNL     1       1.164   8.921  20.770  0.00  0.00    +0.000 A 
ATOM      6  C   UNL     1       1.069   9.426  19.480  0.00  0.00    +0.000 A 
ATOM      7  C   UNL     1       0.109  10.500  19.549  0.00  0.00    +0.000 A 
ATOM      8  C   UNL     1      -0.419  11.404  18.599  0.00  0.00    +0.000 A 
ATOM      9  C   UNL     1      -1.358  12.366  18.991  0.00  0.00    +0.000 A 
ATOM     10  C   UNL     1      -1.780  12.444  20.314  0.00  0.00    +0.000 A 
ATOM     11  C   UNL     1      -1.276  11.566  21.276  0.00  0.00    +0.000 A 
ATOM     12  C   UNL     1      -0.334  10.604  20.871  0.00  0.00    +0.000 A 
ENDBRANCH   1   6
BRANCH   1  13
ATOM     13  C   UNL     1       1.929   7.526  18.084  0.00  0.00    +0.000 C 
ATOM     14  C   UNL     1       3.057   6.903  18.464  0.00  0.00    +0.000 C 
BRANCH  14  15
ATOM     15  C   UNL     1       3.252   5.450  18.311  0.00  0.00    +0.000 A 
ATOM     16  C   UNL     1       2.601   4.536  19.161  0.00  0.00    +0.000 A 
ATOM     17 CL   UNL     1       1.534   5.058  20.421  0.00  0.00    +0.000 Cl
ATOM     18  C   UNL     1       2.786   3.155  19.012  0.00  0.00    +0.000 A 
ATOM     19  C   UNL     1       3.619   2.661  18.010  0.00  0.00    +0.000 A 
ATOM     20  C   UNL     1       4.265   3.548  17.154  0.00  0.00    +0.000 A 
ATOM     21  C   UNL     1       4.086   4.931  17.302  0.00  0.00    +0.000 A 
ATOM     22 CL   UNL     1       4.923   5.960  16.188  0.00  0.00    +0.000 Cl
ENDBRANCH  14  15
ENDBRANCH   1  13
TORSDOF 3
ENDMDL
MODEL 9
REMARK VINA RESULT:      -7.0      1.342      2.393
REMARK  Name = 
REMARK  4 active torsions:
REMARK  status: ('A' for Active; 'I' for Inactive)
REMARK    1  A    between atoms: C_1  and  N_2
REMARK    2  A    between atoms: C_4  and  C_5
REMARK    3  A    between atoms: C_5  and  C_7
REMARK    4  A    between atoms: C_8  and  C_9
REMARK                            x       y       z     vdW  Elec       q    Type
REMARK                         _______ _______ _______ _____ _____    ______ ____
ROOT
ATOM      1  C   UNL     1       1.508   9.107  18.282  0.00  0.00    +0.000 C 
ATOM      2  O   UNL     1       1.139   9.174  17.111  0.00  0.00    +0.000 OA
ENDROOT
BRANCH   1   6
ATOM      3  C   UNL     1       0.761  13.462  20.653  0.00  0.00    +0.000 C 
ATOM      4  N   UNL     1       0.799  12.043  20.373  0.00  0.00    +0.000 N 
ATOM      5  C   UNL     1       1.308  11.485  19.228  0.00  0.00    +0.000 A 
ATOM      6  C   UNL     1       1.147  10.107  19.292  0.00  0.00    +0.000 A 
ATOM      7  C   UNL     1       0.511   9.845  20.560  0.00  0.00    +0.000 A 
ATOM      8  C   UNL     1       0.077   8.668  21.213  0.00  0.00    +0.000 A 
ATOM      9  C   UNL     1      -0.531   8.747  22.472  0.00  0.00    +0.000 A 
ATOM     10  C   UNL     1      -0.717   9.978  23.091  0.00  0.00    +0.000 A 
ATOM     11  C   UNL     1      -0.301  11.159  22.471  0.00  0.00    +0.000 A 
ATOM     12  C   UNL     1       0.309  11.067  21.208  0.00  0.00    +0.000 A 
ENDBRANCH   1   6
BRANCH   1  13
ATOM     13  C   UNL     1       2.377   7.989  18.748  0.00  0.00    +0.000 C 
ATOM     14  C   UNL     1       2.260   6.781  18.172  0.00  0.00    +0.000 C 
BRANCH  14  15
ATOM     15  C   UNL     1       3.089   5.628  18.567  0.00  0.00    +0.000 A 
ATOM     16  C   UNL     1       2.703   4.785  19.627  0.00  0.00    +0.000 A 
ATOM     17 CL   UNL     1       1.241   5.047  20.517  0.00  0.00    +0.000 Cl
ATOM     18  C   UNL     1       3.490   3.688  19.999  0.00  0.00    +0.000 A 
ATOM     19  C   UNL     1       4.673   3.408  19.317  0.00  0.00    +0.000 A 
ATOM     20  C   UNL     1       5.067   4.223  18.261  0.00  0.00    +0.000 A 
ATOM     21  C   UNL     1       4.284   5.326  17.888  0.00  0.00    +0.000 A 
ATOM     22 CL   UNL     1       4.848   6.281  16.558  0.00  0.00    +0.000 Cl
ENDBRANCH  14  15
ENDBRANCH   1  13
TORSDOF 3
ENDMDL
