MODEL 1
REMARK VINA RESULT:      -6.3      0.000      0.000
REMARK  Name = 
REMARK  4 active torsions:
REMARK  status: ('A' for Active; 'I' for Inactive)
REMARK    1  A    between atoms: C_1  and  C_2
REMARK    2  A    between atoms: C_2  and  C_3
REMARK    3  A    between atoms: C_3  and  N_4
REMARK    4  A    between atoms: C_3  and  C_5
REMARK                            x       y       z     vdW  Elec       q    Type
REMARK                         _______ _______ _______ _____ _____    ______ ____
ROOT
ATOM      1  C   UNL     1       5.632   5.031  16.870  0.00  0.00    +0.000 A 
ATOM      2  N   UNL     1       5.613   6.345  16.999  0.00  0.00    +0.000 NA
ATOM      3  N   UNL     1       4.396   6.713  17.497  0.00  0.00    +0.000 NA
ATOM      4  C   UNL     1       3.677   5.624  17.685  0.00  0.00    +0.000 A 
ATOM      5  N   UNL     1       4.431   4.530  17.332  0.00  0.00    +0.000 N 
ATOM      6  C   UNL     1       4.043   3.138  17.397  0.00  0.00    +0.000 C 
ATOM      7  C   UNL     1       3.180   2.784  18.605  0.00  0.00    +0.000 C 
ATOM      8  C   UNL     1       1.702   3.149  18.449  0.00  0.00    +0.000 C 
ATOM      9  C   UNL     1       1.422   4.464  17.720  0.00  0.00    +0.000 C 
ATOM     10  C   UNL     1       2.282   5.618  18.215  0.00  0.00    +0.000 C 
ENDROOT
BRANCH   1  11
ATOM     11  C   UNL     1       6.743   4.215  16.270  0.00  0.00    +0.000 C 
BRANCH  11  12
ATOM     12  N   UNL     1       7.943   4.281  17.116  0.00  0.00    +0.000 NA
ATOM     13  H   UNL     1       8.165   3.331  17.421  0.00  0.00    +0.000 HD
ATOM     14  H   UNL     1       7.732   4.798  17.963  0.00  0.00    +0.000 HD
ENDBRANCH  11  12
BRANCH  11  16
ATOM     15  C   UNL     1       6.154   4.008  13.774  0.00  0.00    +0.000 C 
ATOM     16  C   UNL     1       7.028   4.677  14.824  0.00  0.00    +0.000 C 
ENDBRANCH  11  16
ENDBRANCH   1  11
TORSDOF 3
ENDMDL
MODEL 2
REMARK VINA RESULT:      -6.3      2.242      4.918
REMARK  Name = 
REMARK  4 active torsions:
REMARK  status: ('A' for Active; 'I' for Inactive)
REMARK    1  A    between atoms: C_1  and  C_2
REMARK    2  A    between atoms: C_2  and  C_3
REMARK    3  A    between atoms: C_3  and  N_4
REMARK    4  A    between atoms: C_3  and  C_5
REMARK                            x       y       z     vdW  Elec       q    Type
REMARK                         _______ _______ _______ _____ _____    ______ ____
ROOT
ATOM      1  C   UNL     1       4.436   3.550  18.613  0.00  0.00    +0.000 A 
ATOM      2  N   UNL     1       3.819   3.240  17.488  0.00  0.00    +0.000 NA
ATOM      3  N   UNL     1       4.268   4.074  16.505  0.00  0.00    +0.000 NA
ATOM      4  C   UNL     1       5.169   4.883  17.026  0.00  0.00    +0.000 A 
ATOM      5  N   UNL     1       5.333   4.567  18.353  0.00  0.00    +0.000 N 
ATOM      6  C   UNL     1       6.233   5.189  19.300  0.00  0.00    +0.000 C 
ATOM      7  C   UNL     1       7.582   5.590  18.710  0.00  0.00    +0.000 C 
ATOM      8  C   UNL     1       7.558   6.905  17.927  0.00  0.00    +0.000 C 
ATOM      9  C   UNL     1       6.301   7.152  17.093  0.00  0.00    +0.000 C 
ATOM     10  C   UNL     1       5.888   5.945  16.262  0.00  0.00    +0.000 C 
ENDROOT
BRANCH   1  11
ATOM     11  C   UNL     1       4.173   2.945  19.965  0.00  0.00    +0.000 C 
BRANCH  11  12
ATOM     12  N   UNL     1       5.063   1.798  20.195  0.00  0.00    +0.000 NA
ATOM     13  H   UNL     1       5.847   2.119  20.768  0.00  0.00    +0.000 HD
ATOM     14  H   UNL     1       5.470   1.503  19.314  0.00  0.00    +0.000 HD
ENDBRANCH  11  12
BRANCH  11  16
ATOM     15  C   UNL     1       1.907   3.412  21.091  0.00  0.00    +0.000 C 
ATOM     16  C   UNL     1       2.684   2.558  20.099  0.00  0.00    +0.000 C 
ENDBRANCH  11  16
ENDBRANCH   1  11
TORSDOF 3
ENDMDL
MODEL 3
REMARK VINA RESULT:      -6.2      1.729      2.081
REMARK  Name = 
REMARK  4 active torsions:
REMARK  status: ('A' for Active; 'I' for Inactive)
REMARK    1  A    between atoms: C_1  and  C_2
REMARK    2  A    between atoms: C_2  and  C_3
REMARK    3  A    between atoms: C_3  and  N_4
REMARK    4  A    between atoms: C_3  and  C_5
REMARK                            x       y       z     vdW  Elec       q    Type
REMARK                         _______ _______ _______ _____ _____    ______ ____
ROOT
ATOM      1  C   UNL     1       4.374   4.949  18.159  0.00  0.00    +0.000 A 
ATOM      2  N   UNL     1       4.105   6.241  18.137  0.00  0.00    +0.000 NA
ATOM      3  N   UNL     1       3.056   6.479  18.978  0.00  0.00    +0.000 NA
ATOM      4  C   UNL     1       2.694   5.336  19.525  0.00  0.00    +0.000 A 
ATOM      5  N   UNL     1       3.522   4.342  19.060  0.00  0.00    +0.000 N 
ATOM      6  C   UNL     1       3.494   2.939  19.412  0.00  0.00    +0.000 C 
ATOM      7  C   UNL     1       3.156   2.668  20.876  0.00  0.00    +0.000 C 
ATOM      8  C   UNL     1       1.662   2.740  21.198  0.00  0.00    +0.000 C 
ATOM      9  C   UNL     1       0.882   3.832  20.467  0.00  0.00    +0.000 C 
ATOM     10  C   UNL     1       1.575   5.187  20.501  0.00  0.00    +0.000 C 
ENDROOT
BRANCH   1  11
ATOM     11  C   UNL     1       5.392   4.240  17.309  0.00  0.00    +0.000 C 
BRANCH  11  12
ATOM     12  N   UNL     1       6.680   4.157  18.013  0.00  0.00    +0.000 NA
ATOM     13  H   UNL     1       6.776   3.207  18.379  0.00  0.00    +0.000 HD
ATOM     14  H   UNL     1       6.660   4.763  18.827  0.00  0.00    +0.000 HD
ENDBRANCH  11  12
BRANCH  11  16
ATOM     15  C   UNL     1       6.003   4.023  14.819  0.00  0.00    +0.000 C 
ATOM     16  C   UNL     1       5.527   4.938  15.938  0.00  0.00    +0.000 C 
ENDBRANCH  11  16
ENDBRANCH   1  11
TORSDOF 3
ENDMDL
MODEL 4
REMARK VINA RESULT:      -6.2      1.374      1.394
REMARK  Name = 
REMARK  4 active torsions:
REMARK  status: ('A' for Active; 'I' for Inactive)
REMARK    1  A    between atoms: C_1  and  C_2
REMARK    2  A    between atoms: C_2  and  C_3
REMARK    3  A    between atoms: C_3  and  N_4
REMARK    4  A    between atoms: C_3  and  C_5
REMARK                            x       y       z     vdW  Elec       q    Type
REMARK                         _______ _______ _______ _____ _____    ______ ____
ROOT
ATOM      1  C   UNL     1       5.602   4.482  17.904  0.00  0.00    +0.000 A 
ATOM      2  N   UNL     1       5.886   5.367  18.842  0.00  0.00    +0.000 NA
ATOM      3  N   UNL     1       4.820   5.454  19.690  0.00  0.00    +0.000 NA
ATOM      4  C   UNL     1       3.892   4.614  19.280  0.00  0.00    +0.000 A 
ATOM      5  N   UNL     1       4.356   3.951  18.169  0.00  0.00    +0.000 N 
ATOM      6  C   UNL     1       3.672   2.928  17.407  0.00  0.00    +0.000 C 
ATOM      7  C   UNL     1       2.840   1.968  18.252  0.00  0.00    +0.000 C 
ATOM      8  C   UNL     1       1.474   2.520  18.665  0.00  0.00    +0.000 C 
ATOM      9  C   UNL     1       1.443   4.007  19.017  0.00  0.00    +0.000 C 
ATOM     10  C   UNL     1       2.571   4.425  19.949  0.00  0.00    +0.000 C 
ENDROOT
BRANCH   1  11
ATOM     11  C   UNL     1       6.458   4.145  16.714  0.00  0.00    +0.000 C 
BRANCH  11  12
ATOM     12  N   UNL     1       7.883   4.261  17.059  0.00  0.00    +0.000 NA
ATOM     13  H   UNL     1       8.317   4.899  16.389  0.00  0.00    +0.000 HD
ATOM     14  H   UNL     1       8.339   3.365  16.918  0.00  0.00    +0.000 HD
ENDBRANCH  11  12
BRANCH  11  16
ATOM     15  C   UNL     1       5.794   4.262  14.232  0.00  0.00    +0.000 C 
ATOM     16  C   UNL     1       6.080   5.035  15.511  0.00  0.00    +0.000 C 
ENDBRANCH  11  16
ENDBRANCH   1  11
TORSDOF 3
ENDMDL
MODEL 5
REMARK VINA RESULT:      -6.1      1.072      1.209
REMARK  Name = 
REMARK  4 active torsions:
REMARK  status: ('A' for Active; 'I' for Inactive)
REMARK    1  A    between atoms: C_1  and  C_2
REMARK    2  A    between atoms: C_2  and  C_3
REMARK    3  A    between atoms: C_3  and  N_4
REMARK    4  A    between atoms: C_3  and  C_5
REMARK                            x       y       z     vdW  Elec       q    Type
REMARK                         _______ _______ _______ _____ _____    ______ ____
ROOT
ATOM      1  C   UNL     1       5.574   5.350  15.921  0.00  0.00    +0.000 A 
ATOM      2  N   UNL     1       5.549   6.667  16.002  0.00  0.00    +0.000 NA
ATOM      3  N   UNL     1       4.556   7.029  16.867  0.00  0.00    +0.000 NA
ATOM      4  C   UNL     1       3.985   5.933  17.325  0.00  0.00    +0.000 A 
ATOM      5  N   UNL     1       4.618   4.842  16.778  0.00  0.00    +0.000 N 
ATOM      6  C   UNL     1       4.327   3.446  17.018  0.00  0.00    +0.000 C 
ATOM      7  C   UNL     1       3.934   3.127  18.458  0.00  0.00    +0.000 C 
ATOM      8  C   UNL     1       2.477   3.449  18.796  0.00  0.00    +0.000 C 
ATOM      9  C   UNL     1       1.919   4.721  18.159  0.00  0.00    +0.000 C 
ATOM     10  C   UNL     1       2.850   5.917  18.294  0.00  0.00    +0.000 C 
ENDROOT
BRANCH   1  11
ATOM     11  C   UNL     1       6.449   4.534  15.010  0.00  0.00    +0.000 C 
BRANCH  11  12
ATOM     12  N   UNL     1       7.627   5.312  14.598  0.00  0.00    +0.000 NA
ATOM     13  H   UNL     1       8.031   4.859  13.776  0.00  0.00    +0.000 HD
ATOM     14  H   UNL     1       8.339   5.256  15.319  0.00  0.00    +0.000 HD
ENDBRANCH  11  12
BRANCH  11  16
ATOM     15  C   UNL     1       6.488   3.681  12.583  0.00  0.00    +0.000 C 
ATOM     16  C   UNL     1       5.639   4.027  13.798  0.00  0.00    +0.000 C 
ENDBRANCH  11  16
ENDBRANCH   1  11
TORSDOF 3
ENDMDL
MODEL 6
REMARK VINA RESULT:      -6.1      2.510      5.017
REMARK  Name = 
REMARK  4 active torsions:
REMARK  status: ('A' for Active; 'I' for Inactive)
REMARK    1  A    between atoms: C_1  and  C_2
REMARK    2  A    between atoms: C_2  and  C_3
REMARK    3  A    between atoms: C_3  and  N_4
REMARK    4  A    between atoms: C_3  and  C_5
REMARK                            x       y       z     vdW  Elec       q    Type
REMARK                         _______ _______ _______ _____ _____    ______ ____
ROOT
ATOM      1  C   UNL     1       3.509   3.055  19.229  0.00  0.00    +0.000 A 
ATOM      2  N   UNL     1       4.710   2.708  19.654  0.00  0.00    +0.000 NA
ATOM      3  N   UNL     1       5.578   3.722  19.372  0.00  0.00    +0.000 NA
ATOM      4  C   UNL     1       4.907   4.694  18.788  0.00  0.00    +0.000 A 
ATOM      5  N   UNL     1       3.584   4.330  18.705  0.00  0.00    +0.000 N 
ATOM      6  C   UNL     1       2.493   5.103  18.154  0.00  0.00    +0.000 C 
ATOM      7  C   UNL     1       2.584   6.601  18.432  0.00  0.00    +0.000 C 
ATOM      8  C   UNL     1       3.537   7.355  17.502  0.00  0.00    +0.000 C 
ATOM      9  C   UNL     1       4.818   6.610  17.128  0.00  0.00    +0.000 C 
ATOM     10  C   UNL     1       5.514   5.976  18.325  0.00  0.00    +0.000 C 
ENDROOT
BRANCH   1  11
ATOM     11  C   UNL     1       2.276   2.193  19.253  0.00  0.00    +0.000 C 
BRANCH  11  12
ATOM     12  N   UNL     1       1.786   1.962  17.886  0.00  0.00    +0.000 NA
ATOM     13  H   UNL     1       0.768   1.880  17.928  0.00  0.00    +0.000 HD
ATOM     14  H   UNL     1       2.120   1.063  17.555  0.00  0.00    +0.000 HD
ENDBRANCH  11  12
BRANCH  11  16
ATOM     15  C   UNL     1       1.586   2.915  21.624  0.00  0.00    +0.000 C 
ATOM     16  C   UNL     1       1.196   2.827  20.156  0.00  0.00    +0.000 C 
ENDBRANCH  11  16
ENDBRANCH   1  11
TORSDOF 3
ENDMDL
MODEL 7
REMARK VINA RESULT:      -6.0      2.012      2.380
REMARK  Name = 
REMARK  4 active torsions:
REMARK  status: ('A' for Active; 'I' for Inactive)
REMARK    1  A    between atoms: C_1  and  C_2
REMARK    2  A    between atoms: C_2  and  C_3
REMARK    3  A    between atoms: C_3  and  N_4
REMARK    4  A    between atoms: C_3  and  C_5
REMARK                            x       y       z     vdW  Elec       q    Type
REMARK                         _______ _______ _______ _____ _____    ______ ____
ROOT
ATOM      1  C   UNL     1       5.058   5.379  18.297  0.00  0.00    +0.000 A 
ATOM      2  N   UNL     1       4.439   6.445  17.824  0.00  0.00    +0.000 NA
ATOM      3  N   UNL     1       3.098   6.191  17.802  0.00  0.00    +0.000 NA
ATOM      4  C   UNL     1       2.896   4.978  18.275  0.00  0.00    +0.000 A 
ATOM      5  N   UNL     1       4.108   4.436  18.632  0.00  0.00    +0.000 N 
ATOM      6  C   UNL     1       4.351   3.132  19.210  0.00  0.00    +0.000 C 
ATOM      7  C   UNL     1       3.286   2.681  20.206  0.00  0.00    +0.000 C 
ATOM      8  C   UNL     1       2.020   2.115  19.559  0.00  0.00    +0.000 C 
ATOM      9  C   UNL     1       1.563   2.820  18.281  0.00  0.00    +0.000 C 
ATOM     10  C   UNL     1       1.555   4.337  18.405  0.00  0.00    +0.000 C 
ENDROOT
BRANCH   1  11
ATOM     11  C   UNL     1       6.547   5.192  18.402  0.00  0.00    +0.000 C 
BRANCH  11  12
ATOM     12  N   UNL     1       6.996   5.416  19.784  0.00  0.00    +0.000 NA
ATOM     13  H   UNL     1       6.265   5.941  20.269  0.00  0.00    +0.000 HD
ATOM     14  H   UNL     1       7.811   6.020  19.781  0.00  0.00    +0.000 HD
ENDBRANCH  11  12
BRANCH  11  16
ATOM     15  C   UNL     1       7.874   7.364  18.027  0.00  0.00    +0.000 C 
ATOM     16  C   UNL     1       7.276   6.113  17.400  0.00  0.00    +0.000 C 
ENDBRANCH  11  16
ENDBRANCH   1  11
TORSDOF 3
ENDMDL
MODEL 8
REMARK VINA RESULT:      -6.0      2.057      2.765
REMARK  Name = 
REMARK  4 active torsions:
REMARK  status: ('A' for Active; 'I' for Inactive)
REMARK    1  A    between atoms: C_1  and  C_2
REMARK    2  A    between atoms: C_2  and  C_3
REMARK    3  A    between atoms: C_3  and  N_4
REMARK    4  A    between atoms: C_3  and  C_5
REMARK                            x       y       z     vdW  Elec       q    Type
REMARK                         _______ _______ _______ _____ _____    ______ ____
ROOT
ATOM      1  C   UNL     1       4.819   4.041  17.774  0.00  0.00    +0.000 A 
ATOM      2  N   UNL     1       5.773   3.961  18.683  0.00  0.00    +0.000 NA
ATOM      3  N   UNL     1       5.204   3.621  19.877  0.00  0.00    +0.000 NA
ATOM      4  C   UNL     1       3.907   3.479  19.694  0.00  0.00    +0.000 A 
ATOM      5  N   UNL     1       3.620   3.703  18.368  0.00  0.00    +0.000 N 
ATOM      6  C   UNL     1       2.325   3.635  17.726  0.00  0.00    +0.000 C 
ATOM      7  C   UNL     1       1.423   2.523  18.253  0.00  0.00    +0.000 C 
ATOM      8  C   UNL     1       0.711   2.862  19.565  0.00  0.00    +0.000 C 
ATOM      9  C   UNL     1       1.535   3.664  20.573  0.00  0.00    +0.000 C 
ATOM     10  C   UNL     1       2.940   3.114  20.770  0.00  0.00    +0.000 C 
ENDROOT
BRANCH   1  11
ATOM     11  C   UNL     1       4.990   4.479  16.345  0.00  0.00    +0.000 C 
BRANCH  11  12
ATOM     12  N   UNL     1       5.964   3.619  15.658  0.00  0.00    +0.000 NA
ATOM     13  H   UNL     1       6.656   4.224  15.210  0.00  0.00    +0.000 HD
ATOM     14  H   UNL     1       5.503   3.123  14.902  0.00  0.00    +0.000 HD
ENDBRANCH  11  12
BRANCH  11  16
ATOM     15  C   UNL     1       4.468   6.892  17.068  0.00  0.00    +0.000 C 
ATOM     16  C   UNL     1       5.390   5.969  16.285  0.00  0.00    +0.000 C 
ENDBRANCH  11  16
ENDBRANCH   1  11
TORSDOF 3
ENDMDL
MODEL 9
REMARK VINA RESULT:      -6.0      2.061      3.091
REMARK  Name = 
REMARK  4 active torsions:
REMARK  status: ('A' for Active; 'I' for Inactive)
REMARK    1  A    between atoms: C_1  and  C_2
REMARK    2  A    between atoms: C_2  and  C_3
REMARK    3  A    between atoms: C_3  and  N_4
REMARK    4  A    between atoms: C_3  and  C_5
REMARK                            x       y       z     vdW  Elec       q    Type
REMARK                         _______ _______ _______ _____ _____    ______ ____
ROOT
ATOM      1  C   UNL     1       5.641   5.512  18.064  0.00  0.00    +0.000 A 
ATOM      2  N   UNL     1       6.503   4.669  18.599  0.00  0.00    +0.000 NA
ATOM      3  N   UNL     1       5.812   3.764  19.352  0.00  0.00    +0.000 NA
ATOM      4  C   UNL     1       4.528   4.046  19.267  0.00  0.00    +0.000 A 
ATOM      5  N   UNL     1       4.367   5.127  18.433  0.00  0.00    +0.000 N 
ATOM      6  C   UNL     1       3.126   5.760  18.045  0.00  0.00    +0.000 C 
ATOM      7  C   UNL     1       1.967   4.789  17.835  0.00  0.00    +0.000 C 
ATOM      8  C   UNL     1       1.287   4.336  19.128  0.00  0.00    +0.000 C 
ATOM      9  C   UNL     1       2.220   4.102  20.316  0.00  0.00    +0.000 C 
ATOM     10  C   UNL     1       3.450   3.280  19.959  0.00  0.00    +0.000 C 
ENDROOT
BRANCH   1  11
ATOM     11  C   UNL     1       5.979   6.723  17.239  0.00  0.00    +0.000 C 
BRANCH  11  12
ATOM     12  N   UNL     1       5.595   6.512  15.835  0.00  0.00    +0.000 NA
ATOM     13  H   UNL     1       5.214   5.567  15.754  0.00  0.00    +0.000 HD
ATOM     14  H   UNL     1       6.425   6.524  15.252  0.00  0.00    +0.000 HD
ENDBRANCH  11  12
BRANCH  11  16
ATOM     15  C   UNL     1       7.749   8.531  17.705  0.00  0.00    +0.000 C 
ATOM     16  C   UNL     1       7.477   7.069  17.383  0.00  0.00    +0.000 C 
ENDBRANCH  11  16
ENDBRANCH   1  11
TORSDOF 3
ENDMDL
