MODEL 1
REMARK VINA RESULT:      -7.1      0.000      0.000
REMARK  Name = 
REMARK  17 active torsions:
REMARK  status: ('A' for Active; 'I' for Inactive)
REMARK    1  A    between atoms: C_1  and  C_2
REMARK    2  A    between atoms: C_2  and  C_3
REMARK    3  A    between atoms: C_3  and  C_4
REMARK    4  A    between atoms: N_6  and  C_7
REMARK    5  A    between atoms: C_10  and  O_11
REMARK    6  A    between atoms: O_11  and  C_12
REMARK    7  A    between atoms: C_12  and  C_13
REMARK    8  A    between atoms: C_13  and  O_14
REMARK    9  A    between atoms: C_13  and  C_15
REMARK   10  A    between atoms: C_15  and  N_16
REMARK   11  A    between atoms: N_16  and  C_17
REMARK   12  A    between atoms: C_17  and  C_18
REMARK   13  A    between atoms: C_17  and  C_19
REMARK   14  A    between atoms: C_20  and  C_21
REMARK   15  A    between atoms: C_21  and  C_23
REMARK   16  A    between atoms: C_23  and  C_24
REMARK   17  A    between atoms: C_24  and  C_25
REMARK                            x       y       z     vdW  Elec       q    Type
REMARK                         _______ _______ _______ _____ _____    ______ ____
ROOT
ATOM      1  C   UNL     1       2.316   6.912  19.773  0.00  0.00    +0.000 A 
ATOM      2  C   UNL     1       3.099   7.459  18.778  0.00  0.00    +0.000 A 
ATOM      3  C   UNL     1       3.540   6.683  17.715  0.00  0.00    +0.000 A 
ATOM      4  C   UNL     1       3.267   5.308  17.623  0.00  0.00    +0.000 A 
ATOM      5  C   UNL     1       2.374   4.754  18.560  0.00  0.00    +0.000 A 
ATOM      6  C   UNL     1       1.939   5.565  19.649  0.00  0.00    +0.000 A 
ENDROOT
BRANCH   1   9
ATOM      7  C   UNL     1       1.132   8.796  20.873  0.00  0.00    +0.000 C 
ATOM      8  O   UNL     1       0.539   9.250  19.899  0.00  0.00    +0.000 OA
ATOM      9  N   UNL     1       1.911   7.648  20.903  0.00  0.00    +0.000 N 
ATOM     10  H   UNL     1       2.169   7.279  21.809  0.00  0.00    +0.000 HD
BRANCH   7  11
ATOM     11  C   UNL     1       1.036   9.511  22.203  0.00  0.00    +0.000 C 
BRANCH  11  13
ATOM     12  C   UNL     1      -1.037  10.744  23.019  0.00  0.00    +0.000 C 
ATOM     13  C   UNL     1      -0.342   9.398  22.851  0.00  0.00    +0.000 C 
ENDBRANCH  11  13
ENDBRANCH   7  11
ENDBRANCH   1   9
BRANCH   5  14
ATOM     14  C   UNL     1       1.748   3.389  18.525  0.00  0.00    +0.000 C 
ATOM     15  O   UNL     1       0.862   3.184  17.686  0.00  0.00    +0.000 OA
BRANCH  14  16
ATOM     16  C   UNL     1       2.127   2.273  19.474  0.00  0.00    +0.000 C 
BRANCH  16  17
ATOM     17  C   UNL     1       1.349   2.394  20.785  0.00  0.00    +0.000 C 
ATOM     18  C   UNL     1       2.251   2.784  21.947  0.00  0.00    +0.000 C 
ENDBRANCH  16  17
ENDBRANCH  14  16
ENDBRANCH   5  14
BRANCH   4  19
ATOM     19  O   UNL     1       3.884   4.546  16.643  0.00  0.00    +0.000 OA
BRANCH  19  20
ATOM     20  C   UNL     1       5.139   3.977  17.098  0.00  0.00    +0.000 C 
BRANCH  20  21
ATOM     21  C   UNL     1       6.325   4.183  16.151  0.00  0.00    +0.000 C 
BRANCH  21  22
ATOM     22  O   UNL     1       6.212   3.320  15.018  0.00  0.00    +0.000 OA
ATOM     23  H   UNL     1       6.868   3.632  14.366  0.00  0.00    +0.000 HD
ENDBRANCH  21  22
BRANCH  21  24
ATOM     24  C   UNL     1       6.494   5.640  15.698  0.00  0.00    +0.000 C 
BRANCH  24  25
ATOM     25  N   UNL     1       7.627   6.288  16.368  0.00  0.00    +0.000 NA
ATOM     26  H   UNL     1       8.022   7.001  15.752  0.00  0.00    +0.000 HD
BRANCH  25  27
ATOM     27  C   UNL     1       7.281   6.911  17.651  0.00  0.00    +0.000 C 
ATOM     28  C   UNL     1       7.785   6.110  18.852  0.00  0.00    +0.000 C 
ATOM     29  C   UNL     1       7.908   8.309  17.674  0.00  0.00    +0.000 C 
ENDBRANCH  25  27
ENDBRANCH  24  25
ENDBRANCH  21  24
ENDBRANCH  20  21
ENDBRANCH  19  20
ENDBRANCH   4  19
TORSDOF 13
ENDMDL
MODEL 2
REMARK VINA RESULT:      -7.0      2.779      6.692
REMARK  Name = 
REMARK  17 active torsions:
REMARK  status: ('A' for Active; 'I' for Inactive)
REMARK    1  A    between atoms: C_1  and  C_2
REMARK    2  A    between atoms: C_2  and  C_3
REMARK    3  A    between atoms: C_3  and  C_4
REMARK    4  A    between atoms: N_6  and  C_7
REMARK    5  A    between atoms: C_10  and  O_11
REMARK    6  A    between atoms: O_11  and  C_12
REMARK    7  A    between atoms: C_12  and  C_13
REMARK    8  A    between atoms: C_13  and  O_14
REMARK    9  A    between atoms: C_13  and  C_15
REMARK   10  A    between atoms: C_15  and  N_16
REMARK   11  A    between atoms: N_16  and  C_17
REMARK   12  A    between atoms: C_17  and  C_18
REMARK   13  A    between atoms: C_17  and  C_19
REMARK   14  A    between atoms: C_20  and  C_21
REMARK   15  A    between atoms: C_21  and  C_23
REMARK   16  A    between atoms: C_23  and  C_24
REMARK   17  A    between atoms: C_24  and  C_25
REMARK                            x       y       z     vdW  Elec       q    Type
REMARK                         _______ _______ _______ _____ _____    ______ ____
ROOT
ATOM      1  C   UNL     1       7.501   6.373  18.262  0.00  0.00    +0.000 A 
ATOM      2  C   UNL     1       6.750   5.586  19.110  0.00  0.00    +0.000 A 
ATOM      3  C   UNL     1       5.919   4.595  18.606  0.00  0.00    +0.000 A 
ATOM      4  C   UNL     1       5.754   4.379  17.228  0.00  0.00    +0.000 A 
ATOM      5  C   UNL     1       6.595   5.087  16.349  0.00  0.00    +0.000 A 
ATOM      6  C   UNL     1       7.437   6.106  16.885  0.00  0.00    +0.000 A 
ENDROOT
BRANCH   1   9
ATOM      7  C   UNL     1       8.211   8.751  18.302  0.00  0.00    +0.000 C 
ATOM      8  O   UNL     1       7.331   9.231  17.592  0.00  0.00    +0.000 OA
ATOM      9  N   UNL     1       8.299   7.434  18.730  0.00  0.00    +0.000 N 
ATOM     10  H   UNL     1       8.955   7.224  19.472  0.00  0.00    +0.000 HD
BRANCH   7  11
ATOM     11  C   UNL     1       9.333   9.638  18.797  0.00  0.00    +0.000 C 
BRANCH  11  13
ATOM     12  C   UNL     1       9.318  12.157  19.163  0.00  0.00    +0.000 C 
ATOM     13  C   UNL     1       9.342  11.020  18.148  0.00  0.00    +0.000 C 
ENDBRANCH  11  13
ENDBRANCH   7  11
ENDBRANCH   1   9
BRANCH   5  14
ATOM     14  C   UNL     1       6.776   4.856  14.877  0.00  0.00    +0.000 C 
ATOM     15  O   UNL     1       7.759   5.371  14.330  0.00  0.00    +0.000 OA
BRANCH  14  16
ATOM     16  C   UNL     1       5.808   4.053  14.033  0.00  0.00    +0.000 C 
BRANCH  16  17
ATOM     17  C   UNL     1       6.372   3.831  12.630  0.00  0.00    +0.000 C 
ATOM     18  C   UNL     1       5.611   2.752  11.875  0.00  0.00    +0.000 C 
ENDBRANCH  16  17
ENDBRANCH  14  16
ENDBRANCH   5  14
BRANCH   4  19
ATOM     19  O   UNL     1       4.776   3.505  16.778  0.00  0.00    +0.000 OA
BRANCH  19  20
ATOM     20  C   UNL     1       4.096   2.832  17.870  0.00  0.00    +0.000 C 
BRANCH  20  21
ATOM     21  C   UNL     1       2.566   2.881  17.808  0.00  0.00    +0.000 C 
BRANCH  21  22
ATOM     22  O   UNL     1       2.010   1.649  18.273  0.00  0.00    +0.000 OA
ATOM     23  H   UNL     1       1.609   1.838  19.143  0.00  0.00    +0.000 HD
ENDBRANCH  21  22
BRANCH  21  24
ATOM     24  C   UNL     1       1.965   4.063  18.581  0.00  0.00    +0.000 C 
BRANCH  24  25
ATOM     25  N   UNL     1       2.163   5.332  17.870  0.00  0.00    +0.000 NA
ATOM     26  H   UNL     1       1.254   5.732  17.632  0.00  0.00    +0.000 HD
BRANCH  25  27
ATOM     27  C   UNL     1       2.932   6.325  18.630  0.00  0.00    +0.000 C 
ATOM     28  C   UNL     1       3.138   7.629  17.859  0.00  0.00    +0.000 C 
ATOM     29  C   UNL     1       2.166   6.616  19.925  0.00  0.00    +0.000 C 
ENDBRANCH  25  27
ENDBRANCH  24  25
ENDBRANCH  21  24
ENDBRANCH  20  21
ENDBRANCH  19  20
ENDBRANCH   4  19
TORSDOF 13
ENDMDL
MODEL 3
REMARK VINA RESULT:      -7.0      1.704      2.584
REMARK  Name = 
REMARK  17 active torsions:
REMARK  status: ('A' for Active; 'I' for Inactive)
REMARK    1  A    between atoms: C_1  and  C_2
REMARK    2  A    between atoms: C_2  and  C_3
REMARK    3  A    between atoms: C_3  and  C_4
REMARK    4  A    between atoms: N_6  and  C_7
REMARK    5  A    between atoms: C_10  and  O_11
REMARK    6  A    between atoms: O_11  and  C_12
REMARK    7  A    between atoms: C_12  and  C_13
REMARK    8  A    between atoms: C_13  and  O_14
REMARK    9  A    between atoms: C_13  and  C_15
REMARK   10  A    between atoms: C_15  and  N_16
REMARK   11  A    between atoms: N_16  and  C_17
REMARK   12  A    between atoms: C_17  and  C_18
REMARK   13  A    between atoms: C_17  and  C_19
REMARK   14  A    between atoms: C_20  and  C_21
REMARK   15  A    between atoms: C_21  and  C_23
REMARK   16  A    between atoms: C_23  and  C_24
REMARK   17  A    between atoms: C_24  and  C_25
REMARK                            x       y       z     vdW  Elec       q    Type
REMARK                         _______ _______ _______ _____ _____    ______ ____
ROOT
ATOM      1  C   UNL     1       2.412   7.309  18.957  0.00  0.00    +0.000 A 
ATOM      2  C   UNL     1       3.296   7.689  17.969  0.00  0.00    +0.000 A 
ATOM      3  C   UNL     1       3.902   6.741  17.156  0.00  0.00    +0.000 A 
ATOM      4  C   UNL     1       3.699   5.362  17.328  0.00  0.00    +0.000 A 
ATOM      5  C   UNL     1       2.714   4.955  18.248  0.00  0.00    +0.000 A 
ATOM      6  C   UNL     1       2.108   5.944  19.079  0.00  0.00    +0.000 A 
ENDROOT
BRANCH   1   9
ATOM      7  C   UNL     1       1.068   9.330  19.476  0.00  0.00    +0.000 C 
ATOM      8  O   UNL     1       0.633   9.570  18.353  0.00  0.00    +0.000 OA
ATOM      9  N   UNL     1       1.834   8.234  19.846  0.00  0.00    +0.000 N 
ATOM     10  H   UNL     1       1.948   8.053  20.836  0.00  0.00    +0.000 HD
BRANCH   7  11
ATOM     11  C   UNL     1       0.763  10.283  20.611  0.00  0.00    +0.000 C 
BRANCH  11  13
ATOM     12  C   UNL     1      -0.466   9.102  22.502  0.00  0.00    +0.000 C 
ATOM     13  C   UNL     1       0.867   9.634  21.989  0.00  0.00    +0.000 C 
ENDBRANCH  11  13
ENDBRANCH   7  11
ENDBRANCH   1   9
BRANCH   5  14
ATOM     14  C   UNL     1       2.152   3.574  18.431  0.00  0.00    +0.000 C 
ATOM     15  O   UNL     1       1.069   3.318  17.891  0.00  0.00    +0.000 OA
BRANCH  14  16
ATOM     16  C   UNL     1       2.828   2.501  19.258  0.00  0.00    +0.000 C 
BRANCH  16  17
ATOM     17  C   UNL     1       2.820   2.879  20.740  0.00  0.00    +0.000 C 
ATOM     18  C   UNL     1       1.436   2.734  21.356  0.00  0.00    +0.000 C 
ENDBRANCH  16  17
ENDBRANCH  14  16
ENDBRANCH   5  14
BRANCH   4  19
ATOM     19  O   UNL     1       4.468   4.456  16.614  0.00  0.00    +0.000 OA
BRANCH  19  20
ATOM     20  C   UNL     1       5.725   4.160  17.277  0.00  0.00    +0.000 C 
BRANCH  20  21
ATOM     21  C   UNL     1       6.959   4.812  16.645  0.00  0.00    +0.000 C 
BRANCH  21  22
ATOM     22  O   UNL     1       8.147   4.140  17.068  0.00  0.00    +0.000 OA
ATOM     23  H   UNL     1       8.881   4.771  16.941  0.00  0.00    +0.000 HD
ENDBRANCH  21  22
BRANCH  21  24
ATOM     24  C   UNL     1       6.896   4.871  15.113  0.00  0.00    +0.000 C 
BRANCH  24  25
ATOM     25  N   UNL     1       6.273   3.668  14.548  0.00  0.00    +0.000 NA
ATOM     26  H   UNL     1       5.275   3.670  14.766  0.00  0.00    +0.000 HD
BRANCH  25  27
ATOM     27  C   UNL     1       6.440   3.538  13.096  0.00  0.00    +0.000 C 
ATOM     28  C   UNL     1       5.108   3.538  12.345  0.00  0.00    +0.000 C 
ATOM     29  C   UNL     1       7.293   4.718  12.618  0.00  0.00    +0.000 C 
ENDBRANCH  25  27
ENDBRANCH  24  25
ENDBRANCH  21  24
ENDBRANCH  20  21
ENDBRANCH  19  20
ENDBRANCH   4  19
TORSDOF 13
ENDMDL
MODEL 4
REMARK VINA RESULT:      -6.9      2.664      8.064
REMARK  Name = 
REMARK  17 active torsions:
REMARK  status: ('A' for Active; 'I' for Inactive)
REMARK    1  A    between atoms: C_1  and  C_2
REMARK    2  A    between atoms: C_2  and  C_3
REMARK    3  A    between atoms: C_3  and  C_4
REMARK    4  A    between atoms: N_6  and  C_7
REMARK    5  A    between atoms: C_10  and  O_11
REMARK    6  A    between atoms: O_11  and  C_12
REMARK    7  A    between atoms: C_12  and  C_13
REMARK    8  A    between atoms: C_13  and  O_14
REMARK    9  A    between atoms: C_13  and  C_15
REMARK   10  A    between atoms: C_15  and  N_16
REMARK   11  A    between atoms: N_16  and  C_17
REMARK   12  A    between atoms: C_17  and  C_18
REMARK   13  A    between atoms: C_17  and  C_19
REMARK   14  A    between atoms: C_20  and  C_21
REMARK   15  A    between atoms: C_21  and  C_23
REMARK   16  A    between atoms: C_23  and  C_24
REMARK   17  A    between atoms: C_24  and  C_25
REMARK                            x       y       z     vdW  Elec       q    Type
REMARK                         _______ _______ _______ _____ _____    ______ ____
ROOT
ATOM      1  C   UNL     1       5.721   4.194  15.946  0.00  0.00    +0.000 A 
ATOM      2  C   UNL     1       4.376   4.428  16.146  0.00  0.00    +0.000 A 
ATOM      3  C   UNL     1       3.925   4.998  17.329  0.00  0.00    +0.000 A 
ATOM      4  C   UNL     1       4.787   5.309  18.393  0.00  0.00    +0.000 A 
ATOM      5  C   UNL     1       6.172   5.189  18.169  0.00  0.00    +0.000 A 
ATOM      6  C   UNL     1       6.616   4.595  16.951  0.00  0.00    +0.000 A 
ENDROOT
BRANCH   1   9
ATOM      7  C   UNL     1       6.753   4.195  13.689  0.00  0.00    +0.000 C 
ATOM      8  O   UNL     1       7.049   5.384  13.609  0.00  0.00    +0.000 OA
ATOM      9  N   UNL     1       6.210   3.553  14.792  0.00  0.00    +0.000 N 
ATOM     10  H   UNL     1       6.208   2.541  14.792  0.00  0.00    +0.000 HD
BRANCH   7  11
ATOM     11  C   UNL     1       6.987   3.289  12.500  0.00  0.00    +0.000 C 
BRANCH  11  13
ATOM     12  C   UNL     1       4.555   3.179  11.757  0.00  0.00    +0.000 C 
ATOM     13  C   UNL     1       5.991   3.511  11.365  0.00  0.00    +0.000 C 
ENDBRANCH  11  13
ENDBRANCH   7  11
ENDBRANCH   1   9
BRANCH   5  14
ATOM     14  C   UNL     1       7.284   5.682  19.050  0.00  0.00    +0.000 C 
ATOM     15  O   UNL     1       7.410   5.158  20.164  0.00  0.00    +0.000 OA
BRANCH  14  16
ATOM     16  C   UNL     1       8.230   6.796  18.655  0.00  0.00    +0.000 C 
BRANCH  16  17
ATOM     17  C   UNL     1       7.547   7.766  17.690  0.00  0.00    +0.000 C 
ATOM     18  C   UNL     1       8.083   9.182  17.833  0.00  0.00    +0.000 C 
ENDBRANCH  16  17
ENDBRANCH  14  16
ENDBRANCH   5  14
BRANCH   4  19
ATOM     19  O   UNL     1       4.264   5.700  19.615  0.00  0.00    +0.000 OA
BRANCH  19  20
ATOM     20  C   UNL     1       2.897   6.175  19.501  0.00  0.00    +0.000 C 
BRANCH  20  21
ATOM     21  C   UNL     1       2.009   5.892  20.716  0.00  0.00    +0.000 C 
BRANCH  21  22
ATOM     22  O   UNL     1       1.130   6.993  20.957  0.00  0.00    +0.000 OA
ATOM     23  H   UNL     1       1.580   7.786  20.608  0.00  0.00    +0.000 HD
ENDBRANCH  21  22
BRANCH  21  24
ATOM     24  C   UNL     1       1.209   4.588  20.594  0.00  0.00    +0.000 C 
BRANCH  24  25
ATOM     25  N   UNL     1       1.555   3.853  19.371  0.00  0.00    +0.000 NA
ATOM     26  H   UNL     1       2.265   4.373  18.852  0.00  0.00    +0.000 HD
BRANCH  25  27
ATOM     27  C   UNL     1       2.051   2.493  19.615  0.00  0.00    +0.000 C 
ATOM     28  C   UNL     1       2.649   1.848  18.365  0.00  0.00    +0.000 C 
ATOM     29  C   UNL     1       3.123   2.578  20.707  0.00  0.00    +0.000 C 
ENDBRANCH  25  27
ENDBRANCH  24  25
ENDBRANCH  21  24
ENDBRANCH  20  21
ENDBRANCH  19  20
ENDBRANCH   4  19
TORSDOF 13
ENDMDL
MODEL 5
REMARK VINA RESULT:      -6.8      2.818      7.801
REMARK  Name = 
REMARK  17 active torsions:
REMARK  status: ('A' for Active; 'I' for Inactive)
REMARK    1  A    between atoms: C_1  and  C_2
REMARK    2  A    between atoms: C_2  and  C_3
REMARK    3  A    between atoms: C_3  and  C_4
REMARK    4  A    between atoms: N_6  and  C_7
REMARK    5  A    between atoms: C_10  and  O_11
REMARK    6  A    between atoms: O_11  and  C_12
REMARK    7  A    between atoms: C_12  and  C_13
REMARK    8  A    between atoms: C_13  and  O_14
REMARK    9  A    between atoms: C_13  and  C_15
REMARK   10  A    between atoms: C_15  and  N_16
REMARK   11  A    between atoms: N_16  and  C_17
REMARK   12  A    between atoms: C_17  and  C_18
REMARK   13  A    between atoms: C_17  and  C_19
REMARK   14  A    between atoms: C_20  and  C_21
REMARK   15  A    between atoms: C_21  and  C_23
REMARK   16  A    between atoms: C_23  and  C_24
REMARK   17  A    between atoms: C_24  and  C_25
REMARK                            x       y       z     vdW  Elec       q    Type
REMARK                         _______ _______ _______ _____ _____    ______ ____
ROOT
ATOM      1  C   UNL     1       5.371   4.695  15.414  0.00  0.00    +0.000 A 
ATOM      2  C   UNL     1       5.304   6.062  15.593  0.00  0.00    +0.000 A 
ATOM      3  C   UNL     1       4.814   6.599  16.775  0.00  0.00    +0.000 A 
ATOM      4  C   UNL     1       4.315   5.799  17.816  0.00  0.00    +0.000 A 
ATOM      5  C   UNL     1       4.481   4.405  17.708  0.00  0.00    +0.000 A 
ATOM      6  C   UNL     1       4.979   3.872  16.482  0.00  0.00    +0.000 A 
ENDROOT
BRANCH   1   9
ATOM      7  C   UNL     1       6.903   4.508  13.470  0.00  0.00    +0.000 C 
ATOM      8  O   UNL     1       7.776   5.292  13.833  0.00  0.00    +0.000 OA
ATOM      9  N   UNL     1       5.793   4.114  14.204  0.00  0.00    +0.000 N 
ATOM     10  H   UNL     1       5.271   3.313  13.871  0.00  0.00    +0.000 HD
BRANCH   7  11
ATOM     11  C   UNL     1       6.997   3.871  12.101  0.00  0.00    +0.000 C 
BRANCH  11  13
ATOM     12  C   UNL     1       6.415   1.591  11.130  0.00  0.00    +0.000 C 
ATOM     13  C   UNL     1       5.903   2.840  11.839  0.00  0.00    +0.000 C 
ENDBRANCH  11  13
ENDBRANCH   7  11
ENDBRANCH   1   9
BRANCH   5  14
ATOM     14  C   UNL     1       4.255   3.374  18.776  0.00  0.00    +0.000 C 
ATOM     15  O   UNL     1       5.069   3.322  19.707  0.00  0.00    +0.000 OA
BRANCH  14  16
ATOM     16  C   UNL     1       3.106   2.389  18.755  0.00  0.00    +0.000 C 
BRANCH  16  17
ATOM     17  C   UNL     1       1.818   3.073  18.294  0.00  0.00    +0.000 C 
ATOM     18  C   UNL     1       0.585   2.459  18.940  0.00  0.00    +0.000 C 
ENDBRANCH  16  17
ENDBRANCH  14  16
ENDBRANCH   5  14
BRANCH   4  19
ATOM     19  O   UNL     1       3.670   6.388  18.892  0.00  0.00    +0.000 OA
BRANCH  19  20
ATOM     20  C   UNL     1       2.388   6.958  18.520  0.00  0.00    +0.000 C 
BRANCH  20  21
ATOM     21  C   UNL     1       2.362   8.487  18.426  0.00  0.00    +0.000 C 
BRANCH  21  22
ATOM     22  O   UNL     1       2.536   8.904  17.070  0.00  0.00    +0.000 OA
ATOM     23  H   UNL     1       1.641   9.034  16.704  0.00  0.00    +0.000 HD
ENDBRANCH  21  22
BRANCH  21  24
ATOM     24  C   UNL     1       1.090   9.110  19.016  0.00  0.00    +0.000 C 
BRANCH  24  25
ATOM     25  N   UNL     1       0.409   9.975  18.045  0.00  0.00    +0.000 NA
ATOM     26  H   UNL     1       0.082   9.411  17.260  0.00  0.00    +0.000 HD
BRANCH  25  27
ATOM     27  C   UNL     1      -0.731  10.712  18.604  0.00  0.00    +0.000 C 
ATOM     28  C   UNL     1      -2.076  10.200  18.089  0.00  0.00    +0.000 C 
ATOM     29  C   UNL     1      -0.679  10.565  20.128  0.00  0.00    +0.000 C 
ENDBRANCH  25  27
ENDBRANCH  24  25
ENDBRANCH  21  24
ENDBRANCH  20  21
ENDBRANCH  19  20
ENDBRANCH   4  19
TORSDOF 13
ENDMDL
MODEL 6
REMARK VINA RESULT:      -6.8      1.679      1.936
REMARK  Name = 
REMARK  17 active torsions:
REMARK  status: ('A' for Active; 'I' for Inactive)
REMARK    1  A    between atoms: C_1  and  C_2
REMARK    2  A    between atoms: C_2  and  C_3
REMARK    3  A    between atoms: C_3  and  C_4
REMARK    4  A    between atoms: N_6  and  C_7
REMARK    5  A    between atoms: C_10  and  O_11
REMARK    6  A    between atoms: O_11  and  C_12
REMARK    7  A    between atoms: C_12  and  C_13
REMARK    8  A    between atoms: C_13  and  O_14
REMARK    9  A    between atoms: C_13  and  C_15
REMARK   10  A    between atoms: C_15  and  N_16
REMARK   11  A    between atoms: N_16  and  C_17
REMARK   12  A    between atoms: C_17  and  C_18
REMARK   13  A    between atoms: C_17  and  C_19
REMARK   14  A    between atoms: C_20  and  C_21
REMARK   15  A    between atoms: C_21  and  C_23
REMARK   16  A    between atoms: C_23  and  C_24
REMARK   17  A    between atoms: C_24  and  C_25
REMARK                            x       y       z     vdW  Elec       q    Type
REMARK                         _______ _______ _______ _____ _____    ______ ____
ROOT
ATOM      1  C   UNL     1       2.358   7.995  17.961  0.00  0.00    +0.000 A 
ATOM      2  C   UNL     1       3.652   8.073  17.488  0.00  0.00    +0.000 A 
ATOM      3  C   UNL     1       4.396   6.922  17.270  0.00  0.00    +0.000 A 
ATOM      4  C   UNL     1       3.906   5.640  17.567  0.00  0.00    +0.000 A 
ATOM      5  C   UNL     1       2.552   5.526  17.937  0.00  0.00    +0.000 A 
ATOM      6  C   UNL     1       1.806   6.720  18.164  0.00  0.00    +0.000 A 
ENDROOT
BRANCH   1   9
ATOM      7  C   UNL     1       1.025   9.420  19.496  0.00  0.00    +0.000 C 
ATOM      8  O   UNL     1       1.227   8.818  20.547  0.00  0.00    +0.000 OA
ATOM      9  N   UNL     1       1.597   9.140  18.263  0.00  0.00    +0.000 N 
ATOM     10  H   UNL     1       1.503   9.836  17.533  0.00  0.00    +0.000 HD
BRANCH   7  11
ATOM     11  C   UNL     1       0.074  10.596  19.483  0.00  0.00    +0.000 C 
BRANCH  11  13
ATOM     12  C   UNL     1      -1.569  10.234  17.572  0.00  0.00    +0.000 C 
ATOM     13  C   UNL     1      -1.349  10.218  19.080  0.00  0.00    +0.000 C 
ENDBRANCH  11  13
ENDBRANCH   7  11
ENDBRANCH   1   9
BRANCH   5  14
ATOM     14  C   UNL     1       1.746   4.266  18.067  0.00  0.00    +0.000 C 
ATOM     15  O   UNL     1       0.855   4.065  17.231  0.00  0.00    +0.000 OA
BRANCH  14  16
ATOM     16  C   UNL     1       1.950   3.255  19.174  0.00  0.00    +0.000 C 
BRANCH  16  17
ATOM     17  C   UNL     1       1.189   3.673  20.433  0.00  0.00    +0.000 C 
ATOM     18  C   UNL     1       2.104   3.771  21.645  0.00  0.00    +0.000 C 
ENDBRANCH  16  17
ENDBRANCH  14  16
ENDBRANCH   5  14
BRANCH   4  19
ATOM     19  O   UNL     1       4.753   4.545  17.505  0.00  0.00    +0.000 OA
BRANCH  19  20
ATOM     20  C   UNL     1       4.970   4.093  16.143  0.00  0.00    +0.000 C 
BRANCH  20  21
ATOM     21  C   UNL     1       6.395   4.285  15.615  0.00  0.00    +0.000 C 
BRANCH  21  22
ATOM     22  O   UNL     1       6.409   5.250  14.562  0.00  0.00    +0.000 OA
ATOM     23  H   UNL     1       5.800   4.918  13.875  0.00  0.00    +0.000 HD
ENDBRANCH  21  22
BRANCH  21  24
ATOM     24  C   UNL     1       7.400   4.674  16.709  0.00  0.00    +0.000 C 
BRANCH  24  25
ATOM     25  N   UNL     1       7.652   6.120  16.724  0.00  0.00    +0.000 NA
ATOM     26  H   UNL     1       7.045   6.576  16.042  0.00  0.00    +0.000 HD
BRANCH  25  27
ATOM     27  C   UNL     1       7.445   6.745  18.035  0.00  0.00    +0.000 C 
ATOM     28  C   UNL     1       7.975   5.893  19.188  0.00  0.00    +0.000 C 
ATOM     29  C   UNL     1       8.170   8.095  18.026  0.00  0.00    +0.000 C 
ENDBRANCH  25  27
ENDBRANCH  24  25
ENDBRANCH  21  24
ENDBRANCH  20  21
ENDBRANCH  19  20
ENDBRANCH   4  19
TORSDOF 13
ENDMDL
MODEL 7
REMARK VINA RESULT:      -6.8      3.078      7.888
REMARK  Name = 
REMARK  17 active torsions:
REMARK  status: ('A' for Active; 'I' for Inactive)
REMARK    1  A    between atoms: C_1  and  C_2
REMARK    2  A    between atoms: C_2  and  C_3
REMARK    3  A    between atoms: C_3  and  C_4
REMARK    4  A    between atoms: N_6  and  C_7
REMARK    5  A    between atoms: C_10  and  O_11
REMARK    6  A    between atoms: O_11  and  C_12
REMARK    7  A    between atoms: C_12  and  C_13
REMARK    8  A    between atoms: C_13  and  O_14
REMARK    9  A    between atoms: C_13  and  C_15
REMARK   10  A    between atoms: C_15  and  N_16
REMARK   11  A    between atoms: N_16  and  C_17
REMARK   12  A    between atoms: C_17  and  C_18
REMARK   13  A    between atoms: C_17  and  C_19
REMARK   14  A    between atoms: C_20  and  C_21
REMARK   15  A    between atoms: C_21  and  C_23
REMARK   16  A    between atoms: C_23  and  C_24
REMARK   17  A    between atoms: C_24  and  C_25
REMARK                            x       y       z     vdW  Elec       q    Type
REMARK                         _______ _______ _______ _____ _____    ______ ____
ROOT
ATOM      1  C   UNL     1       2.464   6.713  19.377  0.00  0.00    +0.000 A 
ATOM      2  C   UNL     1       2.454   7.473  18.226  0.00  0.00    +0.000 A 
ATOM      3  C   UNL     1       1.864   8.730  18.211  0.00  0.00    +0.000 A 
ATOM      4  C   UNL     1       1.206   9.265  19.330  0.00  0.00    +0.000 A 
ATOM      5  C   UNL     1       1.304   8.563  20.546  0.00  0.00    +0.000 A 
ATOM      6  C   UNL     1       1.907   7.270  20.539  0.00  0.00    +0.000 A 
ENDROOT
BRANCH   1   9
ATOM      7  C   UNL     1       2.328   4.267  18.976  0.00  0.00    +0.000 C 
ATOM      8  O   UNL     1       1.276   4.231  18.343  0.00  0.00    +0.000 OA
ATOM      9  N   UNL     1       2.988   5.407  19.412  0.00  0.00    +0.000 N 
ATOM     10  H   UNL     1       3.941   5.302  19.738  0.00  0.00    +0.000 HD
BRANCH   7  11
ATOM     11  C   UNL     1       3.024   2.974  19.337  0.00  0.00    +0.000 C 
BRANCH  11  13
ATOM     12  C   UNL     1       1.682   2.770  21.491  0.00  0.00    +0.000 C 
ATOM     13  C   UNL     1       3.058   2.705  20.839  0.00  0.00    +0.000 C 
ENDBRANCH  11  13
ENDBRANCH   7  11
ENDBRANCH   1   9
BRANCH   5  14
ATOM     14  C   UNL     1       0.900   9.042  21.911  0.00  0.00    +0.000 C 
ATOM     15  O   UNL     1       1.793   9.446  22.667  0.00  0.00    +0.000 OA
BRANCH  14  16
ATOM     16  C   UNL     1      -0.529   9.030  22.410  0.00  0.00    +0.000 C 
BRANCH  16  17
ATOM     17  C   UNL     1      -0.834  10.303  23.200  0.00  0.00    +0.000 C 
ATOM     18  C   UNL     1      -0.986  11.514  22.291  0.00  0.00    +0.000 C 
ENDBRANCH  16  17
ENDBRANCH  14  16
ENDBRANCH   5  14
BRANCH   4  19
ATOM     19  O   UNL     1       0.477  10.438  19.207  0.00  0.00    +0.000 OA
BRANCH  19  20
ATOM     20  C   UNL     1       1.291  11.545  18.741  0.00  0.00    +0.000 C 
BRANCH  20  21
ATOM     21  C   UNL     1       0.730  12.937  19.049  0.00  0.00    +0.000 C 
BRANCH  21  22
ATOM     22  O   UNL     1       1.493  13.940  18.376  0.00  0.00    +0.000 OA
ATOM     23  H   UNL     1       2.421  13.635  18.386  0.00  0.00    +0.000 HD
ENDBRANCH  21  22
BRANCH  21  24
ATOM     24  C   UNL     1      -0.759  13.080  18.707  0.00  0.00    +0.000 C 
BRANCH  24  25
ATOM     25  N   UNL     1      -1.083  12.453  17.420  0.00  0.00    +0.000 NA
ATOM     26  H   UNL     1      -0.304  11.861  17.126  0.00  0.00    +0.000 HD
BRANCH  25  27
ATOM     27  C   UNL     1      -2.307  11.644  17.445  0.00  0.00    +0.000 C 
ATOM     28  C   UNL     1      -2.071  10.199  17.008  0.00  0.00    +0.000 C 
ATOM     29  C   UNL     1      -2.848  11.661  18.879  0.00  0.00    +0.000 C 
ENDBRANCH  25  27
ENDBRANCH  24  25
ENDBRANCH  21  24
ENDBRANCH  20  21
ENDBRANCH  19  20
ENDBRANCH   4  19
TORSDOF 13
ENDMDL
MODEL 8
REMARK VINA RESULT:      -6.7      2.527      7.734
REMARK  Name = 
REMARK  17 active torsions:
REMARK  status: ('A' for Active; 'I' for Inactive)
REMARK    1  A    between atoms: C_1  and  C_2
REMARK    2  A    between atoms: C_2  and  C_3
REMARK    3  A    between atoms: C_3  and  C_4
REMARK    4  A    between atoms: N_6  and  C_7
REMARK    5  A    between atoms: C_10  and  O_11
REMARK    6  A    between atoms: O_11  and  C_12
REMARK    7  A    between atoms: C_12  and  C_13
REMARK    8  A    between atoms: C_13  and  O_14
REMARK    9  A    between atoms: C_13  and  C_15
REMARK   10  A    between atoms: C_15  and  N_16
REMARK   11  A    between atoms: N_16  and  C_17
REMARK   12  A    between atoms: C_17  and  C_18
REMARK   13  A    between atoms: C_17  and  C_19
REMARK   14  A    between atoms: C_20  and  C_21
REMARK   15  A    between atoms: C_21  and  C_23
REMARK   16  A    between atoms: C_23  and  C_24
REMARK   17  A    between atoms: C_24  and  C_25
REMARK                            x       y       z     vdW  Elec       q    Type
REMARK                         _______ _______ _______ _____ _____    ______ ____
ROOT
ATOM      1  C   UNL     1       5.194   4.958  15.648  0.00  0.00    +0.000 A 
ATOM      2  C   UNL     1       5.098   6.333  15.699  0.00  0.00    +0.000 A 
ATOM      3  C   UNL     1       4.572   6.965  16.817  0.00  0.00    +0.000 A 
ATOM      4  C   UNL     1       4.063   6.253  17.916  0.00  0.00    +0.000 A 
ATOM      5  C   UNL     1       4.257   4.859  17.938  0.00  0.00    +0.000 A 
ATOM      6  C   UNL     1       4.792   4.227  16.777  0.00  0.00    +0.000 A 
ENDROOT
BRANCH   1   9
ATOM      7  C   UNL     1       6.819   4.574  13.811  0.00  0.00    +0.000 C 
ATOM      8  O   UNL     1       7.705   5.344  14.169  0.00  0.00    +0.000 OA
ATOM      9  N   UNL     1       5.654   4.277  14.505  0.00  0.00    +0.000 N 
ATOM     10  H   UNL     1       5.115   3.478  14.197  0.00  0.00    +0.000 HD
BRANCH   7  11
ATOM     11  C   UNL     1       6.958   3.840  12.495  0.00  0.00    +0.000 C 
BRANCH  11  13
ATOM     12  C   UNL     1       5.909   1.783  11.424  0.00  0.00    +0.000 C 
ATOM     13  C   UNL     1       5.670   3.153  12.047  0.00  0.00    +0.000 C 
ENDBRANCH  11  13
ENDBRANCH   7  11
ENDBRANCH   1   9
BRANCH   5  14
ATOM     14  C   UNL     1       4.025   3.925  19.091  0.00  0.00    +0.000 C 
ATOM     15  O   UNL     1       4.988   3.264  19.500  0.00  0.00    +0.000 OA
BRANCH  14  16
ATOM     16  C   UNL     1       2.676   3.737  19.753  0.00  0.00    +0.000 C 
BRANCH  16  17
ATOM     17  C   UNL     1       1.564   3.692  18.706  0.00  0.00    +0.000 C 
ATOM     18  C   UNL     1       0.766   2.398  18.779  0.00  0.00    +0.000 C 
ENDBRANCH  16  17
ENDBRANCH  14  16
ENDBRANCH   5  14
BRANCH   4  19
ATOM     19  O   UNL     1       3.383   6.925  18.919  0.00  0.00    +0.000 OA
BRANCH  19  20
ATOM     20  C   UNL     1       2.151   7.526  18.442  0.00  0.00    +0.000 C 
BRANCH  20  21
ATOM     21  C   UNL     1       2.045   9.040  18.654  0.00  0.00    +0.000 C 
BRANCH  21  22
ATOM     22  O   UNL     1       1.819   9.701  17.408  0.00  0.00    +0.000 OA
ATOM     23  H   UNL     1       2.666   9.674  16.923  0.00  0.00    +0.000 HD
ENDBRANCH  21  22
BRANCH  21  24
ATOM     24  C   UNL     1       0.966   9.435  19.671  0.00  0.00    +0.000 C 
BRANCH  24  25
ATOM     25  N   UNL     1       0.927  10.887  19.883  0.00  0.00    +0.000 NA
ATOM     26  H   UNL     1       0.785  11.356  18.987  0.00  0.00    +0.000 HD
BRANCH  25  27
ATOM     27  C   UNL     1      -0.119  11.324  20.816  0.00  0.00    +0.000 C 
ATOM     28  C   UNL     1      -0.248  10.406  22.031  0.00  0.00    +0.000 C 
ATOM     29  C   UNL     1       0.236  12.740  21.283  0.00  0.00    +0.000 C 
ENDBRANCH  25  27
ENDBRANCH  24  25
ENDBRANCH  21  24
ENDBRANCH  20  21
ENDBRANCH  19  20
ENDBRANCH   4  19
TORSDOF 13
ENDMDL
MODEL 9
REMARK VINA RESULT:      -6.7      2.547      3.564
REMARK  Name = 
REMARK  17 active torsions:
REMARK  status: ('A' for Active; 'I' for Inactive)
REMARK    1  A    between atoms: C_1  and  C_2
REMARK    2  A    between atoms: C_2  and  C_3
REMARK    3  A    between atoms: C_3  and  C_4
REMARK    4  A    between atoms: N_6  and  C_7
REMARK    5  A    between atoms: C_10  and  O_11
REMARK    6  A    between atoms: O_11  and  C_12
REMARK    7  A    between atoms: C_12  and  C_13
REMARK    8  A    between atoms: C_13  and  O_14
REMARK    9  A    between atoms: C_13  and  C_15
REMARK   10  A    between atoms: C_15  and  N_16
REMARK   11  A    between atoms: N_16  and  C_17
REMARK   12  A    between atoms: C_17  and  C_18
REMARK   13  A    between atoms: C_17  and  C_19
REMARK   14  A    between atoms: C_20  and  C_21
REMARK   15  A    between atoms: C_21  and  C_23
REMARK   16  A    between atoms: C_23  and  C_24
REMARK   17  A    between atoms: C_24  and  C_25
REMARK                            x       y       z     vdW  Elec       q    Type
REMARK                         _______ _______ _______ _____ _____    ______ ____
ROOT
ATOM      1  C   UNL     1       2.801   7.339  18.069  0.00  0.00    +0.000 A 
ATOM      2  C   UNL     1       4.100   7.561  17.662  0.00  0.00    +0.000 A 
ATOM      3  C   UNL     1       4.957   6.497  17.417  0.00  0.00    +0.000 A 
ATOM      4  C   UNL     1       4.577   5.161  17.621  0.00  0.00    +0.000 A 
ATOM      5  C   UNL     1       3.225   4.904  17.922  0.00  0.00    +0.000 A 
ATOM      6  C   UNL     1       2.362   6.010  18.177  0.00  0.00    +0.000 A 
ENDROOT
BRANCH   1   9
ATOM      7  C   UNL     1       1.460   8.680  19.671  0.00  0.00    +0.000 C 
ATOM      8  O   UNL     1       1.861   8.188  20.722  0.00  0.00    +0.000 OA
ATOM      9  N   UNL     1       1.924   8.391  18.396  0.00  0.00    +0.000 N 
ATOM     10  H   UNL     1       1.652   9.014  17.645  0.00  0.00    +0.000 HD
BRANCH   7  11
ATOM     11  C   UNL     1       0.357   9.715  19.707  0.00  0.00    +0.000 C 
BRANCH  11  13
ATOM     12  C   UNL     1      -1.487  10.132  18.002  0.00  0.00    +0.000 C 
ATOM     13  C   UNL     1      -0.004  10.262  18.329  0.00  0.00    +0.000 C 
ENDBRANCH  11  13
ENDBRANCH   7  11
ENDBRANCH   1   9
BRANCH   5  14
ATOM     14  C   UNL     1       2.535   3.571  17.946  0.00  0.00    +0.000 C 
ATOM     15  O   UNL     1       1.920   3.223  16.930  0.00  0.00    +0.000 OA
BRANCH  14  16
ATOM     16  C   UNL     1       2.534   2.654  19.151  0.00  0.00    +0.000 C 
BRANCH  16  17
ATOM     17  C   UNL     1       1.419   3.042  20.122  0.00  0.00    +0.000 C 
ATOM     18  C   UNL     1       1.968   3.502  21.464  0.00  0.00    +0.000 C 
ENDBRANCH  16  17
ENDBRANCH  14  16
ENDBRANCH   5  14
BRANCH   4  19
ATOM     19  O   UNL     1       5.524   4.153  17.541  0.00  0.00    +0.000 OA
BRANCH  19  20
ATOM     20  C   UNL     1       5.666   3.637  16.191  0.00  0.00    +0.000 C 
BRANCH  20  21
ATOM     21  C   UNL     1       6.134   4.661  15.153  0.00  0.00    +0.000 C 
BRANCH  21  22
ATOM     22  O   UNL     1       7.559   4.764  15.163  0.00  0.00    +0.000 OA
ATOM     23  H   UNL     1       7.838   4.828  14.230  0.00  0.00    +0.000 HD
ENDBRANCH  21  22
BRANCH  21  24
ATOM     24  C   UNL     1       5.631   4.360  13.734  0.00  0.00    +0.000 C 
BRANCH  24  25
ATOM     25  N   UNL     1       6.188   3.104  13.217  0.00  0.00    +0.000 NA
ATOM     26  H   UNL     1       5.820   2.322  13.760  0.00  0.00    +0.000 HD
BRANCH  25  27
ATOM     27  C   UNL     1       5.902   2.869  11.796  0.00  0.00    +0.000 C 
ATOM     28  C   UNL     1       6.103   1.410  11.387  0.00  0.00    +0.000 C 
ATOM     29  C   UNL     1       4.447   3.274  11.540  0.00  0.00    +0.000 C 
ENDBRANCH  25  27
ENDBRANCH  24  25
ENDBRANCH  21  24
ENDBRANCH  20  21
ENDBRANCH  19  20
ENDBRANCH   4  19
TORSDOF 13
ENDMDL
