MODEL 1
REMARK VINA RESULT:      -8.4      0.000      0.000
REMARK  Name = 
REMARK  6 active torsions:
REMARK  status: ('A' for Active; 'I' for Inactive)
REMARK    1  A    between atoms: C_2  and  C_14
REMARK    2  A    between atoms: N_3  and  C_4
REMARK    3  A    between atoms: C_9  and  O_10
REMARK    4  A    between atoms: O_10  and  C_11
REMARK    5  A    between atoms: C_17  and  N_18
REMARK    6  A    between atoms: C_23  and  N_24
REMARK                            x       y       z     vdW  Elec       q    Type
REMARK                         _______ _______ _______ _____ _____    ______ ____
ROOT
ATOM      1  O   UNL     1       1.365   6.725  20.923  0.00  0.00    +0.000 OA
ATOM      2  C   UNL     1       1.820   7.468  20.054  0.00  0.00    +0.000 C 
ATOM      3  N   UNL     1       1.534   8.815  19.914  0.00  0.00    +0.000 N 
ATOM      4  H   UNL     1       1.612   9.196  18.981  0.00  0.00    +0.000 HD
ENDROOT
BRANCH   3   5
ATOM      5  C   UNL     1       0.733   9.505  20.859  0.00  0.00    +0.000 A 
ATOM      6  C   UNL     1       0.740   9.031  22.186  0.00  0.00    +0.000 A 
ATOM      7  C   UNL     1      -0.055   9.609  23.177  0.00  0.00    +0.000 A 
ATOM      8  C   UNL     1      -0.882  10.671  22.854  0.00  0.00    +0.000 A 
ATOM      9  C   UNL     1      -0.886  11.165  21.549  0.00  0.00    +0.000 A 
ATOM     10  C   UNL     1      -0.066  10.617  20.543  0.00  0.00    +0.000 A 
BRANCH  10  11
ATOM     11  O   UNL     1      -0.286  11.229  19.343  0.00  0.00    +0.000 OA
BRANCH  11  12
ATOM     12  C   UNL     1      -0.992  10.585  18.306  0.00  0.00    +0.000 C 
ATOM     13  F   UNL     1      -0.163   9.787  17.590  0.00  0.00    +0.000 F 
ATOM     14  F   UNL     1      -1.953   9.789  18.835  0.00  0.00    +0.000 F 
ENDBRANCH  11  12
ENDBRANCH  10  11
ENDBRANCH   3   5
BRANCH   2  15
ATOM     15  C   UNL     1       2.708   6.853  19.039  0.00  0.00    +0.000 A 
ATOM     16  C   UNL     1       3.231   7.597  17.975  0.00  0.00    +0.000 A 
ATOM     17  C   UNL     1       4.200   7.031  17.131  0.00  0.00    +0.000 A 
ATOM     18  C   UNL     1       4.639   5.710  17.330  0.00  0.00    +0.000 A 
ATOM     19  C   UNL     1       4.100   4.976  18.399  0.00  0.00    +0.000 A 
ATOM     20  C   UNL     1       3.146   5.544  19.257  0.00  0.00    +0.000 A 
BRANCH  18  21
ATOM     21  N   UNL     1       5.564   5.138  16.425  0.00  0.00    +0.000 N 
ATOM     22  C   UNL     1       6.915   5.367  16.323  0.00  0.00    +0.000 A 
ATOM     23  N   UNL     1       7.405   4.755  15.269  0.00  0.00    +0.000 NA
ATOM     24  C   UNL     1       6.308   4.139  14.746  0.00  0.00    +0.000 A 
ATOM     25  N   UNL     1       5.170   4.337  15.415  0.00  0.00    +0.000 NA
ENDBRANCH  18  21
BRANCH  19  26
ATOM     26  N   UNL     1       4.624   3.677  18.794  0.00  0.00    +0.000 N 
ATOM     27  O   UNL     1       4.053   2.681  18.321  0.00  0.00    +0.000 OA
ATOM     28  O   UNL     1       5.653   3.672  19.479  0.00  0.00    +0.000 OA
ENDBRANCH  19  26
ENDBRANCH   2  15
TORSDOF 6
ENDMDL
MODEL 2
REMARK VINA RESULT:      -8.3      3.471      8.502
REMARK  Name = 
REMARK  6 active torsions:
REMARK  status: ('A' for Active; 'I' for Inactive)
REMARK    1  A    between atoms: C_2  and  C_14
REMARK    2  A    between atoms: N_3  and  C_4
REMARK    3  A    between atoms: C_9  and  O_10
REMARK    4  A    between atoms: O_10  and  C_11
REMARK    5  A    between atoms: C_17  and  N_18
REMARK    6  A    between atoms: C_23  and  N_24
REMARK                            x       y       z     vdW  Elec       q    Type
REMARK                         _______ _______ _______ _____ _____    ______ ____
ROOT
ATOM      1  O   UNL     1       2.741   5.755  18.030  0.00  0.00    +0.000 OA
ATOM      2  C   UNL     1       3.241   6.876  17.948  0.00  0.00    +0.000 C 
ATOM      3  N   UNL     1       4.490   7.166  17.425  0.00  0.00    +0.000 N 
ATOM      4  H   UNL     1       4.943   7.997  17.780  0.00  0.00    +0.000 HD
ENDROOT
BRANCH   3   5
ATOM      5  C   UNL     1       5.294   6.163  16.827  0.00  0.00    +0.000 A 
ATOM      6  C   UNL     1       5.133   5.938  15.445  0.00  0.00    +0.000 A 
ATOM      7  C   UNL     1       5.839   4.939  14.775  0.00  0.00    +0.000 A 
ATOM      8  C   UNL     1       6.718   4.135  15.482  0.00  0.00    +0.000 A 
ATOM      9  C   UNL     1       6.904   4.358  16.847  0.00  0.00    +0.000 A 
ATOM     10  C   UNL     1       6.225   5.383  17.533  0.00  0.00    +0.000 A 
BRANCH  10  11
ATOM     11  O   UNL     1       6.529   5.367  18.864  0.00  0.00    +0.000 OA
BRANCH  11  12
ATOM     12  C   UNL     1       7.674   6.018  19.366  0.00  0.00    +0.000 C 
ATOM     13  F   UNL     1       8.671   5.127  19.589  0.00  0.00    +0.000 F 
ATOM     14  F   UNL     1       8.130   6.906  18.450  0.00  0.00    +0.000 F 
ENDBRANCH  11  12
ENDBRANCH  10  11
ENDBRANCH   3   5
BRANCH   2  15
ATOM     15  C   UNL     1       2.459   8.006  18.505  0.00  0.00    +0.000 A 
ATOM     16  C   UNL     1       2.078   9.094  17.713  0.00  0.00    +0.000 A 
ATOM     17  C   UNL     1       1.197  10.061  18.224  0.00  0.00    +0.000 A 
ATOM     18  C   UNL     1       0.707   9.959  19.539  0.00  0.00    +0.000 A 
ATOM     19  C   UNL     1       1.105   8.863  20.321  0.00  0.00    +0.000 A 
ATOM     20  C   UNL     1       1.968   7.884  19.808  0.00  0.00    +0.000 A 
BRANCH  18  21
ATOM     21  N   UNL     1      -0.122  10.983  20.055  0.00  0.00    +0.000 N 
ATOM     22  C   UNL     1      -1.430  11.265  19.740  0.00  0.00    +0.000 A 
ATOM     23  N   UNL     1      -1.812  12.377  20.325  0.00  0.00    +0.000 NA
ATOM     24  C   UNL     1      -0.697  12.748  21.015  0.00  0.00    +0.000 A 
ATOM     25  N   UNL     1       0.351  11.932  20.887  0.00  0.00    +0.000 NA
ENDBRANCH  18  21
BRANCH  19  26
ATOM     26  N   UNL     1       0.509   8.576  21.617  0.00  0.00    +0.000 N 
ATOM     27  O   UNL     1       1.106   9.018  22.613  0.00  0.00    +0.000 OA
ATOM     28  O   UNL     1      -0.591   8.011  21.617  0.00  0.00    +0.000 OA
ENDBRANCH  19  26
ENDBRANCH   2  15
TORSDOF 6
ENDMDL
MODEL 3
REMARK VINA RESULT:      -8.3      3.283      8.358
REMARK  Name = 
REMARK  6 active torsions:
REMARK  status: ('A' for Active; 'I' for Inactive)
REMARK    1  A    between atoms: C_2  and  C_14
REMARK    2  A    between atoms: N_3  and  C_4
REMARK    3  A    between atoms: C_9  and  O_10
REMARK    4  A    between atoms: O_10  and  C_11
REMARK    5  A    between atoms: C_17  and  N_18
REMARK    6  A    between atoms: C_23  and  N_24
REMARK                            x       y       z     vdW  Elec       q    Type
REMARK                         _______ _______ _______ _____ _____    ______ ____
ROOT
ATOM      1  O   UNL     1       2.452   8.470  17.140  0.00  0.00    +0.000 OA
ATOM      2  C   UNL     1       2.233   8.176  18.315  0.00  0.00    +0.000 C 
ATOM      3  N   UNL     1       2.509   6.955  18.906  0.00  0.00    +0.000 N 
ATOM      4  H   UNL     1       1.933   6.699  19.696  0.00  0.00    +0.000 HD
ENDROOT
BRANCH   3   5
ATOM      5  C   UNL     1       3.183   5.925  18.201  0.00  0.00    +0.000 A 
ATOM      6  C   UNL     1       4.494   6.192  17.758  0.00  0.00    +0.000 A 
ATOM      7  C   UNL     1       5.221   5.264  17.011  0.00  0.00    +0.000 A 
ATOM      8  C   UNL     1       4.642   4.049  16.684  0.00  0.00    +0.000 A 
ATOM      9  C   UNL     1       3.352   3.762  17.132  0.00  0.00    +0.000 A 
ATOM     10  C   UNL     1       2.616   4.673  17.915  0.00  0.00    +0.000 A 
BRANCH  10  11
ATOM     11  O   UNL     1       1.366   4.192  18.182  0.00  0.00    +0.000 OA
BRANCH  11  12
ATOM     12  C   UNL     1       1.115   3.379  19.306  0.00  0.00    +0.000 C 
ATOM     13  F   UNL     1       0.482   4.086  20.274  0.00  0.00    +0.000 F 
ATOM     14  F   UNL     1       0.294   2.359  18.957  0.00  0.00    +0.000 F 
ENDBRANCH  11  12
ENDBRANCH  10  11
ENDBRANCH   3   5
BRANCH   2  15
ATOM     15  C   UNL     1       1.570   9.203  19.154  0.00  0.00    +0.000 A 
ATOM     16  C   UNL     1       1.144  10.423  18.619  0.00  0.00    +0.000 A 
ATOM     17  C   UNL     1       0.370  11.300  19.397  0.00  0.00    +0.000 A 
ATOM     18  C   UNL     1       0.034  10.973  20.723  0.00  0.00    +0.000 A 
ATOM     19  C   UNL     1       0.474   9.746  21.246  0.00  0.00    +0.000 A 
ATOM     20  C   UNL     1       1.230   8.858  20.466  0.00  0.00    +0.000 A 
BRANCH  18  21
ATOM     21  N   UNL     1      -0.686  11.903  21.510  0.00  0.00    +0.000 N 
ATOM     22  C   UNL     1      -2.029  12.192  21.478  0.00  0.00    +0.000 A 
ATOM     23  N   UNL     1      -2.297  13.211  22.261  0.00  0.00    +0.000 NA
ATOM     24  C   UNL     1      -1.074  13.519  22.777  0.00  0.00    +0.000 A 
ATOM     25  N   UNL     1      -0.067  12.750  22.357  0.00  0.00    +0.000 NA
ENDBRANCH  18  21
BRANCH  19  26
ATOM     26  N   UNL     1       0.024   9.242  22.534  0.00  0.00    +0.000 N 
ATOM     27  O   UNL     1       0.587   9.704  23.539  0.00  0.00    +0.000 OA
ATOM     28  O   UNL     1      -0.950   8.480  22.529  0.00  0.00    +0.000 OA
ENDBRANCH  19  26
ENDBRANCH   2  15
TORSDOF 6
ENDMDL
MODEL 4
REMARK VINA RESULT:      -8.1      3.537      8.229
REMARK  Name = 
REMARK  6 active torsions:
REMARK  status: ('A' for Active; 'I' for Inactive)
REMARK    1  A    between atoms: C_2  and  C_14
REMARK    2  A    between atoms: N_3  and  C_4
REMARK    3  A    between atoms: C_9  and  O_10
REMARK    4  A    between atoms: O_10  and  C_11
REMARK    5  A    between atoms: C_17  and  N_18
REMARK    6  A    between atoms: C_23  and  N_24
REMARK                            x       y       z     vdW  Elec       q    Type
REMARK                         _______ _______ _______ _____ _____    ______ ____
ROOT
ATOM      1  O   UNL     1       3.102   6.959  17.586  0.00  0.00    +0.000 OA
ATOM      2  C   UNL     1       2.483   6.900  18.648  0.00  0.00    +0.000 C 
ATOM      3  N   UNL     1       2.182   5.740  19.342  0.00  0.00    +0.000 N 
ATOM      4  H   UNL     1       1.358   5.768  19.926  0.00  0.00    +0.000 HD
ENDROOT
BRANCH   3   5
ATOM      5  C   UNL     1       2.665   4.476  18.919  0.00  0.00    +0.000 A 
ATOM      6  C   UNL     1       1.748   3.605  18.296  0.00  0.00    +0.000 A 
ATOM      7  C   UNL     1       2.113   2.321  17.892  0.00  0.00    +0.000 A 
ATOM      8  C   UNL     1       3.406   1.878  18.113  0.00  0.00    +0.000 A 
ATOM      9  C   UNL     1       4.331   2.735  18.710  0.00  0.00    +0.000 A 
ATOM     10  C   UNL     1       3.991   4.046  19.095  0.00  0.00    +0.000 A 
BRANCH  10  11
ATOM     11  O   UNL     1       5.043   4.667  19.704  0.00  0.00    +0.000 OA
BRANCH  11  12
ATOM     12  C   UNL     1       6.186   5.063  18.979  0.00  0.00    +0.000 C 
ATOM     13  F   UNL     1       5.838   5.861  17.940  0.00  0.00    +0.000 F 
ATOM     14  F   UNL     1       7.005   5.786  19.779  0.00  0.00    +0.000 F 
ENDBRANCH  11  12
ENDBRANCH  10  11
ENDBRANCH   3   5
BRANCH   2  15
ATOM     15  C   UNL     1       1.970   8.176  19.203  0.00  0.00    +0.000 A 
ATOM     16  C   UNL     1       1.729   9.285  18.385  0.00  0.00    +0.000 A 
ATOM     17  C   UNL     1       1.085  10.418  18.910  0.00  0.00    +0.000 A 
ATOM     18  C   UNL     1       0.699  10.459  20.262  0.00  0.00    +0.000 A 
ATOM     19  C   UNL     1       0.954   9.339  21.069  0.00  0.00    +0.000 A 
ATOM     20  C   UNL     1       1.578   8.197  20.544  0.00  0.00    +0.000 A 
BRANCH  18  21
ATOM     21  N   UNL     1       0.117  11.638  20.785  0.00  0.00    +0.000 N 
ATOM     22  C   UNL     1      -1.176  12.086  20.653  0.00  0.00    +0.000 A 
ATOM     23  N   UNL     1      -1.297  13.290  21.162  0.00  0.00    +0.000 NA
ATOM     24  C   UNL     1      -0.040  13.549  21.618  0.00  0.00    +0.000 A 
ATOM     25  N   UNL     1       0.851  12.575  21.418  0.00  0.00    +0.000 NA
ENDBRANCH  18  21
BRANCH  19  26
ATOM     26  N   UNL     1       0.428   9.217  22.420  0.00  0.00    +0.000 N 
ATOM     27  O   UNL     1       1.135   9.671  23.334  0.00  0.00    +0.000 OA
ATOM     28  O   UNL     1      -0.719   8.771  22.537  0.00  0.00    +0.000 OA
ENDBRANCH  19  26
ENDBRANCH   2  15
TORSDOF 6
ENDMDL
MODEL 5
REMARK VINA RESULT:      -8.1      0.958      1.129
REMARK  Name = 
REMARK  6 active torsions:
REMARK  status: ('A' for Active; 'I' for Inactive)
REMARK    1  A    between atoms: C_2  and  C_14
REMARK    2  A    between atoms: N_3  and  C_4
REMARK    3  A    between atoms: C_9  and  O_10
REMARK    4  A    between atoms: O_10  and  C_11
REMARK    5  A    between atoms: C_17  and  N_18
REMARK    6  A    between atoms: C_23  and  N_24
REMARK                            x       y       z     vdW  Elec       q    Type
REMARK                         _______ _______ _______ _____ _____    ______ ____
ROOT
ATOM      1  O   UNL     1       1.325   6.711  20.882  0.00  0.00    +0.000 OA
ATOM      2  C   UNL     1       1.788   7.495  20.054  0.00  0.00    +0.000 C 
ATOM      3  N   UNL     1       1.500   8.846  19.973  0.00  0.00    +0.000 N 
ATOM      4  H   UNL     1       1.587   9.270  19.059  0.00  0.00    +0.000 HD
ENDROOT
BRANCH   3   5
ATOM      5  C   UNL     1       0.685   9.490  20.938  0.00  0.00    +0.000 A 
ATOM      6  C   UNL     1       0.814   9.074  22.279  0.00  0.00    +0.000 A 
ATOM      7  C   UNL     1       0.020   9.608  23.294  0.00  0.00    +0.000 A 
ATOM      8  C   UNL     1      -0.930  10.567  22.983  0.00  0.00    +0.000 A 
ATOM      9  C   UNL     1      -1.056  11.004  21.664  0.00  0.00    +0.000 A 
ATOM     10  C   UNL     1      -0.241  10.501  20.632  0.00  0.00    +0.000 A 
BRANCH  10  11
ATOM     11  O   UNL     1      -0.589  11.038  19.426  0.00  0.00    +0.000 OA
BRANCH  11  12
ATOM     12  C   UNL     1      -0.078  12.281  18.999  0.00  0.00    +0.000 C 
ATOM     13  F   UNL     1       1.209  12.155  18.595  0.00  0.00    +0.000 F 
ATOM     14  F   UNL     1      -0.788  12.723  17.933  0.00  0.00    +0.000 F 
ENDBRANCH  11  12
ENDBRANCH  10  11
ENDBRANCH   3   5
BRANCH   2  15
ATOM     15  C   UNL     1       2.691   6.930  19.022  0.00  0.00    +0.000 A 
ATOM     16  C   UNL     1       3.128   7.693  17.934  0.00  0.00    +0.000 A 
ATOM     17  C   UNL     1       4.113   7.185  17.071  0.00  0.00    +0.000 A 
ATOM     18  C   UNL     1       4.652   5.902  17.276  0.00  0.00    +0.000 A 
ATOM     19  C   UNL     1       4.197   5.148  18.369  0.00  0.00    +0.000 A 
ATOM     20  C   UNL     1       3.229   5.659  19.247  0.00  0.00    +0.000 A 
BRANCH  18  21
ATOM     21  N   UNL     1       5.591   5.385  16.352  0.00  0.00    +0.000 N 
ATOM     22  C   UNL     1       6.936   5.652  16.257  0.00  0.00    +0.000 A 
ATOM     23  N   UNL     1       7.441   5.088  15.184  0.00  0.00    +0.000 NA
ATOM     24  C   UNL     1       6.360   4.460  14.642  0.00  0.00    +0.000 A 
ATOM     25  N   UNL     1       5.218   4.605  15.317  0.00  0.00    +0.000 NA
ENDBRANCH  18  21
BRANCH  19  26
ATOM     26  N   UNL     1       4.825   3.897  18.767  0.00  0.00    +0.000 N 
ATOM     27  O   UNL     1       5.896   3.987  19.389  0.00  0.00    +0.000 OA
ATOM     28  O   UNL     1       4.192   2.858  18.550  0.00  0.00    +0.000 OA
ENDBRANCH  19  26
ENDBRANCH   2  15
TORSDOF 6
ENDMDL
MODEL 6
REMARK VINA RESULT:      -8.0      3.506      8.079
REMARK  Name = 
REMARK  6 active torsions:
REMARK  status: ('A' for Active; 'I' for Inactive)
REMARK    1  A    between atoms: C_2  and  C_14
REMARK    2  A    between atoms: N_3  and  C_4
REMARK    3  A    between atoms: C_9  and  O_10
REMARK    4  A    between atoms: O_10  and  C_11
REMARK    5  A    between atoms: C_17  and  N_18
REMARK    6  A    between atoms: C_23  and  N_24
REMARK                            x       y       z     vdW  Elec       q    Type
REMARK                         _______ _______ _______ _____ _____    ______ ____
ROOT
ATOM      1  O   UNL     1       4.028   6.536  18.223  0.00  0.00    +0.000 OA
ATOM      2  C   UNL     1       2.871   6.497  18.641  0.00  0.00    +0.000 C 
ATOM      3  N   UNL     1       2.119   5.349  18.824  0.00  0.00    +0.000 N 
ATOM      4  H   UNL     1       1.116   5.455  18.759  0.00  0.00    +0.000 HD
ENDROOT
BRANCH   3   5
ATOM      5  C   UNL     1       2.674   4.059  18.628  0.00  0.00    +0.000 A 
ATOM      6  C   UNL     1       2.835   3.616  17.299  0.00  0.00    +0.000 A 
ATOM      7  C   UNL     1       3.322   2.343  17.003  0.00  0.00    +0.000 A 
ATOM      8  C   UNL     1       3.651   1.482  18.037  0.00  0.00    +0.000 A 
ATOM      9  C   UNL     1       3.516   1.912  19.357  0.00  0.00    +0.000 A 
ATOM     10  C   UNL     1       3.057   3.205  19.675  0.00  0.00    +0.000 A 
BRANCH  10  11
ATOM     11  O   UNL     1       2.958   3.372  21.026  0.00  0.00    +0.000 OA
BRANCH  11  12
ATOM     12  C   UNL     1       1.740   3.166  21.707  0.00  0.00    +0.000 C 
ATOM     13  F   UNL     1       0.693   3.277  20.853  0.00  0.00    +0.000 F 
ATOM     14  F   UNL     1       1.709   1.911  22.215  0.00  0.00    +0.000 F 
ENDBRANCH  11  12
ENDBRANCH  10  11
ENDBRANCH   3   5
BRANCH   2  15
ATOM     15  C   UNL     1       2.211   7.794  18.920  0.00  0.00    +0.000 A 
ATOM     16  C   UNL     1       1.902   8.695  17.895  0.00  0.00    +0.000 A 
ATOM     17  C   UNL     1       1.127   9.834  18.171  0.00  0.00    +0.000 A 
ATOM     18  C   UNL     1       0.674  10.092  19.477  0.00  0.00    +0.000 A 
ATOM     19  C   UNL     1       0.998   9.180  20.494  0.00  0.00    +0.000 A 
ATOM     20  C   UNL     1       1.754   8.031  20.220  0.00  0.00    +0.000 A 
BRANCH  18  21
ATOM     21  N   UNL     1      -0.045  11.282  19.743  0.00  0.00    +0.000 N 
ATOM     22  C   UNL     1       0.432  12.485  20.207  0.00  0.00    +0.000 A 
ATOM     23  N   UNL     1      -0.562  13.304  20.460  0.00  0.00    +0.000 NA
ATOM     24  C   UNL     1      -1.653  12.562  20.120  0.00  0.00    +0.000 A 
ATOM     25  N   UNL     1      -1.391  11.332  19.674  0.00  0.00    +0.000 NA
ENDBRANCH  18  21
BRANCH  19  26
ATOM     26  N   UNL     1       0.422   9.265  21.828  0.00  0.00    +0.000 N 
ATOM     27  O   UNL     1       1.032   9.965  22.652  0.00  0.00    +0.000 OA
ATOM     28  O   UNL     1      -0.676   8.723  22.000  0.00  0.00    +0.000 OA
ENDBRANCH  19  26
ENDBRANCH   2  15
TORSDOF 6
ENDMDL
MODEL 7
REMARK VINA RESULT:      -8.0      0.706      1.113
REMARK  Name = 
REMARK  6 active torsions:
REMARK  status: ('A' for Active; 'I' for Inactive)
REMARK    1  A    between atoms: C_2  and  C_14
REMARK    2  A    between atoms: N_3  and  C_4
REMARK    3  A    between atoms: C_9  and  O_10
REMARK    4  A    between atoms: O_10  and  C_11
REMARK    5  A    between atoms: C_17  and  N_18
REMARK    6  A    between atoms: C_23  and  N_24
REMARK                            x       y       z     vdW  Elec       q    Type
REMARK                         _______ _______ _______ _____ _____    ______ ____
ROOT
ATOM      1  O   UNL     1       1.399   6.827  20.990  0.00  0.00    +0.000 OA
ATOM      2  C   UNL     1       1.795   7.576  20.097  0.00  0.00    +0.000 C 
ATOM      3  N   UNL     1       1.469   8.916  19.965  0.00  0.00    +0.000 N 
ATOM      4  H   UNL     1       1.494   9.293  19.028  0.00  0.00    +0.000 HD
ENDROOT
BRANCH   3   5
ATOM      5  C   UNL     1       0.695   9.591  20.942  0.00  0.00    +0.000 A 
ATOM      6  C   UNL     1       0.670   9.045  22.242  0.00  0.00    +0.000 A 
ATOM      7  C   UNL     1      -0.103   9.605  23.259  0.00  0.00    +0.000 A 
ATOM      8  C   UNL     1      -0.877  10.722  22.991  0.00  0.00    +0.000 A 
ATOM      9  C   UNL     1      -0.848  11.286  21.715  0.00  0.00    +0.000 A 
ATOM     10  C   UNL     1      -0.048  10.754  20.685  0.00  0.00    +0.000 A 
BRANCH  10  11
ATOM     11  O   UNL     1      -0.231  11.441  19.519  0.00  0.00    +0.000 OA
BRANCH  11  12
ATOM     12  C   UNL     1      -1.270  11.111  18.625  0.00  0.00    +0.000 C 
ATOM     13  F   UNL     1      -1.685   9.836  18.825  0.00  0.00    +0.000 F 
ATOM     14  F   UNL     1      -2.336  11.917  18.848  0.00  0.00    +0.000 F 
ENDBRANCH  11  12
ENDBRANCH  10  11
ENDBRANCH   3   5
BRANCH   2  15
ATOM     15  C   UNL     1       2.651   6.978  19.045  0.00  0.00    +0.000 A 
ATOM     16  C   UNL     1       2.984   7.683  17.883  0.00  0.00    +0.000 A 
ATOM     17  C   UNL     1       3.931   7.157  16.989  0.00  0.00    +0.000 A 
ATOM     18  C   UNL     1       4.535   5.911  17.238  0.00  0.00    +0.000 A 
ATOM     19  C   UNL     1       4.184   5.215  18.406  0.00  0.00    +0.000 A 
ATOM     20  C   UNL     1       3.254   5.746  19.313  0.00  0.00    +0.000 A 
BRANCH  18  21
ATOM     21  N   UNL     1       5.432   5.369  16.288  0.00  0.00    +0.000 N 
ATOM     22  C   UNL     1       5.245   4.297  15.448  0.00  0.00    +0.000 A 
ATOM     23  N   UNL     1       6.359   4.013  14.813  0.00  0.00    +0.000 NA
ATOM     24  C   UNL     1       7.220   4.958  15.285  0.00  0.00    +0.000 A 
ATOM     25  N   UNL     1       6.703   5.806  16.177  0.00  0.00    +0.000 NA
ENDBRANCH  18  21
BRANCH  19  26
ATOM     26  N   UNL     1       4.887   4.017  18.839  0.00  0.00    +0.000 N 
ATOM     27  O   UNL     1       5.998   4.187  19.369  0.00  0.00    +0.000 OA
ATOM     28  O   UNL     1       4.281   2.945  18.743  0.00  0.00    +0.000 OA
ENDBRANCH  19  26
ENDBRANCH   2  15
TORSDOF 6
ENDMDL
MODEL 8
REMARK VINA RESULT:      -7.9      3.463      8.054
REMARK  Name = 
REMARK  6 active torsions:
REMARK  status: ('A' for Active; 'I' for Inactive)
REMARK    1  A    between atoms: C_2  and  C_14
REMARK    2  A    between atoms: N_3  and  C_4
REMARK    3  A    between atoms: C_9  and  O_10
REMARK    4  A    between atoms: O_10  and  C_11
REMARK    5  A    between atoms: C_17  and  N_18
REMARK    6  A    between atoms: C_23  and  N_24
REMARK                            x       y       z     vdW  Elec       q    Type
REMARK                         _______ _______ _______ _____ _____    ______ ____
ROOT
ATOM      1  O   UNL     1       4.047   6.455  18.993  0.00  0.00    +0.000 OA
ATOM      2  C   UNL     1       2.820   6.482  18.892  0.00  0.00    +0.000 C 
ATOM      3  N   UNL     1       2.013   5.404  18.571  0.00  0.00    +0.000 N 
ATOM      4  H   UNL     1       1.134   5.619  18.122  0.00  0.00    +0.000 HD
ENDROOT
BRANCH   3   5
ATOM      5  C   UNL     1       2.546   4.098  18.418  0.00  0.00    +0.000 A 
ATOM      6  C   UNL     1       3.437   3.882  17.347  0.00  0.00    +0.000 A 
ATOM      7  C   UNL     1       3.973   2.622  17.081  0.00  0.00    +0.000 A 
ATOM      8  C   UNL     1       3.618   1.547  17.879  0.00  0.00    +0.000 A 
ATOM      9  C   UNL     1       2.753   1.749  18.954  0.00  0.00    +0.000 A 
ATOM     10  C   UNL     1       2.228   3.020  19.259  0.00  0.00    +0.000 A 
BRANCH  10  11
ATOM     11  O   UNL     1       1.367   2.954  20.316  0.00  0.00    +0.000 OA
BRANCH  11  12
ATOM     12  C   UNL     1       1.786   3.259  21.628  0.00  0.00    +0.000 C 
ATOM     13  F   UNL     1       2.730   2.380  22.043  0.00  0.00    +0.000 F 
ATOM     14  F   UNL     1       2.349   4.491  21.650  0.00  0.00    +0.000 F 
ENDBRANCH  11  12
ENDBRANCH  10  11
ENDBRANCH   3   5
BRANCH   2  15
ATOM     15  C   UNL     1       2.157   7.795  19.079  0.00  0.00    +0.000 A 
ATOM     16  C   UNL     1       1.902   8.647  18.000  0.00  0.00    +0.000 A 
ATOM     17  C   UNL     1       1.124   9.802  18.185  0.00  0.00    +0.000 A 
ATOM     18  C   UNL     1       0.614  10.125  19.455  0.00  0.00    +0.000 A 
ATOM     19  C   UNL     1       0.884   9.260  20.528  0.00  0.00    +0.000 A 
ATOM     20  C   UNL     1       1.643   8.095  20.344  0.00  0.00    +0.000 A 
BRANCH  18  21
ATOM     21  N   UNL     1      -0.108  11.329  19.631  0.00  0.00    +0.000 N 
ATOM     22  C   UNL     1       0.366  12.564  20.005  0.00  0.00    +0.000 A 
ATOM     23  N   UNL     1      -0.630  13.398  20.195  0.00  0.00    +0.000 NA
ATOM     24  C   UNL     1      -1.719  12.631  19.910  0.00  0.00    +0.000 A 
ATOM     25  N   UNL     1      -1.453  11.372  19.556  0.00  0.00    +0.000 NA
ENDBRANCH  18  21
BRANCH  19  26
ATOM     26  N   UNL     1       0.248   9.411  21.828  0.00  0.00    +0.000 N 
ATOM     27  O   UNL     1      -0.721   8.670  22.061  0.00  0.00    +0.000 OA
ATOM     28  O   UNL     1       0.786  10.183  22.629  0.00  0.00    +0.000 OA
ENDBRANCH  19  26
ENDBRANCH   2  15
TORSDOF 6
ENDMDL
MODEL 9
REMARK VINA RESULT:      -7.9      3.464      8.345
REMARK  Name = 
REMARK  6 active torsions:
REMARK  status: ('A' for Active; 'I' for Inactive)
REMARK    1  A    between atoms: C_2  and  C_14
REMARK    2  A    between atoms: N_3  and  C_4
REMARK    3  A    between atoms: C_9  and  O_10
REMARK    4  A    between atoms: O_10  and  C_11
REMARK    5  A    between atoms: C_17  and  N_18
REMARK    6  A    between atoms: C_23  and  N_24
REMARK                            x       y       z     vdW  Elec       q    Type
REMARK                         _______ _______ _______ _____ _____    ______ ____
ROOT
ATOM      1  O   UNL     1       3.107   5.900  19.133  0.00  0.00    +0.000 OA
ATOM      2  C   UNL     1       3.179   6.911  18.435  0.00  0.00    +0.000 C 
ATOM      3  N   UNL     1       4.010   7.078  17.340  0.00  0.00    +0.000 N 
ATOM      4  H   UNL     1       4.283   8.027  17.125  0.00  0.00    +0.000 HD
ENDROOT
BRANCH   3   5
ATOM      5  C   UNL     1       4.816   6.018  16.852  0.00  0.00    +0.000 A 
ATOM      6  C   UNL     1       4.213   4.751  16.721  0.00  0.00    +0.000 A 
ATOM      7  C   UNL     1       4.934   3.634  16.299  0.00  0.00    +0.000 A 
ATOM      8  C   UNL     1       6.282   3.763  16.009  0.00  0.00    +0.000 A 
ATOM      9  C   UNL     1       6.889   5.014  16.115  0.00  0.00    +0.000 A 
ATOM     10  C   UNL     1       6.170   6.160  16.507  0.00  0.00    +0.000 A 
BRANCH  10  11
ATOM     11  O   UNL     1       6.989   7.249  16.590  0.00  0.00    +0.000 OA
BRANCH  11  12
ATOM     12  C   UNL     1       7.496   7.697  17.827  0.00  0.00    +0.000 C 
ATOM     13  F   UNL     1       8.210   6.717  18.433  0.00  0.00    +0.000 F 
ATOM     14  F   UNL     1       8.339   8.737  17.624  0.00  0.00    +0.000 F 
ENDBRANCH  11  12
ENDBRANCH  10  11
ENDBRANCH   3   5
BRANCH   2  15
ATOM     15  C   UNL     1       2.341   8.066  18.834  0.00  0.00    +0.000 A 
ATOM     16  C   UNL     1       1.940   9.036  17.908  0.00  0.00    +0.000 A 
ATOM     17  C   UNL     1       1.010  10.020  18.279  0.00  0.00    +0.000 A 
ATOM     18  C   UNL     1       0.490  10.057  19.586  0.00  0.00    +0.000 A 
ATOM     19  C   UNL     1       0.907   9.080  20.503  0.00  0.00    +0.000 A 
ATOM     20  C   UNL     1       1.820   8.082  20.131  0.00  0.00    +0.000 A 
BRANCH  18  21
ATOM     21  N   UNL     1      -0.391  11.101  19.956  0.00  0.00    +0.000 N 
ATOM     22  C   UNL     1      -0.199  12.094  20.887  0.00  0.00    +0.000 A 
ATOM     23  N   UNL     1      -1.300  12.791  21.047  0.00  0.00    +0.000 NA
ATOM     24  C   UNL     1      -2.159  12.195  20.173  0.00  0.00    +0.000 A 
ATOM     25  N   UNL     1      -1.652  11.170  19.484  0.00  0.00    +0.000 NA
ENDBRANCH  18  21
BRANCH  19  26
ATOM     26  N   UNL     1       0.288   8.926  21.811  0.00  0.00    +0.000 N 
ATOM     27  O   UNL     1      -0.744   8.238  21.859  0.00  0.00    +0.000 OA
ATOM     28  O   UNL     1       0.895   9.399  22.778  0.00  0.00    +0.000 OA
ENDBRANCH  19  26
ENDBRANCH   2  15
TORSDOF 6
ENDMDL
