MODEL 1
REMARK VINA RESULT:      -7.1      0.000      0.000
REMARK  Name = 
REMARK  8 active torsions:
REMARK  status: ('A' for Active; 'I' for Inactive)
REMARK    1  A    between atoms: N_1  and  P_2
REMARK    2  A    between atoms: P_2  and  O_4
REMARK    3  A    between atoms: P_2  and  N_16
REMARK    4  A    between atoms: O_4  and  C_5
REMARK    5  A    between atoms: N_16  and  C_17
REMARK    6  A    between atoms: N_16  and  C_20
REMARK    7  A    between atoms: C_17  and  C_18
REMARK    8  A    between atoms: C_20  and  C_21
REMARK                            x       y       z     vdW  Elec       q    Type
REMARK                         _______ _______ _______ _____ _____    ______ ____
ROOT
ATOM      1  P   UNL     1       6.472   4.924  18.416  0.00  0.00    +0.000 P 
ATOM      2  O   UNL     1       7.807   4.400  17.880  0.00  0.00    +0.000 OA
ENDROOT
BRANCH   1   3
ATOM      3  N   UNL     1       7.323   5.347  19.921  0.00  0.00    +0.000 NA
ATOM      4  H   UNL     1       7.555   4.453  20.345  0.00  0.00    +0.000 HD
ATOM      5  H   UNL     1       6.553   5.672  20.507  0.00  0.00    +0.000 HD
ENDBRANCH   1   3
BRANCH   1   6
ATOM      6  O   UNL     1       5.742   3.706  19.285  0.00  0.00    +0.000 OA
BRANCH   6   7
ATOM      7  C   UNL     1       4.374   3.647  19.459  0.00  0.00    +0.000 A 
ATOM      8  C   UNL     1       3.624   2.485  19.272  0.00  0.00    +0.000 A 
ATOM      9  F   UNL     1       4.236   1.328  18.979  0.00  0.00    +0.000 F 
ATOM     10  C   UNL     1       2.239   2.512  19.398  0.00  0.00    +0.000 A 
ATOM     11  F   UNL     1       1.531   1.388  19.206  0.00  0.00    +0.000 F 
ATOM     12  C   UNL     1       1.590   3.698  19.712  0.00  0.00    +0.000 A 
ATOM     13  F   UNL     1       0.253   3.726  19.810  0.00  0.00    +0.000 F 
ATOM     14  C   UNL     1       2.330   4.855  19.923  0.00  0.00    +0.000 A 
ATOM     15  F   UNL     1       1.707   5.998  20.238  0.00  0.00    +0.000 F 
ATOM     16  C   UNL     1       3.715   4.826  19.803  0.00  0.00    +0.000 A 
ATOM     17  F   UNL     1       4.418   5.952  20.000  0.00  0.00    +0.000 F 
ENDBRANCH   6   7
ENDBRANCH   1   6
BRANCH   1  18
ATOM     18  N   UNL     1       5.620   4.501  16.911  0.00  0.00    +0.000 NA
BRANCH  18  19
ATOM     19  C   UNL     1       4.811   5.615  16.334  0.00  0.00    +0.000 C 
BRANCH  19  20
ATOM     20  C   UNL     1       4.935   7.016  16.945  0.00  0.00    +0.000 C 
ATOM     21 CL   UNL     1       3.322   7.569  17.491  0.00  0.00    +0.000 Cl
ENDBRANCH  19  20
ENDBRANCH  18  19
BRANCH  18  22
ATOM     22  C   UNL     1       6.553   3.992  15.873  0.00  0.00    +0.000 C 
BRANCH  22  23
ATOM     23  C   UNL     1       6.549   4.756  14.544  0.00  0.00    +0.000 C 
ATOM     24 CL   UNL     1       5.947   3.679  13.247  0.00  0.00    +0.000 Cl
ENDBRANCH  22  23
ENDBRANCH  18  22
ENDBRANCH   1  18
TORSDOF 8
ENDMDL
MODEL 2
REMARK VINA RESULT:      -7.1      0.494      2.314
REMARK  Name = 
REMARK  8 active torsions:
REMARK  status: ('A' for Active; 'I' for Inactive)
REMARK    1  A    between atoms: N_1  and  P_2
REMARK    2  A    between atoms: P_2  and  O_4
REMARK    3  A    between atoms: P_2  and  N_16
REMARK    4  A    between atoms: O_4  and  C_5
REMARK    5  A    between atoms: N_16  and  C_17
REMARK    6  A    between atoms: N_16  and  C_20
REMARK    7  A    between atoms: C_17  and  C_18
REMARK    8  A    between atoms: C_20  and  C_21
REMARK                            x       y       z     vdW  Elec       q    Type
REMARK                         _______ _______ _______ _____ _____    ______ ____
ROOT
ATOM      1  P   UNL     1       6.395   4.962  18.416  0.00  0.00    +0.000 P 
ATOM      2  O   UNL     1       7.691   4.369  17.856  0.00  0.00    +0.000 OA
ENDROOT
BRANCH   1   3
ATOM      3  N   UNL     1       7.283   5.297  19.922  0.00  0.00    +0.000 NA
ATOM      4  H   UNL     1       8.260   5.327  19.643  0.00  0.00    +0.000 HD
ATOM      5  H   UNL     1       7.222   4.397  20.400  0.00  0.00    +0.000 HD
ENDBRANCH   1   3
BRANCH   1   6
ATOM      6  O   UNL     1       5.597   3.772  19.265  0.00  0.00    +0.000 OA
BRANCH   6   7
ATOM      7  C   UNL     1       4.229   3.787  19.438  0.00  0.00    +0.000 A 
ATOM      8  C   UNL     1       3.520   4.911  19.866  0.00  0.00    +0.000 A 
ATOM      9  F   UNL     1       4.156   6.076  20.060  0.00  0.00    +0.000 F 
ATOM     10  C   UNL     1       2.148   4.838  20.087  0.00  0.00    +0.000 A 
ATOM     11  F   UNL     1       1.483   5.925  20.507  0.00  0.00    +0.000 F 
ATOM     12  C   UNL     1       1.471   3.644  19.880  0.00  0.00    +0.000 A 
ATOM     13  F   UNL     1       0.154   3.570  20.115  0.00  0.00    +0.000 F 
ATOM     14  C   UNL     1       2.164   2.526  19.432  0.00  0.00    +0.000 A 
ATOM     15  F   UNL     1       1.512   1.376  19.220  0.00  0.00    +0.000 F 
ATOM     16  C   UNL     1       3.535   2.601  19.206  0.00  0.00    +0.000 A 
ATOM     17  F   UNL     1       4.195   1.513  18.781  0.00  0.00    +0.000 F 
ENDBRANCH   6   7
ENDBRANCH   1   6
BRANCH   1  18
ATOM     18  N   UNL     1       5.508   4.627  16.910  0.00  0.00    +0.000 NA
BRANCH  18  19
ATOM     19  C   UNL     1       4.925   5.840  16.263  0.00  0.00    +0.000 C 
BRANCH  19  20
ATOM     20  C   UNL     1       4.903   7.159  17.042  0.00  0.00    +0.000 C 
ATOM     21 CL   UNL     1       3.213   7.569  17.468  0.00  0.00    +0.000 Cl
ENDBRANCH  19  20
ENDBRANCH  18  19
BRANCH  18  22
ATOM     22  C   UNL     1       6.349   3.907  15.920  0.00  0.00    +0.000 C 
BRANCH  22  23
ATOM     23  C   UNL     1       5.974   4.119  14.449  0.00  0.00    +0.000 C 
ATOM     24 CL   UNL     1       7.292   5.009  13.628  0.00  0.00    +0.000 Cl
ENDBRANCH  22  23
ENDBRANCH  18  22
ENDBRANCH   1  18
TORSDOF 8
ENDMDL
MODEL 3
REMARK VINA RESULT:      -6.6      2.706      3.470
REMARK  Name = 
REMARK  8 active torsions:
REMARK  status: ('A' for Active; 'I' for Inactive)
REMARK    1  A    between atoms: N_1  and  P_2
REMARK    2  A    between atoms: P_2  and  O_4
REMARK    3  A    between atoms: P_2  and  N_16
REMARK    4  A    between atoms: O_4  and  C_5
REMARK    5  A    between atoms: N_16  and  C_17
REMARK    6  A    between atoms: N_16  and  C_20
REMARK    7  A    between atoms: C_17  and  C_18
REMARK    8  A    between atoms: C_20  and  C_21
REMARK                            x       y       z     vdW  Elec       q    Type
REMARK                         _______ _______ _______ _____ _____    ______ ____
ROOT
ATOM      1  P   UNL     1       5.229   4.156  17.049  0.00  0.00    +0.000 P 
ATOM      2  O   UNL     1       4.960   5.154  15.920  0.00  0.00    +0.000 OA
ENDROOT
BRANCH   1   3
ATOM      3  N   UNL     1       5.691   2.976  15.800  0.00  0.00    +0.000 NA
ATOM      4  H   UNL     1       6.462   2.456  16.210  0.00  0.00    +0.000 HD
ATOM      5  H   UNL     1       6.168   3.572  15.122  0.00  0.00    +0.000 HD
ENDBRANCH   1   3
BRANCH   1   6
ATOM      6  O   UNL     1       3.858   3.237  17.274  0.00  0.00    +0.000 OA
BRANCH   6   7
ATOM      7  C   UNL     1       3.238   3.134  18.502  0.00  0.00    +0.000 A 
ATOM      8  C   UNL     1       3.840   2.560  19.623  0.00  0.00    +0.000 A 
ATOM      9  F   UNL     1       5.113   2.141  19.563  0.00  0.00    +0.000 F 
ATOM     10  C   UNL     1       3.132   2.425  20.813  0.00  0.00    +0.000 A 
ATOM     11  F   UNL     1       3.723   1.863  21.878  0.00  0.00    +0.000 F 
ATOM     12  C   UNL     1       1.818   2.864  20.895  0.00  0.00    +0.000 A 
ATOM     13  F   UNL     1       1.131   2.712  22.036  0.00  0.00    +0.000 F 
ATOM     14  C   UNL     1       1.217   3.457  19.792  0.00  0.00    +0.000 A 
ATOM     15  F   UNL     1      -0.047   3.892  19.873  0.00  0.00    +0.000 F 
ATOM     16  C   UNL     1       1.927   3.597  18.604  0.00  0.00    +0.000 A 
ATOM     17  F   UNL     1       1.334   4.164  17.543  0.00  0.00    +0.000 F 
ENDBRANCH   6   7
ENDBRANCH   1   6
BRANCH   1  18
ATOM     18  N   UNL     1       4.767   5.337  18.299  0.00  0.00    +0.000 NA
BRANCH  18  19
ATOM     19  C   UNL     1       5.879   5.717  19.219  0.00  0.00    +0.000 C 
BRANCH  19  20
ATOM     20  C   UNL     1       7.326   5.558  18.740  0.00  0.00    +0.000 C 
ATOM     21 CL   UNL     1       7.987   7.166  18.308  0.00  0.00    +0.000 Cl
ENDBRANCH  19  20
ENDBRANCH  18  19
BRANCH  18  22
ATOM     22  C   UNL     1       4.184   6.569  17.708  0.00  0.00    +0.000 C 
BRANCH  22  23
ATOM     23  C   UNL     1       2.867   7.045  18.329  0.00  0.00    +0.000 C 
ATOM     24 CL   UNL     1       2.418   8.626  17.618  0.00  0.00    +0.000 Cl
ENDBRANCH  22  23
ENDBRANCH  18  22
ENDBRANCH   1  18
TORSDOF 8
ENDMDL
MODEL 4
REMARK VINA RESULT:      -6.5      2.244      3.534
REMARK  Name = 
REMARK  8 active torsions:
REMARK  status: ('A' for Active; 'I' for Inactive)
REMARK    1  A    between atoms: N_1  and  P_2
REMARK    2  A    between atoms: P_2  and  O_4
REMARK    3  A    between atoms: P_2  and  N_16
REMARK    4  A    between atoms: O_4  and  C_5
REMARK    5  A    between atoms: N_16  and  C_17
REMARK    6  A    between atoms: N_16  and  C_20
REMARK    7  A    between atoms: C_17  and  C_18
REMARK    8  A    between atoms: C_20  and  C_21
REMARK                            x       y       z     vdW  Elec       q    Type
REMARK                         _______ _______ _______ _____ _____    ______ ____
ROOT
ATOM      1  P   UNL     1       4.669   6.466  16.777  0.00  0.00    +0.000 P 
ATOM      2  O   UNL     1       5.916   7.352  16.848  0.00  0.00    +0.000 OA
ENDROOT
BRANCH   1   3
ATOM      3  N   UNL     1       3.697   7.937  17.018  0.00  0.00    +0.000 NA
ATOM      4  H   UNL     1       2.733   7.625  16.935  0.00  0.00    +0.000 HD
ATOM      5  H   UNL     1       3.843   8.425  16.133  0.00  0.00    +0.000 HD
ENDBRANCH   1   3
BRANCH   1   6
ATOM      6  O   UNL     1       4.237   6.043  18.328  0.00  0.00    +0.000 OA
BRANCH   6   7
ATOM      7  C   UNL     1       3.596   4.854  18.613  0.00  0.00    +0.000 A 
ATOM      8  C   UNL     1       2.290   4.570  18.212  0.00  0.00    +0.000 A 
ATOM      9  F   UNL     1       1.614   5.441  17.448  0.00  0.00    +0.000 F 
ATOM     10  C   UNL     1       1.679   3.379  18.592  0.00  0.00    +0.000 A 
ATOM     11  F   UNL     1       0.419   3.125  18.206  0.00  0.00    +0.000 F 
ATOM     12  C   UNL     1       2.368   2.460  19.373  0.00  0.00    +0.000 A 
ATOM     13  F   UNL     1       1.769   1.324  19.756  0.00  0.00    +0.000 F 
ATOM     14  C   UNL     1       3.676   2.724  19.757  0.00  0.00    +0.000 A 
ATOM     15  F   UNL     1       4.346   1.835  20.501  0.00  0.00    +0.000 F 
ATOM     16  C   UNL     1       4.288   3.913  19.372  0.00  0.00    +0.000 A 
ATOM     17  F   UNL     1       5.550   4.161  19.756  0.00  0.00    +0.000 F 
ENDBRANCH   6   7
ENDBRANCH   1   6
BRANCH   1  18
ATOM     18  N   UNL     1       5.642   4.995  16.536  0.00  0.00    +0.000 NA
BRANCH  18  19
ATOM     19  C   UNL     1       5.383   4.298  15.241  0.00  0.00    +0.000 C 
BRANCH  19  20
ATOM     20  C   UNL     1       6.450   4.354  14.142  0.00  0.00    +0.000 C 
ATOM     21 CL   UNL     1       5.860   3.475  12.698  0.00  0.00    +0.000 Cl
ENDBRANCH  19  20
ENDBRANCH  18  19
BRANCH  18  22
ATOM     22  C   UNL     1       7.097   5.268  16.657  0.00  0.00    +0.000 C 
BRANCH  22  23
ATOM     23  C   UNL     1       7.787   4.659  17.882  0.00  0.00    +0.000 C 
ATOM     24 CL   UNL     1       8.021   5.932  19.119  0.00  0.00    +0.000 Cl
ENDBRANCH  22  23
ENDBRANCH  18  22
ENDBRANCH   1  18
TORSDOF 8
ENDMDL
MODEL 5
REMARK VINA RESULT:      -6.4      2.125      3.023
REMARK  Name = 
REMARK  8 active torsions:
REMARK  status: ('A' for Active; 'I' for Inactive)
REMARK    1  A    between atoms: N_1  and  P_2
REMARK    2  A    between atoms: P_2  and  O_4
REMARK    3  A    between atoms: P_2  and  N_16
REMARK    4  A    between atoms: O_4  and  C_5
REMARK    5  A    between atoms: N_16  and  C_17
REMARK    6  A    between atoms: N_16  and  C_20
REMARK    7  A    between atoms: C_17  and  C_18
REMARK    8  A    between atoms: C_20  and  C_21
REMARK                            x       y       z     vdW  Elec       q    Type
REMARK                         _______ _______ _______ _____ _____    ______ ____
ROOT
ATOM      1  P   UNL     1       7.349   5.744  18.964  0.00  0.00    +0.000 P 
ATOM      2  O   UNL     1       7.652   4.387  18.325  0.00  0.00    +0.000 OA
ENDROOT
BRANCH   1   3
ATOM      3  N   UNL     1       8.093   5.127  20.459  0.00  0.00    +0.000 NA
ATOM      4  H   UNL     1       7.942   5.862  21.144  0.00  0.00    +0.000 HD
ATOM      5  H   UNL     1       9.087   5.227  20.248  0.00  0.00    +0.000 HD
ENDBRANCH   1   3
BRANCH   1   6
ATOM      6  O   UNL     1       5.890   5.635  19.760  0.00  0.00    +0.000 OA
BRANCH   6   7
ATOM      7  C   UNL     1       4.776   5.069  19.174  0.00  0.00    +0.000 A 
ATOM      8  C   UNL     1       3.774   5.813  18.549  0.00  0.00    +0.000 A 
ATOM      9  F   UNL     1       3.898   7.143  18.427  0.00  0.00    +0.000 F 
ATOM     10  C   UNL     1       2.643   5.184  18.040  0.00  0.00    +0.000 A 
ATOM     11  F   UNL     1       1.684   5.914  17.450  0.00  0.00    +0.000 F 
ATOM     12  C   UNL     1       2.503   3.807  18.147  0.00  0.00    +0.000 A 
ATOM     13  F   UNL     1       1.401   3.206  17.676  0.00  0.00    +0.000 F 
ATOM     14  C   UNL     1       3.505   3.056  18.747  0.00  0.00    +0.000 A 
ATOM     15  F   UNL     1       3.378   1.726  18.842  0.00  0.00    +0.000 F 
ATOM     16  C   UNL     1       4.639   3.685  19.251  0.00  0.00    +0.000 A 
ATOM     17  F   UNL     1       5.597   2.949  19.836  0.00  0.00    +0.000 F 
ENDBRANCH   6   7
ENDBRANCH   1   6
BRANCH   1  18
ATOM     18  N   UNL     1       6.605   6.362  17.470  0.00  0.00    +0.000 NA
BRANCH  18  19
ATOM     19  C   UNL     1       6.995   7.762  17.128  0.00  0.00    +0.000 C 
BRANCH  19  20
ATOM     20  C   UNL     1       8.185   8.400  17.853  0.00  0.00    +0.000 C 
ATOM     21 CL   UNL     1       8.006  10.181  17.834  0.00  0.00    +0.000 Cl
ENDBRANCH  19  20
ENDBRANCH  18  19
BRANCH  18  22
ATOM     22  C   UNL     1       6.889   5.483  16.306  0.00  0.00    +0.000 C 
BRANCH  22  23
ATOM     23  C   UNL     1       5.708   5.229  15.362  0.00  0.00    +0.000 C 
ATOM     24 CL   UNL     1       6.166   3.973  14.172  0.00  0.00    +0.000 Cl
ENDBRANCH  22  23
ENDBRANCH  18  22
ENDBRANCH   1  18
TORSDOF 8
ENDMDL
MODEL 6
REMARK VINA RESULT:      -6.4      2.133      3.054
REMARK  Name = 
REMARK  8 active torsions:
REMARK  status: ('A' for Active; 'I' for Inactive)
REMARK    1  A    between atoms: N_1  and  P_2
REMARK    2  A    between atoms: P_2  and  O_4
REMARK    3  A    between atoms: P_2  and  N_16
REMARK    4  A    between atoms: O_4  and  C_5
REMARK    5  A    between atoms: N_16  and  C_17
REMARK    6  A    between atoms: N_16  and  C_20
REMARK    7  A    between atoms: C_17  and  C_18
REMARK    8  A    between atoms: C_20  and  C_21
REMARK                            x       y       z     vdW  Elec       q    Type
REMARK                         _______ _______ _______ _____ _____    ______ ____
ROOT
ATOM      1  P   UNL     1       5.929   5.379  18.881  0.00  0.00    +0.000 P 
ATOM      2  O   UNL     1       6.937   5.159  20.011  0.00  0.00    +0.000 OA
ENDROOT
BRANCH   1   3
ATOM      3  N   UNL     1       4.660   5.463  20.127  0.00  0.00    +0.000 NA
ATOM      4  H   UNL     1       3.919   4.859  19.780  0.00  0.00    +0.000 HD
ATOM      5  H   UNL     1       4.274   6.394  19.963  0.00  0.00    +0.000 HD
ENDBRANCH   1   3
BRANCH   1   6
ATOM      6  O   UNL     1       5.283   3.904  18.459  0.00  0.00    +0.000 OA
BRANCH   6   7
ATOM      7  C   UNL     1       3.952   3.600  18.663  0.00  0.00    +0.000 A 
ATOM      8  C   UNL     1       3.504   2.745  19.671  0.00  0.00    +0.000 A 
ATOM      9  F   UNL     1       4.373   2.229  20.553  0.00  0.00    +0.000 F 
ATOM     10  C   UNL     1       2.154   2.427  19.777  0.00  0.00    +0.000 A 
ATOM     11  F   UNL     1       1.740   1.597  20.746  0.00  0.00    +0.000 F 
ATOM     12  C   UNL     1       1.239   2.962  18.880  0.00  0.00    +0.000 A 
ATOM     13  F   UNL     1      -0.058   2.636  18.971  0.00  0.00    +0.000 F 
ATOM     14  C   UNL     1       1.672   3.832  17.888  0.00  0.00    +0.000 A 
ATOM     15  F   UNL     1       0.791   4.358  17.028  0.00  0.00    +0.000 F 
ATOM     16  C   UNL     1       3.022   4.153  17.785  0.00  0.00    +0.000 A 
ATOM     17  F   UNL     1       3.430   4.988  16.818  0.00  0.00    +0.000 F 
ENDBRANCH   6   7
ENDBRANCH   1   6
BRANCH   1  18
ATOM     18  N   UNL     1       7.198   5.296  17.636  0.00  0.00    +0.000 NA
BRANCH  18  19
ATOM     19  C   UNL     1       6.858   4.418  16.477  0.00  0.00    +0.000 C 
BRANCH  19  20
ATOM     20  C   UNL     1       6.968   4.987  15.058  0.00  0.00    +0.000 C 
ATOM     21 CL   UNL     1       6.162   3.874  13.909  0.00  0.00    +0.000 Cl
ENDBRANCH  19  20
ENDBRANCH  18  19
BRANCH  18  22
ATOM     22  C   UNL     1       7.567   6.643  17.131  0.00  0.00    +0.000 C 
BRANCH  22  23
ATOM     23  C   UNL     1       8.163   7.601  18.169  0.00  0.00    +0.000 C 
ATOM     24 CL   UNL     1       7.851   9.289  17.660  0.00  0.00    +0.000 Cl
ENDBRANCH  22  23
ENDBRANCH  18  22
ENDBRANCH   1  18
TORSDOF 8
ENDMDL
MODEL 7
REMARK VINA RESULT:      -6.3      2.153      3.676
REMARK  Name = 
REMARK  8 active torsions:
REMARK  status: ('A' for Active; 'I' for Inactive)
REMARK    1  A    between atoms: N_1  and  P_2
REMARK    2  A    between atoms: P_2  and  O_4
REMARK    3  A    between atoms: P_2  and  N_16
REMARK    4  A    between atoms: O_4  and  C_5
REMARK    5  A    between atoms: N_16  and  C_17
REMARK    6  A    between atoms: N_16  and  C_20
REMARK    7  A    between atoms: C_17  and  C_18
REMARK    8  A    between atoms: C_20  and  C_21
REMARK                            x       y       z     vdW  Elec       q    Type
REMARK                         _______ _______ _______ _____ _____    ______ ____
ROOT
ATOM      1  P   UNL     1       4.772   6.203  16.786  0.00  0.00    +0.000 P 
ATOM      2  O   UNL     1       5.953   7.168  16.656  0.00  0.00    +0.000 OA
ENDROOT
BRANCH   1   3
ATOM      3  N   UNL     1       3.807   7.577  17.377  0.00  0.00    +0.000 NA
ATOM      4  H   UNL     1       2.855   7.364  17.093  0.00  0.00    +0.000 HD
ATOM      5  H   UNL     1       4.071   8.311  16.717  0.00  0.00    +0.000 HD
ENDBRANCH   1   3
BRANCH   1   6
ATOM      6  O   UNL     1       4.734   5.629  18.349  0.00  0.00    +0.000 OA
BRANCH   6   7
ATOM      7  C   UNL     1       3.670   4.898  18.836  0.00  0.00    +0.000 A 
ATOM      8  C   UNL     1       2.631   5.455  19.582  0.00  0.00    +0.000 A 
ATOM      9  F   UNL     1       2.590   6.778  19.797  0.00  0.00    +0.000 F 
ATOM     10  C   UNL     1       1.624   4.648  20.101  0.00  0.00    +0.000 A 
ATOM     11  F   UNL     1       0.637   5.198  20.824  0.00  0.00    +0.000 F 
ATOM     12  C   UNL     1       1.644   3.278  19.879  0.00  0.00    +0.000 A 
ATOM     13  F   UNL     1       0.685   2.499  20.400  0.00  0.00    +0.000 F 
ATOM     14  C   UNL     1       2.662   2.717  19.118  0.00  0.00    +0.000 A 
ATOM     15  F   UNL     1       2.678   1.397  18.892  0.00  0.00    +0.000 F 
ATOM     16  C   UNL     1       3.666   3.525  18.594  0.00  0.00    +0.000 A 
ATOM     17  F   UNL     1       4.648   2.971  17.868  0.00  0.00    +0.000 F 
ENDBRANCH   6   7
ENDBRANCH   1   6
BRANCH   1  18
ATOM     18  N   UNL     1       5.737   4.829  16.195  0.00  0.00    +0.000 NA
BRANCH  18  19
ATOM     19  C   UNL     1       5.520   4.506  14.754  0.00  0.00    +0.000 C 
BRANCH  19  20
ATOM     20  C   UNL     1       6.706   4.014  13.917  0.00  0.00    +0.000 C 
ATOM     21 CL   UNL     1       6.136   3.594  12.272  0.00  0.00    +0.000 Cl
ENDBRANCH  19  20
ENDBRANCH  18  19
BRANCH  18  22
ATOM     22  C   UNL     1       7.190   5.031  16.432  0.00  0.00    +0.000 C 
BRANCH  22  23
ATOM     23  C   UNL     1       7.750   4.393  17.709  0.00  0.00    +0.000 C 
ATOM     24 CL   UNL     1       8.003   5.666  18.941  0.00  0.00    +0.000 Cl
ENDBRANCH  22  23
ENDBRANCH  18  22
ENDBRANCH   1  18
TORSDOF 8
ENDMDL
MODEL 8
REMARK VINA RESULT:      -6.3      2.306      3.506
REMARK  Name = 
REMARK  8 active torsions:
REMARK  status: ('A' for Active; 'I' for Inactive)
REMARK    1  A    between atoms: N_1  and  P_2
REMARK    2  A    between atoms: P_2  and  O_4
REMARK    3  A    between atoms: P_2  and  N_16
REMARK    4  A    between atoms: O_4  and  C_5
REMARK    5  A    between atoms: N_16  and  C_17
REMARK    6  A    between atoms: N_16  and  C_20
REMARK    7  A    between atoms: C_17  and  C_18
REMARK    8  A    between atoms: C_20  and  C_21
REMARK                            x       y       z     vdW  Elec       q    Type
REMARK                         _______ _______ _______ _____ _____    ______ ____
ROOT
ATOM      1  P   UNL     1       4.499   6.011  17.525  0.00  0.00    +0.000 P 
ATOM      2  O   UNL     1       4.663   6.262  19.026  0.00  0.00    +0.000 OA
ENDROOT
BRANCH   1   3
ATOM      3  N   UNL     1       2.826   6.599  17.682  0.00  0.00    +0.000 NA
ATOM      4  H   UNL     1       2.857   7.556  17.342  0.00  0.00    +0.000 HD
ATOM      5  H   UNL     1       2.750   6.730  18.692  0.00  0.00    +0.000 HD
ENDBRANCH   1   3
BRANCH   1   6
ATOM      6  O   UNL     1       3.844   4.494  17.315  0.00  0.00    +0.000 OA
BRANCH   6   7
ATOM      7  C   UNL     1       3.195   3.828  18.334  0.00  0.00    +0.000 A 
ATOM      8  C   UNL     1       1.805   3.759  18.446  0.00  0.00    +0.000 A 
ATOM      9  F   UNL     1       1.025   4.294  17.494  0.00  0.00    +0.000 F 
ATOM     10  C   UNL     1       1.215   3.130  19.537  0.00  0.00    +0.000 A 
ATOM     11  F   UNL     1      -0.122   3.080  19.634  0.00  0.00    +0.000 F 
ATOM     12  C   UNL     1       2.007   2.561  20.526  0.00  0.00    +0.000 A 
ATOM     13  F   UNL     1       1.436   1.975  21.587  0.00  0.00    +0.000 F 
ATOM     14  C   UNL     1       3.390   2.604  20.412  0.00  0.00    +0.000 A 
ATOM     15  F   UNL     1       4.157   2.047  21.358  0.00  0.00    +0.000 F 
ATOM     16  C   UNL     1       3.980   3.230  19.318  0.00  0.00    +0.000 A 
ATOM     17  F   UNL     1       5.317   3.272  19.223  0.00  0.00    +0.000 F 
ENDBRANCH   6   7
ENDBRANCH   1   6
BRANCH   1  18
ATOM     18  N   UNL     1       6.171   5.423  17.368  0.00  0.00    +0.000 NA
BRANCH  18  19
ATOM     19  C   UNL     1       6.345   4.341  16.353  0.00  0.00    +0.000 C 
BRANCH  19  20
ATOM     20  C   UNL     1       6.855   4.710  14.955  0.00  0.00    +0.000 C 
ATOM     21 CL   UNL     1       5.738   4.046  13.723  0.00  0.00    +0.000 Cl
ENDBRANCH  19  20
ENDBRANCH  18  19
BRANCH  18  22
ATOM     22  C   UNL     1       7.119   6.526  17.067  0.00  0.00    +0.000 C 
BRANCH  22  23
ATOM     23  C   UNL     1       7.954   7.026  18.251  0.00  0.00    +0.000 C 
ATOM     24 CL   UNL     1       7.995   5.762  19.518  0.00  0.00    +0.000 Cl
ENDBRANCH  22  23
ENDBRANCH  18  22
ENDBRANCH   1  18
TORSDOF 8
ENDMDL
MODEL 9
REMARK VINA RESULT:      -6.3      2.294      3.460
REMARK  Name = 
REMARK  8 active torsions:
REMARK  status: ('A' for Active; 'I' for Inactive)
REMARK    1  A    between atoms: N_1  and  P_2
REMARK    2  A    between atoms: P_2  and  O_4
REMARK    3  A    between atoms: P_2  and  N_16
REMARK    4  A    between atoms: O_4  and  C_5
REMARK    5  A    between atoms: N_16  and  C_17
REMARK    6  A    between atoms: N_16  and  C_20
REMARK    7  A    between atoms: C_17  and  C_18
REMARK    8  A    between atoms: C_20  and  C_21
REMARK                            x       y       z     vdW  Elec       q    Type
REMARK                         _______ _______ _______ _____ _____    ______ ____
ROOT
ATOM      1  P   UNL     1       4.486   6.097  17.377  0.00  0.00    +0.000 P 
ATOM      2  O   UNL     1       4.716   6.389  18.862  0.00  0.00    +0.000 OA
ENDROOT
BRANCH   1   3
ATOM      3  N   UNL     1       2.862   6.800  17.564  0.00  0.00    +0.000 NA
ATOM      4  H   UNL     1       2.871   7.629  16.976  0.00  0.00    +0.000 HD
ATOM      5  H   UNL     1       2.919   7.199  18.502  0.00  0.00    +0.000 HD
ENDBRANCH   1   3
BRANCH   1   6
ATOM      6  O   UNL     1       3.727   4.621  17.245  0.00  0.00    +0.000 OA
BRANCH   6   7
ATOM      7  C   UNL     1       3.209   3.961  18.341  0.00  0.00    +0.000 A 
ATOM      8  C   UNL     1       4.000   3.361  19.323  0.00  0.00    +0.000 A 
ATOM      9  F   UNL     1       5.336   3.471  19.272  0.00  0.00    +0.000 F 
ATOM     10  C   UNL     1       3.413   2.653  20.366  0.00  0.00    +0.000 A 
ATOM     11  F   UNL     1       4.188   2.074  21.296  0.00  0.00    +0.000 F 
ATOM     12  C   UNL     1       2.032   2.539  20.441  0.00  0.00    +0.000 A 
ATOM     13  F   UNL     1       1.470   1.836  21.435  0.00  0.00    +0.000 F 
ATOM     14  C   UNL     1       1.235   3.152  19.482  0.00  0.00    +0.000 A 
ATOM     15  F   UNL     1      -0.098   3.053  19.558  0.00  0.00    +0.000 F 
ATOM     16  C   UNL     1       1.823   3.865  18.442  0.00  0.00    +0.000 A 
ATOM     17  F   UNL     1       1.043   4.445  17.517  0.00  0.00    +0.000 F 
ENDBRANCH   6   7
ENDBRANCH   1   6
BRANCH   1  18
ATOM     18  N   UNL     1       6.110   5.393  17.191  0.00  0.00    +0.000 NA
BRANCH  18  19
ATOM     19  C   UNL     1       6.199   4.332  16.144  0.00  0.00    +0.000 C 
BRANCH  19  20
ATOM     20  C   UNL     1       6.911   4.650  14.824  0.00  0.00    +0.000 C 
ATOM     21 CL   UNL     1       6.065   3.821  13.481  0.00  0.00    +0.000 Cl
ENDBRANCH  19  20
ENDBRANCH  18  19
BRANCH  18  22
ATOM     22  C   UNL     1       7.135   6.433  16.915  0.00  0.00    +0.000 C 
BRANCH  22  23
ATOM     23  C   UNL     1       7.859   6.995  18.143  0.00  0.00    +0.000 C 
ATOM     24 CL   UNL     1       7.993   5.713  19.385  0.00  0.00    +0.000 Cl
ENDBRANCH  22  23
ENDBRANCH  18  22
ENDBRANCH   1  18
TORSDOF 8
ENDMDL
