MODEL 1
REMARK VINA RESULT:      -6.6      0.000      0.000
REMARK  Name = 
REMARK  7 active torsions:
REMARK  status: ('A' for Active; 'I' for Inactive)
REMARK    1  A    between atoms: C_1  and  N_2
REMARK    2  A    between atoms: N_2  and  C_3
REMARK    3  A    between atoms: N_2  and  C_4
REMARK    4  A    between atoms: C_9  and  N_10
REMARK    5  A    between atoms: N_10  and  C_11
REMARK    6  A    between atoms: N_10  and  C_12
REMARK    7  A    between atoms: C_12  and  C_13
REMARK                            x       y       z     vdW  Elec       q    Type
REMARK                         _______ _______ _______ _____ _____    ______ ____
ROOT
ATOM      1  C   UNL     1       2.562   4.914  18.881  0.00  0.00    +0.000 A 
ATOM      2  C   UNL     1       1.438   4.059  18.937  0.00  0.00    +0.000 A 
ATOM      3  C   UNL     1       1.437   2.798  18.339  0.00  0.00    +0.000 A 
ATOM      4  C   UNL     1       2.566   2.352  17.673  0.00  0.00    +0.000 A 
ATOM      5  C   UNL     1       3.699   3.164  17.612  0.00  0.00    +0.000 A 
ATOM      6  C   UNL     1       3.739   4.445  18.205  0.00  0.00    +0.000 A 
ENDROOT
BRANCH   1   8
ATOM      7  C   UNL     1       2.309   7.377  18.710  0.00  0.00    +0.000 C 
ATOM      8  N   UNL     1       2.538   6.179  19.527  0.00  0.00    +0.000 N 
ATOM      9  C   UNL     1       1.731   6.144  20.750  0.00  0.00    +0.000 C 
ENDBRANCH   1   8
BRANCH   6  10
ATOM     10  N   UNL     1       4.922   5.204  18.149  0.00  0.00    +0.000 N 
ATOM     11  C   UNL     1       6.141   4.662  18.739  0.00  0.00    +0.000 C 
BRANCH  10  12
ATOM     12  C   UNL     1       5.112   6.055  16.954  0.00  0.00    +0.000 C 
BRANCH  12  13
ATOM     13  C   UNL     1       5.972   5.527  15.837  0.00  0.00    +0.000 A 
ATOM     14  C   UNL     1       5.619   4.602  14.822  0.00  0.00    +0.000 A 
ATOM     15  C   UNL     1       6.748   4.487  14.057  0.00  0.00    +0.000 A 
ATOM     16  O   UNL     1       7.725   5.272  14.570  0.00  0.00    +0.000 OA
ATOM     17  N   UNL     1       7.246   5.928  15.696  0.00  0.00    +0.000 NA
ENDBRANCH  12  13
ENDBRANCH  10  12
ENDBRANCH   6  10
TORSDOF 4
ENDMDL
MODEL 2
REMARK VINA RESULT:      -6.3      2.768      5.497
REMARK  Name = 
REMARK  7 active torsions:
REMARK  status: ('A' for Active; 'I' for Inactive)
REMARK    1  A    between atoms: C_1  and  N_2
REMARK    2  A    between atoms: N_2  and  C_3
REMARK    3  A    between atoms: N_2  and  C_4
REMARK    4  A    between atoms: C_9  and  N_10
REMARK    5  A    between atoms: N_10  and  C_11
REMARK    6  A    between atoms: N_10  and  C_12
REMARK    7  A    between atoms: C_12  and  C_13
REMARK                            x       y       z     vdW  Elec       q    Type
REMARK                         _______ _______ _______ _____ _____    ______ ____
ROOT
ATOM      1  C   UNL     1       6.580   5.545  17.138  0.00  0.00    +0.000 A 
ATOM      2  C   UNL     1       7.258   5.421  15.905  0.00  0.00    +0.000 A 
ATOM      3  C   UNL     1       6.768   4.629  14.866  0.00  0.00    +0.000 A 
ATOM      4  C   UNL     1       5.577   3.940  15.030  0.00  0.00    +0.000 A 
ATOM      5  C   UNL     1       4.873   4.052  16.229  0.00  0.00    +0.000 A 
ATOM      6  C   UNL     1       5.336   4.845  17.302  0.00  0.00    +0.000 A 
ENDROOT
BRANCH   1   8
ATOM      7  C   UNL     1       7.916   5.780  19.217  0.00  0.00    +0.000 C 
ATOM      8  N   UNL     1       7.093   6.385  18.162  0.00  0.00    +0.000 N 
ATOM      9  C   UNL     1       7.663   7.618  17.612  0.00  0.00    +0.000 C 
ENDBRANCH   1   8
BRANCH   6  10
ATOM     10  N   UNL     1       4.565   4.955  18.473  0.00  0.00    +0.000 N 
ATOM     11  C   UNL     1       3.540   5.991  18.553  0.00  0.00    +0.000 C 
BRANCH  10  12
ATOM     12  C   UNL     1       4.263   3.698  19.193  0.00  0.00    +0.000 C 
BRANCH  12  13
ATOM     13  C   UNL     1       2.830   3.241  19.251  0.00  0.00    +0.000 A 
ATOM     14  C   UNL     1       2.048   2.678  18.211  0.00  0.00    +0.000 A 
ATOM     15  C   UNL     1       0.838   2.419  18.796  0.00  0.00    +0.000 A 
ATOM     16  O   UNL     1       0.869   2.806  20.093  0.00  0.00    +0.000 OA
ATOM     17  N   UNL     1       2.120   3.331  20.388  0.00  0.00    +0.000 NA
ENDBRANCH  12  13
ENDBRANCH  10  12
ENDBRANCH   6  10
TORSDOF 4
ENDMDL
MODEL 3
REMARK VINA RESULT:      -6.3      1.473      1.876
REMARK  Name = 
REMARK  7 active torsions:
REMARK  status: ('A' for Active; 'I' for Inactive)
REMARK    1  A    between atoms: C_1  and  N_2
REMARK    2  A    between atoms: N_2  and  C_3
REMARK    3  A    between atoms: N_2  and  C_4
REMARK    4  A    between atoms: C_9  and  N_10
REMARK    5  A    between atoms: N_10  and  C_11
REMARK    6  A    between atoms: N_10  and  C_12
REMARK    7  A    between atoms: C_12  and  C_13
REMARK                            x       y       z     vdW  Elec       q    Type
REMARK                         _______ _______ _______ _____ _____    ______ ____
ROOT
ATOM      1  C   UNL     1       3.817   5.553  17.835  0.00  0.00    +0.000 A 
ATOM      2  C   UNL     1       2.493   5.064  17.887  0.00  0.00    +0.000 A 
ATOM      3  C   UNL     1       2.202   3.751  18.259  0.00  0.00    +0.000 A 
ATOM      4  C   UNL     1       3.231   2.888  18.598  0.00  0.00    +0.000 A 
ATOM      5  C   UNL     1       4.550   3.342  18.572  0.00  0.00    +0.000 A 
ATOM      6  C   UNL     1       4.884   4.663  18.203  0.00  0.00    +0.000 A 
ENDROOT
BRANCH   1   8
ATOM      7  C   UNL     1       4.626   7.186  16.151  0.00  0.00    +0.000 C 
ATOM      8  N   UNL     1       4.074   6.905  17.481  0.00  0.00    +0.000 N 
ATOM      9  C   UNL     1       2.955   7.778  17.846  0.00  0.00    +0.000 C 
ENDBRANCH   1   8
BRANCH   6  10
ATOM     10  N   UNL     1       6.227   5.080  18.235  0.00  0.00    +0.000 N 
ATOM     11  C   UNL     1       6.789   5.566  19.491  0.00  0.00    +0.000 C 
BRANCH  10  12
ATOM     12  C   UNL     1       7.169   4.365  17.346  0.00  0.00    +0.000 C 
BRANCH  12  13
ATOM     13  C   UNL     1       6.972   4.489  15.858  0.00  0.00    +0.000 A 
ATOM     14  C   UNL     1       6.127   3.719  15.020  0.00  0.00    +0.000 A 
ATOM     15  C   UNL     1       6.304   4.255  13.773  0.00  0.00    +0.000 A 
ATOM     16  O   UNL     1       7.199   5.270  13.838  0.00  0.00    +0.000 OA
ATOM     17  N   UNL     1       7.630   5.421  15.149  0.00  0.00    +0.000 NA
ENDBRANCH  12  13
ENDBRANCH  10  12
ENDBRANCH   6  10
TORSDOF 4
ENDMDL
MODEL 4
REMARK VINA RESULT:      -6.2      1.932      3.544
REMARK  Name = 
REMARK  7 active torsions:
REMARK  status: ('A' for Active; 'I' for Inactive)
REMARK    1  A    between atoms: C_1  and  N_2
REMARK    2  A    between atoms: N_2  and  C_3
REMARK    3  A    between atoms: N_2  and  C_4
REMARK    4  A    between atoms: C_9  and  N_10
REMARK    5  A    between atoms: N_10  and  C_11
REMARK    6  A    between atoms: N_10  and  C_12
REMARK    7  A    between atoms: C_12  and  C_13
REMARK                            x       y       z     vdW  Elec       q    Type
REMARK                         _______ _______ _______ _____ _____    ______ ____
ROOT
ATOM      1  C   UNL     1       3.631   4.479  18.534  0.00  0.00    +0.000 A 
ATOM      2  C   UNL     1       2.642   5.262  19.171  0.00  0.00    +0.000 A 
ATOM      3  C   UNL     1       2.442   6.605  18.852  0.00  0.00    +0.000 A 
ATOM      4  C   UNL     1       3.223   7.204  17.878  0.00  0.00    +0.000 A 
ATOM      5  C   UNL     1       4.198   6.457  17.217  0.00  0.00    +0.000 A 
ATOM      6  C   UNL     1       4.429   5.095  17.511  0.00  0.00    +0.000 A 
ENDROOT
BRANCH   1   8
ATOM      7  C   UNL     1       3.816   2.726  20.281  0.00  0.00    +0.000 C 
ATOM      8  N   UNL     1       3.786   3.106  18.863  0.00  0.00    +0.000 N 
ATOM      9  C   UNL     1       2.914   2.255  18.049  0.00  0.00    +0.000 C 
ENDBRANCH   1   8
BRANCH   6  10
ATOM     10  N   UNL     1       5.397   4.378  16.785  0.00  0.00    +0.000 N 
ATOM     11  C   UNL     1       5.213   4.192  15.349  0.00  0.00    +0.000 C 
BRANCH  10  12
ATOM     12  C   UNL     1       6.800   4.502  17.240  0.00  0.00    +0.000 C 
BRANCH  12  13
ATOM     13  C   UNL     1       7.341   5.883  17.502  0.00  0.00    +0.000 A 
ATOM     14  C   UNL     1       7.786   6.430  18.732  0.00  0.00    +0.000 A 
ATOM     15  C   UNL     1       8.197   7.696  18.413  0.00  0.00    +0.000 A 
ATOM     16  O   UNL     1       8.008   7.914  17.089  0.00  0.00    +0.000 OA
ATOM     17  N   UNL     1       7.463   6.777  16.508  0.00  0.00    +0.000 NA
ENDBRANCH  12  13
ENDBRANCH  10  12
ENDBRANCH   6  10
TORSDOF 4
ENDMDL
MODEL 5
REMARK VINA RESULT:      -6.1      1.289      2.795
REMARK  Name = 
REMARK  7 active torsions:
REMARK  status: ('A' for Active; 'I' for Inactive)
REMARK    1  A    between atoms: C_1  and  N_2
REMARK    2  A    between atoms: N_2  and  C_3
REMARK    3  A    between atoms: N_2  and  C_4
REMARK    4  A    between atoms: C_9  and  N_10
REMARK    5  A    between atoms: N_10  and  C_11
REMARK    6  A    between atoms: N_10  and  C_12
REMARK    7  A    between atoms: C_12  and  C_13
REMARK                            x       y       z     vdW  Elec       q    Type
REMARK                         _______ _______ _______ _____ _____    ______ ____
ROOT
ATOM      1  C   UNL     1       3.253   3.961  19.517  0.00  0.00    +0.000 A 
ATOM      2  C   UNL     1       2.065   3.651  20.215  0.00  0.00    +0.000 A 
ATOM      3  C   UNL     1       1.219   4.643  20.714  0.00  0.00    +0.000 A 
ATOM      4  C   UNL     1       1.535   5.977  20.522  0.00  0.00    +0.000 A 
ATOM      5  C   UNL     1       2.693   6.319  19.823  0.00  0.00    +0.000 A 
ATOM      6  C   UNL     1       3.572   5.346  19.302  0.00  0.00    +0.000 A 
ENDROOT
BRANCH   1   8
ATOM      7  C   UNL     1       4.600   1.917  19.926  0.00  0.00    +0.000 C 
ATOM      8  N   UNL     1       4.076   2.926  18.997  0.00  0.00    +0.000 N 
ATOM      9  C   UNL     1       3.511   2.355  17.772  0.00  0.00    +0.000 C 
ENDBRANCH   1   8
BRANCH   6  10
ATOM     10  N   UNL     1       4.704   5.747  18.569  0.00  0.00    +0.000 N 
ATOM     11  C   UNL     1       6.019   5.261  18.975  0.00  0.00    +0.000 C 
BRANCH  10  12
ATOM     12  C   UNL     1       4.519   5.956  17.116  0.00  0.00    +0.000 C 
BRANCH  12  13
ATOM     13  C   UNL     1       5.614   5.502  16.189  0.00  0.00    +0.000 A 
ATOM     14  C   UNL     1       5.663   4.324  15.402  0.00  0.00    +0.000 A 
ATOM     15  C   UNL     1       6.853   4.410  14.732  0.00  0.00    +0.000 A 
ATOM     16  O   UNL     1       7.494   5.548  15.090  0.00  0.00    +0.000 OA
ATOM     17  N   UNL     1       6.722   6.241  16.013  0.00  0.00    +0.000 NA
ENDBRANCH  12  13
ENDBRANCH  10  12
ENDBRANCH   6  10
TORSDOF 4
ENDMDL
MODEL 6
REMARK VINA RESULT:      -6.0      1.480      2.873
REMARK  Name = 
REMARK  7 active torsions:
REMARK  status: ('A' for Active; 'I' for Inactive)
REMARK    1  A    between atoms: C_1  and  N_2
REMARK    2  A    between atoms: N_2  and  C_3
REMARK    3  A    between atoms: N_2  and  C_4
REMARK    4  A    between atoms: C_9  and  N_10
REMARK    5  A    between atoms: N_10  and  C_11
REMARK    6  A    between atoms: N_10  and  C_12
REMARK    7  A    between atoms: C_12  and  C_13
REMARK                            x       y       z     vdW  Elec       q    Type
REMARK                         _______ _______ _______ _____ _____    ______ ____
ROOT
ATOM      1  C   UNL     1       3.796   4.830  18.205  0.00  0.00    +0.000 A 
ATOM      2  C   UNL     1       2.475   5.329  18.261  0.00  0.00    +0.000 A 
ATOM      3  C   UNL     1       2.178   6.668  18.007  0.00  0.00    +0.000 A 
ATOM      4  C   UNL     1       3.196   7.549  17.683  0.00  0.00    +0.000 A 
ATOM      5  C   UNL     1       4.510   7.087  17.603  0.00  0.00    +0.000 A 
ATOM      6  C   UNL     1       4.850   5.740  17.851  0.00  0.00    +0.000 A 
ENDROOT
BRANCH   1   8
ATOM      7  C   UNL     1       4.326   3.017  19.815  0.00  0.00    +0.000 C 
ATOM      8  N   UNL     1       4.058   3.453  18.439  0.00  0.00    +0.000 N 
ATOM      9  C   UNL     1       3.105   2.596  17.730  0.00  0.00    +0.000 C 
ENDBRANCH   1   8
BRANCH   6  10
ATOM     10  N   UNL     1       6.186   5.319  17.716  0.00  0.00    +0.000 N 
ATOM     11  C   UNL     1       7.079   5.416  18.866  0.00  0.00    +0.000 C 
BRANCH  10  12
ATOM     12  C   UNL     1       6.439   4.184  16.801  0.00  0.00    +0.000 C 
BRANCH  12  13
ATOM     13  C   UNL     1       6.745   4.490  15.359  0.00  0.00    +0.000 A 
ATOM     14  C   UNL     1       6.185   3.897  14.200  0.00  0.00    +0.000 A 
ATOM     15  C   UNL     1       6.785   4.551  13.158  0.00  0.00    +0.000 A 
ATOM     16  O   UNL     1       7.657   5.468  13.640  0.00  0.00    +0.000 OA
ATOM     17  N   UNL     1       7.643   5.433  15.028  0.00  0.00    +0.000 NA
ENDBRANCH  12  13
ENDBRANCH  10  12
ENDBRANCH   6  10
TORSDOF 4
ENDMDL
MODEL 7
REMARK VINA RESULT:      -6.0      2.055      3.846
REMARK  Name = 
REMARK  7 active torsions:
REMARK  status: ('A' for Active; 'I' for Inactive)
REMARK    1  A    between atoms: C_1  and  N_2
REMARK    2  A    between atoms: N_2  and  C_3
REMARK    3  A    between atoms: N_2  and  C_4
REMARK    4  A    between atoms: C_9  and  N_10
REMARK    5  A    between atoms: N_10  and  C_11
REMARK    6  A    between atoms: N_10  and  C_12
REMARK    7  A    between atoms: C_12  and  C_13
REMARK                            x       y       z     vdW  Elec       q    Type
REMARK                         _______ _______ _______ _____ _____    ______ ____
ROOT
ATOM      1  C   UNL     1       3.802   4.739  17.896  0.00  0.00    +0.000 A 
ATOM      2  C   UNL     1       2.867   5.469  18.663  0.00  0.00    +0.000 A 
ATOM      3  C   UNL     1       2.673   6.840  18.487  0.00  0.00    +0.000 A 
ATOM      4  C   UNL     1       3.406   7.521  17.530  0.00  0.00    +0.000 A 
ATOM      5  C   UNL     1       4.327   6.828  16.743  0.00  0.00    +0.000 A 
ATOM      6  C   UNL     1       4.550   5.442  16.890  0.00  0.00    +0.000 A 
ENDROOT
BRANCH   1   8
ATOM      7  C   UNL     1       4.446   2.854  19.376  0.00  0.00    +0.000 C 
ATOM      8  N   UNL     1       3.952   3.339  18.081  0.00  0.00    +0.000 N 
ATOM      9  C   UNL     1       2.784   2.603  17.589  0.00  0.00    +0.000 C 
ENDBRANCH   1   8
BRANCH   6  10
ATOM     10  N   UNL     1       5.461   4.787  16.042  0.00  0.00    +0.000 N 
ATOM     11  C   UNL     1       5.022   4.380  14.711  0.00  0.00    +0.000 C 
BRANCH  10  12
ATOM     12  C   UNL     1       6.882   5.183  16.155  0.00  0.00    +0.000 C 
BRANCH  12  13
ATOM     13  C   UNL     1       7.435   5.453  17.529  0.00  0.00    +0.000 A 
ATOM     14  C   UNL     1       7.714   6.707  18.129  0.00  0.00    +0.000 A 
ATOM     15  C   UNL     1       8.170   6.392  19.381  0.00  0.00    +0.000 A 
ATOM     16  O   UNL     1       8.182   5.046  19.534  0.00  0.00    +0.000 OA
ATOM     17  N   UNL     1       7.725   4.446  18.368  0.00  0.00    +0.000 NA
ENDBRANCH  12  13
ENDBRANCH  10  12
ENDBRANCH   6  10
TORSDOF 4
ENDMDL
MODEL 8
REMARK VINA RESULT:      -6.0      1.855      3.302
REMARK  Name = 
REMARK  7 active torsions:
REMARK  status: ('A' for Active; 'I' for Inactive)
REMARK    1  A    between atoms: C_1  and  N_2
REMARK    2  A    between atoms: N_2  and  C_3
REMARK    3  A    between atoms: N_2  and  C_4
REMARK    4  A    between atoms: C_9  and  N_10
REMARK    5  A    between atoms: N_10  and  C_11
REMARK    6  A    between atoms: N_10  and  C_12
REMARK    7  A    between atoms: C_12  and  C_13
REMARK                            x       y       z     vdW  Elec       q    Type
REMARK                         _______ _______ _______ _____ _____    ______ ____
ROOT
ATOM      1  C   UNL     1       2.878   3.074  19.242  0.00  0.00    +0.000 A 
ATOM      2  C   UNL     1       2.033   2.256  20.026  0.00  0.00    +0.000 A 
ATOM      3  C   UNL     1       1.417   2.726  21.186  0.00  0.00    +0.000 A 
ATOM      4  C   UNL     1       1.623   4.033  21.594  0.00  0.00    +0.000 A 
ATOM      5  C   UNL     1       2.438   4.873  20.835  0.00  0.00    +0.000 A 
ATOM      6  C   UNL     1       3.077   4.436  19.654  0.00  0.00    +0.000 A 
ENDROOT
BRANCH   1   8
ATOM      7  C   UNL     1       3.939   1.183  18.035  0.00  0.00    +0.000 C 
ATOM      8  N   UNL     1       3.464   2.572  18.049  0.00  0.00    +0.000 N 
ATOM      9  C   UNL     1       2.674   2.931  16.868  0.00  0.00    +0.000 C 
ENDBRANCH   1   8
BRANCH   6  10
ATOM     10  N   UNL     1       3.855   5.337  18.905  0.00  0.00    +0.000 N 
ATOM     11  C   UNL     1       3.280   6.624  18.527  0.00  0.00    +0.000 C 
BRANCH  10  12
ATOM     12  C   UNL     1       5.312   5.337  19.165  0.00  0.00    +0.000 C 
BRANCH  12  13
ATOM     13  C   UNL     1       6.230   4.912  18.050  0.00  0.00    +0.000 A 
ATOM     14  C   UNL     1       5.945   4.831  16.664  0.00  0.00    +0.000 A 
ATOM     15  C   UNL     1       7.121   4.422  16.097  0.00  0.00    +0.000 A 
ATOM     16  O   UNL     1       8.056   4.253  17.062  0.00  0.00    +0.000 OA
ATOM     17  N   UNL     1       7.500   4.555  18.298  0.00  0.00    +0.000 NA
ENDBRANCH  12  13
ENDBRANCH  10  12
ENDBRANCH   6  10
TORSDOF 4
ENDMDL
MODEL 9
REMARK VINA RESULT:      -6.0      2.413      5.066
REMARK  Name = 
REMARK  7 active torsions:
REMARK  status: ('A' for Active; 'I' for Inactive)
REMARK    1  A    between atoms: C_1  and  N_2
REMARK    2  A    between atoms: N_2  and  C_3
REMARK    3  A    between atoms: N_2  and  C_4
REMARK    4  A    between atoms: C_9  and  N_10
REMARK    5  A    between atoms: N_10  and  C_11
REMARK    6  A    between atoms: N_10  and  C_12
REMARK    7  A    between atoms: C_12  and  C_13
REMARK                            x       y       z     vdW  Elec       q    Type
REMARK                         _______ _______ _______ _____ _____    ______ ____
ROOT
ATOM      1  C   UNL     1       6.574   5.770  17.240  0.00  0.00    +0.000 A 
ATOM      2  C   UNL     1       7.334   5.248  16.169  0.00  0.00    +0.000 A 
ATOM      3  C   UNL     1       6.750   4.519  15.133  0.00  0.00    +0.000 A 
ATOM      4  C   UNL     1       5.383   4.298  15.133  0.00  0.00    +0.000 A 
ATOM      5  C   UNL     1       4.600   4.813  16.166  0.00  0.00    +0.000 A 
ATOM      6  C   UNL     1       5.153   5.556  17.231  0.00  0.00    +0.000 A 
ENDROOT
BRANCH   1   8
ATOM      7  C   UNL     1       8.011   5.830  19.263  0.00  0.00    +0.000 C 
ATOM      8  N   UNL     1       7.198   6.534  18.263  0.00  0.00    +0.000 N 
ATOM      9  C   UNL     1       7.846   7.732  17.722  0.00  0.00    +0.000 C 
ENDBRANCH   1   8
BRANCH   6  10
ATOM     10  N   UNL     1       4.311   6.088  18.224  0.00  0.00    +0.000 N 
ATOM     11  C   UNL     1       3.145   6.868  17.822  0.00  0.00    +0.000 C 
BRANCH  10  12
ATOM     12  C   UNL     1       4.154   5.292  19.462  0.00  0.00    +0.000 C 
BRANCH  12  13
ATOM     13  C   UNL     1       3.840   3.825  19.326  0.00  0.00    +0.000 A 
ATOM     14  C   UNL     1       2.645   3.226  18.855  0.00  0.00    +0.000 A 
ATOM     15  C   UNL     1       2.893   1.881  18.910  0.00  0.00    +0.000 A 
ATOM     16  O   UNL     1       4.142   1.669  19.390  0.00  0.00    +0.000 OA
ATOM     17  N   UNL     1       4.745   2.890  19.660  0.00  0.00    +0.000 NA
ENDBRANCH  12  13
ENDBRANCH  10  12
ENDBRANCH   6  10
TORSDOF 4
ENDMDL
