MODEL 1
REMARK VINA RESULT:      -8.0      0.000      0.000
REMARK  Name = 
REMARK  6 active torsions:
REMARK  status: ('A' for Active; 'I' for Inactive)
REMARK    1  A    between atoms: C_2  and  C_3
REMARK    2  A    between atoms: C_3  and  C_4
REMARK    3  A    between atoms: C_4  and  C_5
REMARK    4  A    between atoms: C_9  and  C_10
REMARK    5  A    between atoms: N_17  and  C_18
REMARK    6  A    between atoms: C_18  and  C_19
REMARK                            x       y       z     vdW  Elec       q    Type
REMARK                         _______ _______ _______ _____ _____    ______ ____
ROOT
ATOM      1  C   UNL     1       6.145   7.351  17.241  0.00  0.00    +0.000 C 
ENDROOT
BRANCH   1   2
ATOM      2  C   UNL     1       6.976   6.177  17.639  0.00  0.00    +0.000 A 
ATOM      3  C   UNL     1       7.606   5.949  18.841  0.00  0.00    +0.000 A 
ATOM      4  O   UNL     1       8.251   4.766  18.810  0.00  0.00    +0.000 OA
ATOM      5  N   UNL     1       8.071   4.177  17.582  0.00  0.00    +0.000 NA
ATOM      6  C   UNL     1       7.325   5.022  16.849  0.00  0.00    +0.000 A 
BRANCH   6   7
ATOM      7  C   UNL     1       6.993   4.714  15.453  0.00  0.00    +0.000 A 
ATOM      8  C   UNL     1       7.748   5.232  14.387  0.00  0.00    +0.000 A 
ATOM      9  C   UNL     1       7.473   4.879  13.062  0.00  0.00    +0.000 A 
ATOM     10  C   UNL     1       6.411   4.027  12.772  0.00  0.00    +0.000 A 
ATOM     11  C   UNL     1       5.625   3.534  13.809  0.00  0.00    +0.000 A 
ATOM     12  C   UNL     1       5.918   3.871  15.133  0.00  0.00    +0.000 A 
ATOM     13  F   UNL     1       5.145   3.335  16.089  0.00  0.00    +0.000 F 
ENDBRANCH   6   7
ENDBRANCH   1   2
BRANCH   1  14
ATOM     14  C   UNL     1       4.775   7.027  16.657  0.00  0.00    +0.000 C 
BRANCH  14  16
ATOM     15  O   UNL     1       2.976   7.802  18.069  0.00  0.00    +0.000 OA
ATOM     16  C   UNL     1       3.759   6.906  17.774  0.00  0.00    +0.000 C 
ATOM     17  N   UNL     1       3.786   5.684  18.405  0.00  0.00    +0.000 N 
ATOM     18  H   UNL     1       4.414   4.963  18.070  0.00  0.00    +0.000 HD
BRANCH  17  19
ATOM     19  C   UNL     1       2.883   5.354  19.487  0.00  0.00    +0.000 C 
BRANCH  19  20
ATOM     20  C   UNL     1       3.111   3.932  20.033  0.00  0.00    +0.000 C 
ATOM     21  C   UNL     1       1.928   3.419  20.873  0.00  0.00    +0.000 C 
ATOM     22  C   UNL     1       0.676   3.180  20.032  0.00  0.00    +0.000 C 
ATOM     23  C   UNL     1       0.954   2.239  18.863  0.00  0.00    +0.000 C 
ATOM     24  C   UNL     1       2.154   2.676  18.026  0.00  0.00    +0.000 C 
ATOM     25  C   UNL     1       3.389   2.944  18.887  0.00  0.00    +0.000 C 
ENDBRANCH  19  20
ENDBRANCH  17  19
ENDBRANCH  14  16
ENDBRANCH   1  14
TORSDOF 6
ENDMDL
MODEL 2
REMARK VINA RESULT:      -7.9      0.991      1.697
REMARK  Name = 
REMARK  6 active torsions:
REMARK  status: ('A' for Active; 'I' for Inactive)
REMARK    1  A    between atoms: C_2  and  C_3
REMARK    2  A    between atoms: C_3  and  C_4
REMARK    3  A    between atoms: C_4  and  C_5
REMARK    4  A    between atoms: C_9  and  C_10
REMARK    5  A    between atoms: N_17  and  C_18
REMARK    6  A    between atoms: C_18  and  C_19
REMARK                            x       y       z     vdW  Elec       q    Type
REMARK                         _______ _______ _______ _____ _____    ______ ____
ROOT
ATOM      1  C   UNL     1       4.859   6.429  16.523  0.00  0.00    +0.000 C 
ENDROOT
BRANCH   1   2
ATOM      2  C   UNL     1       6.063   5.654  16.947  0.00  0.00    +0.000 A 
ATOM      3  C   UNL     1       6.581   5.512  18.213  0.00  0.00    +0.000 A 
ATOM      4  O   UNL     1       7.673   4.723  18.183  0.00  0.00    +0.000 OA
ATOM      5  N   UNL     1       7.913   4.322  16.891  0.00  0.00    +0.000 NA
ATOM      6  C   UNL     1       6.968   4.892  16.123  0.00  0.00    +0.000 A 
BRANCH   6   7
ATOM      7  C   UNL     1       6.972   4.707  14.666  0.00  0.00    +0.000 A 
ATOM      8  C   UNL     1       7.793   5.483  13.830  0.00  0.00    +0.000 A 
ATOM      9  C   UNL     1       7.846   5.256  12.451  0.00  0.00    +0.000 A 
ATOM     10  C   UNL     1       7.050   4.271  11.874  0.00  0.00    +0.000 A 
ATOM     11  C   UNL     1       6.199   3.518  12.678  0.00  0.00    +0.000 A 
ATOM     12  C   UNL     1       6.167   3.733  14.058  0.00  0.00    +0.000 A 
ATOM     13  F   UNL     1       5.352   2.951  14.782  0.00  0.00    +0.000 F 
ENDBRANCH   6   7
ENDBRANCH   1   2
BRANCH   1  14
ATOM     14  C   UNL     1       4.234   7.320  17.590  0.00  0.00    +0.000 C 
BRANCH  14  16
ATOM     15  O   UNL     1       2.363   7.111  19.100  0.00  0.00    +0.000 OA
ATOM     16  C   UNL     1       3.024   6.632  18.186  0.00  0.00    +0.000 C 
ATOM     17  N   UNL     1       2.727   5.432  17.582  0.00  0.00    +0.000 N 
ATOM     18  H   UNL     1       3.275   5.123  16.789  0.00  0.00    +0.000 HD
BRANCH  17  19
ATOM     19  C   UNL     1       1.596   4.623  17.988  0.00  0.00    +0.000 C 
BRANCH  19  20
ATOM     20  C   UNL     1       1.946   3.127  18.086  0.00  0.00    +0.000 C 
ATOM     21  C   UNL     1       3.397   2.882  18.535  0.00  0.00    +0.000 C 
ATOM     22  C   UNL     1       3.638   3.304  19.983  0.00  0.00    +0.000 C 
ATOM     23  C   UNL     1       2.657   2.628  20.937  0.00  0.00    +0.000 C 
ATOM     24  C   UNL     1       1.202   2.797  20.506  0.00  0.00    +0.000 C 
ATOM     25  C   UNL     1       0.986   2.402  19.045  0.00  0.00    +0.000 C 
ENDBRANCH  19  20
ENDBRANCH  17  19
ENDBRANCH  14  16
ENDBRANCH   1  14
TORSDOF 6
ENDMDL
MODEL 3
REMARK VINA RESULT:      -7.8      3.846      7.791
REMARK  Name = 
REMARK  6 active torsions:
REMARK  status: ('A' for Active; 'I' for Inactive)
REMARK    1  A    between atoms: C_2  and  C_3
REMARK    2  A    between atoms: C_3  and  C_4
REMARK    3  A    between atoms: C_4  and  C_5
REMARK    4  A    between atoms: C_9  and  C_10
REMARK    5  A    between atoms: N_17  and  C_18
REMARK    6  A    between atoms: C_18  and  C_19
REMARK                            x       y       z     vdW  Elec       q    Type
REMARK                         _______ _______ _______ _____ _____    ______ ____
ROOT
ATOM      1  C   UNL     1       6.748   5.714  19.009  0.00  0.00    +0.000 C 
ENDROOT
BRANCH   1   2
ATOM      2  C   UNL     1       6.072   4.856  17.991  0.00  0.00    +0.000 A 
ATOM      3  C   UNL     1       6.470   4.595  16.700  0.00  0.00    +0.000 A 
ATOM      4  O   UNL     1       5.593   3.763  16.104  0.00  0.00    +0.000 OA
ATOM      5  N   UNL     1       4.584   3.452  16.983  0.00  0.00    +0.000 NA
ATOM      6  C   UNL     1       4.840   4.121  18.122  0.00  0.00    +0.000 A 
BRANCH   6   7
ATOM      7  C   UNL     1       3.913   4.048  19.258  0.00  0.00    +0.000 A 
ATOM      8  C   UNL     1       3.089   5.133  19.604  0.00  0.00    +0.000 A 
ATOM      9  C   UNL     1       2.157   5.035  20.643  0.00  0.00    +0.000 A 
ATOM     10  C   UNL     1       2.057   3.862  21.383  0.00  0.00    +0.000 A 
ATOM     11  C   UNL     1       2.892   2.789  21.085  0.00  0.00    +0.000 A 
ATOM     12  C   UNL     1       3.804   2.883  20.031  0.00  0.00    +0.000 A 
ATOM     13  F   UNL     1       4.556   1.802  19.771  0.00  0.00    +0.000 F 
ENDBRANCH   6   7
ENDBRANCH   1   2
BRANCH   1  14
ATOM     14  C   UNL     1       8.123   6.246  18.621  0.00  0.00    +0.000 C 
BRANCH  14  16
ATOM     15  O   UNL     1       7.299   7.988  17.167  0.00  0.00    +0.000 OA
ATOM     16  C   UNL     1       7.998   7.671  18.122  0.00  0.00    +0.000 C 
ATOM     17  N   UNL     1       8.726   8.573  18.863  0.00  0.00    +0.000 N 
ATOM     18  H   UNL     1       9.232   8.255  19.680  0.00  0.00    +0.000 HD
BRANCH  17  19
ATOM     19  C   UNL     1       8.729   9.990  18.566  0.00  0.00    +0.000 C 
BRANCH  19  20
ATOM     20  C   UNL     1      10.085  10.654  18.872  0.00  0.00    +0.000 C 
ATOM     21  C   UNL     1      10.557  11.592  17.747  0.00  0.00    +0.000 C 
ATOM     22  C   UNL     1       9.680  12.835  17.619  0.00  0.00    +0.000 C 
ATOM     23  C   UNL     1       9.574  13.590  18.941  0.00  0.00    +0.000 C 
ATOM     24  C   UNL     1       9.159  12.690  20.103  0.00  0.00    +0.000 C 
ATOM     25  C   UNL     1      10.027  11.435  20.196  0.00  0.00    +0.000 C 
ENDBRANCH  19  20
ENDBRANCH  17  19
ENDBRANCH  14  16
ENDBRANCH   1  14
TORSDOF 6
ENDMDL
MODEL 4
REMARK VINA RESULT:      -7.8      4.078      5.845
REMARK  Name = 
REMARK  6 active torsions:
REMARK  status: ('A' for Active; 'I' for Inactive)
REMARK    1  A    between atoms: C_2  and  C_3
REMARK    2  A    between atoms: C_3  and  C_4
REMARK    3  A    between atoms: C_4  and  C_5
REMARK    4  A    between atoms: C_9  and  C_10
REMARK    5  A    between atoms: N_17  and  C_18
REMARK    6  A    between atoms: C_18  and  C_19
REMARK                            x       y       z     vdW  Elec       q    Type
REMARK                         _______ _______ _______ _____ _____    ______ ____
ROOT
ATOM      1  C   UNL     1       2.388   7.106  18.643  0.00  0.00    +0.000 C 
ENDROOT
BRANCH   1   2
ATOM      2  C   UNL     1       2.674   5.726  18.150  0.00  0.00    +0.000 A 
ATOM      3  C   UNL     1       1.776   4.730  17.843  0.00  0.00    +0.000 A 
ATOM      4  O   UNL     1       2.430   3.630  17.421  0.00  0.00    +0.000 OA
ATOM      5  N   UNL     1       3.783   3.864  17.441  0.00  0.00    +0.000 NA
ATOM      6  C   UNL     1       3.955   5.116  17.901  0.00  0.00    +0.000 A 
BRANCH   6   7
ATOM      7  C   UNL     1       5.303   5.664  18.098  0.00  0.00    +0.000 A 
ATOM      8  C   UNL     1       6.097   5.287  19.195  0.00  0.00    +0.000 A 
ATOM      9  C   UNL     1       7.406   5.757  19.340  0.00  0.00    +0.000 A 
ATOM     10  C   UNL     1       7.937   6.645  18.410  0.00  0.00    +0.000 A 
ATOM     11  C   UNL     1       7.154   7.065  17.338  0.00  0.00    +0.000 A 
ATOM     12  C   UNL     1       5.855   6.574  17.184  0.00  0.00    +0.000 A 
ATOM     13  F   UNL     1       5.165   6.989  16.111  0.00  0.00    +0.000 F 
ENDBRANCH   6   7
ENDBRANCH   1   2
BRANCH   1  14
ATOM     14  C   UNL     1       2.455   8.212  17.597  0.00  0.00    +0.000 C 
BRANCH  14  16
ATOM     15  O   UNL     1       2.253  10.605  17.838  0.00  0.00    +0.000 OA
ATOM     16  C   UNL     1       1.868   9.488  18.162  0.00  0.00    +0.000 C 
ATOM     17  N   UNL     1       0.844   9.268  19.054  0.00  0.00    +0.000 N 
ATOM     18  H   UNL     1       0.530   8.322  19.230  0.00  0.00    +0.000 HD
BRANCH  17  19
ATOM     19  C   UNL     1       0.132  10.354  19.695  0.00  0.00    +0.000 C 
BRANCH  19  20
ATOM     20  C   UNL     1       0.839  10.852  20.969  0.00  0.00    +0.000 C 
ATOM     21  C   UNL     1       0.082  11.998  21.662  0.00  0.00    +0.000 C 
ATOM     22  C   UNL     1      -1.247  11.542  22.260  0.00  0.00    +0.000 C 
ATOM     23  C   UNL     1      -1.061  10.366  23.214  0.00  0.00    +0.000 C 
ATOM     24  C   UNL     1      -0.268   9.219  22.591  0.00  0.00    +0.000 C 
ATOM     25  C   UNL     1       1.043   9.699  21.968  0.00  0.00    +0.000 C 
ENDBRANCH  19  20
ENDBRANCH  17  19
ENDBRANCH  14  16
ENDBRANCH   1  14
TORSDOF 6
ENDMDL
MODEL 5
REMARK VINA RESULT:      -7.8      1.960      3.595
REMARK  Name = 
REMARK  6 active torsions:
REMARK  status: ('A' for Active; 'I' for Inactive)
REMARK    1  A    between atoms: C_2  and  C_3
REMARK    2  A    between atoms: C_3  and  C_4
REMARK    3  A    between atoms: C_4  and  C_5
REMARK    4  A    between atoms: C_9  and  C_10
REMARK    5  A    between atoms: N_17  and  C_18
REMARK    6  A    between atoms: C_18  and  C_19
REMARK                            x       y       z     vdW  Elec       q    Type
REMARK                         _______ _______ _______ _____ _____    ______ ____
ROOT
ATOM      1  C   UNL     1       4.422   4.453  16.646  0.00  0.00    +0.000 C 
ENDROOT
BRANCH   1   2
ATOM      2  C   UNL     1       5.475   4.616  15.601  0.00  0.00    +0.000 A 
ATOM      3  C   UNL     1       5.493   4.104  14.324  0.00  0.00    +0.000 A 
ATOM      4  O   UNL     1       6.617   4.487  13.686  0.00  0.00    +0.000 OA
ATOM      5  N   UNL     1       7.380   5.261  14.525  0.00  0.00    +0.000 NA
ATOM      6  C   UNL     1       6.722   5.333  15.696  0.00  0.00    +0.000 A 
BRANCH   6   7
ATOM      7  C   UNL     1       7.301   6.050  16.839  0.00  0.00    +0.000 A 
ATOM      8  C   UNL     1       7.523   7.437  16.799  0.00  0.00    +0.000 A 
ATOM      9  C   UNL     1       8.008   8.128  17.914  0.00  0.00    +0.000 A 
ATOM     10  C   UNL     1       8.315   7.439  19.084  0.00  0.00    +0.000 A 
ATOM     11  C   UNL     1       8.141   6.059  19.132  0.00  0.00    +0.000 A 
ATOM     12  C   UNL     1       7.635   5.377  18.023  0.00  0.00    +0.000 A 
ATOM     13  F   UNL     1       7.456   4.053  18.146  0.00  0.00    +0.000 F 
ENDBRANCH   6   7
ENDBRANCH   1   2
BRANCH   1  14
ATOM     14  C   UNL     1       3.886   5.742  17.256  0.00  0.00    +0.000 C 
BRANCH  14  16
ATOM     15  O   UNL     1       4.618   5.542  19.548  0.00  0.00    +0.000 OA
ATOM     16  C   UNL     1       3.690   5.561  18.747  0.00  0.00    +0.000 C 
ATOM     17  N   UNL     1       2.369   5.446  19.112  0.00  0.00    +0.000 N 
ATOM     18  H   UNL     1       1.647   5.534  18.409  0.00  0.00    +0.000 HD
BRANCH  17  19
ATOM     19  C   UNL     1       1.962   5.285  20.493  0.00  0.00    +0.000 C 
BRANCH  19  20
ATOM     20  C   UNL     1       1.233   3.952  20.742  0.00  0.00    +0.000 C 
ATOM     21  C   UNL     1       0.699   3.314  19.447  0.00  0.00    +0.000 C 
ATOM     22  C   UNL     1       1.820   2.833  18.529  0.00  0.00    +0.000 C 
ATOM     23  C   UNL     1       2.768   1.878  19.249  0.00  0.00    +0.000 C 
ATOM     24  C   UNL     1       3.286   2.444  20.569  0.00  0.00    +0.000 C 
ATOM     25  C   UNL     1       2.153   2.951  21.462  0.00  0.00    +0.000 C 
ENDBRANCH  19  20
ENDBRANCH  17  19
ENDBRANCH  14  16
ENDBRANCH   1  14
TORSDOF 6
ENDMDL
MODEL 6
REMARK VINA RESULT:      -7.7      1.358      2.163
REMARK  Name = 
REMARK  6 active torsions:
REMARK  status: ('A' for Active; 'I' for Inactive)
REMARK    1  A    between atoms: C_2  and  C_3
REMARK    2  A    between atoms: C_3  and  C_4
REMARK    3  A    between atoms: C_4  and  C_5
REMARK    4  A    between atoms: C_9  and  C_10
REMARK    5  A    between atoms: N_17  and  C_18
REMARK    6  A    between atoms: C_18  and  C_19
REMARK                            x       y       z     vdW  Elec       q    Type
REMARK                         _______ _______ _______ _____ _____    ______ ____
ROOT
ATOM      1  C   UNL     1       4.989   6.595  16.365  0.00  0.00    +0.000 C 
ENDROOT
BRANCH   1   2
ATOM      2  C   UNL     1       6.192   5.787  16.726  0.00  0.00    +0.000 A 
ATOM      3  C   UNL     1       6.890   5.786  17.912  0.00  0.00    +0.000 A 
ATOM      4  O   UNL     1       7.911   4.909  17.848  0.00  0.00    +0.000 OA
ATOM      5  N   UNL     1       7.923   4.307  16.613  0.00  0.00    +0.000 NA
ATOM      6  C   UNL     1       6.908   4.840  15.910  0.00  0.00    +0.000 A 
BRANCH   6   7
ATOM      7  C   UNL     1       6.674   4.447  14.514  0.00  0.00    +0.000 A 
ATOM      8  C   UNL     1       5.597   3.619  14.155  0.00  0.00    +0.000 A 
ATOM      9  C   UNL     1       5.337   3.305  12.817  0.00  0.00    +0.000 A 
ATOM     10  C   UNL     1       6.172   3.785  11.812  0.00  0.00    +0.000 A 
ATOM     11  C   UNL     1       7.267   4.573  12.149  0.00  0.00    +0.000 A 
ATOM     12  C   UNL     1       7.510   4.903  13.484  0.00  0.00    +0.000 A 
ATOM     13  F   UNL     1       8.561   5.696  13.740  0.00  0.00    +0.000 F 
ENDBRANCH   6   7
ENDBRANCH   1   2
BRANCH   1  14
ATOM     14  C   UNL     1       4.337   7.363  17.508  0.00  0.00    +0.000 C 
BRANCH  14  16
ATOM     15  O   UNL     1       1.989   7.486  18.055  0.00  0.00    +0.000 OA
ATOM     16  C   UNL     1       2.963   6.791  17.791  0.00  0.00    +0.000 C 
ATOM     17  N   UNL     1       2.914   5.419  17.697  0.00  0.00    +0.000 N 
ATOM     18  H   UNL     1       3.740   4.909  17.411  0.00  0.00    +0.000 HD
BRANCH  17  19
ATOM     19  C   UNL     1       1.691   4.675  17.910  0.00  0.00    +0.000 C 
BRANCH  19  20
ATOM     20  C   UNL     1       1.938   3.161  18.049  0.00  0.00    +0.000 C 
ATOM     21  C   UNL     1       3.366   2.831  18.518  0.00  0.00    +0.000 C 
ATOM     22  C   UNL     1       3.623   3.272  19.957  0.00  0.00    +0.000 C 
ATOM     23  C   UNL     1       2.591   2.688  20.918  0.00  0.00    +0.000 C 
ATOM     24  C   UNL     1       1.155   2.943  20.469  0.00  0.00    +0.000 C 
ATOM     25  C   UNL     1       0.924   2.526  19.015  0.00  0.00    +0.000 C 
ENDBRANCH  19  20
ENDBRANCH  17  19
ENDBRANCH  14  16
ENDBRANCH   1  14
TORSDOF 6
ENDMDL
MODEL 7
REMARK VINA RESULT:      -7.6      4.831      6.994
REMARK  Name = 
REMARK  6 active torsions:
REMARK  status: ('A' for Active; 'I' for Inactive)
REMARK    1  A    between atoms: C_2  and  C_3
REMARK    2  A    between atoms: C_3  and  C_4
REMARK    3  A    between atoms: C_4  and  C_5
REMARK    4  A    between atoms: C_9  and  C_10
REMARK    5  A    between atoms: N_17  and  C_18
REMARK    6  A    between atoms: C_18  and  C_19
REMARK                            x       y       z     vdW  Elec       q    Type
REMARK                         _______ _______ _______ _____ _____    ______ ____
ROOT
ATOM      1  C   UNL     1       2.644   7.843  18.654  0.00  0.00    +0.000 C 
ENDROOT
BRANCH   1   2
ATOM      2  C   UNL     1       3.438   6.818  17.913  0.00  0.00    +0.000 A 
ATOM      3  C   UNL     1       4.323   7.013  16.878  0.00  0.00    +0.000 A 
ATOM      4  O   UNL     1       4.845   5.833  16.486  0.00  0.00    +0.000 OA
ATOM      5  N   UNL     1       4.316   4.821  17.248  0.00  0.00    +0.000 NA
ATOM      6  C   UNL     1       3.445   5.389  18.101  0.00  0.00    +0.000 A 
BRANCH   6   7
ATOM      7  C   UNL     1       2.659   4.566  19.029  0.00  0.00    +0.000 A 
ATOM      8  C   UNL     1       3.056   4.384  20.365  0.00  0.00    +0.000 A 
ATOM      9  C   UNL     1       2.268   3.659  21.265  0.00  0.00    +0.000 A 
ATOM     10  C   UNL     1       1.083   3.068  20.837  0.00  0.00    +0.000 A 
ATOM     11  C   UNL     1       0.691   3.202  19.508  0.00  0.00    +0.000 A 
ATOM     12  C   UNL     1       1.469   3.947  18.619  0.00  0.00    +0.000 A 
ATOM     13  F   UNL     1       1.020   4.067  17.361  0.00  0.00    +0.000 F 
ENDBRANCH   6   7
ENDBRANCH   1   2
BRANCH   1  14
ATOM     14  C   UNL     1       2.044   8.957  17.806  0.00  0.00    +0.000 C 
BRANCH  14  16
ATOM     15  O   UNL     1       0.583   9.404  19.675  0.00  0.00    +0.000 OA
ATOM     16  C   UNL     1       0.790   9.487  18.470  0.00  0.00    +0.000 C 
ATOM     17  N   UNL     1      -0.078  10.092  17.591  0.00  0.00    +0.000 N 
ATOM     18  H   UNL     1       0.182  10.185  16.617  0.00  0.00    +0.000 HD
BRANCH  17  19
ATOM     19  C   UNL     1      -1.327  10.683  18.024  0.00  0.00    +0.000 C 
BRANCH  19  20
ATOM     20  C   UNL     1      -2.545   9.802  17.690  0.00  0.00    +0.000 C 
ATOM     21  C   UNL     1      -3.877  10.432  18.133  0.00  0.00    +0.000 C 
ATOM     22  C   UNL     1      -4.227  11.680  17.327  0.00  0.00    +0.000 C 
ATOM     23  C   UNL     1      -4.237  11.398  15.827  0.00  0.00    +0.000 C 
ATOM     24  C   UNL     1      -2.955  10.723  15.344  0.00  0.00    +0.000 C 
ATOM     25  C   UNL     1      -2.602   9.495  16.184  0.00  0.00    +0.000 C 
ENDBRANCH  19  20
ENDBRANCH  17  19
ENDBRANCH  14  16
ENDBRANCH   1  14
TORSDOF 6
ENDMDL
MODEL 8
REMARK VINA RESULT:      -7.6      4.073      7.542
REMARK  Name = 
REMARK  6 active torsions:
REMARK  status: ('A' for Active; 'I' for Inactive)
REMARK    1  A    between atoms: C_2  and  C_3
REMARK    2  A    between atoms: C_3  and  C_4
REMARK    3  A    between atoms: C_4  and  C_5
REMARK    4  A    between atoms: C_9  and  C_10
REMARK    5  A    between atoms: N_17  and  C_18
REMARK    6  A    between atoms: C_18  and  C_19
REMARK                            x       y       z     vdW  Elec       q    Type
REMARK                         _______ _______ _______ _____ _____    ______ ____
ROOT
ATOM      1  C   UNL     1       7.389   5.787  16.973  0.00  0.00    +0.000 C 
ENDROOT
BRANCH   1   2
ATOM      2  C   UNL     1       6.688   5.126  15.832  0.00  0.00    +0.000 A 
ATOM      3  C   UNL     1       7.142   4.943  14.546  0.00  0.00    +0.000 A 
ATOM      4  O   UNL     1       6.215   4.291  13.816  0.00  0.00    +0.000 OA
ATOM      5  N   UNL     1       5.116   4.029  14.596  0.00  0.00    +0.000 NA
ATOM      6  C   UNL     1       5.369   4.546  15.812  0.00  0.00    +0.000 A 
BRANCH   6   7
ATOM      7  C   UNL     1       4.361   4.483  16.878  0.00  0.00    +0.000 A 
ATOM      8  C   UNL     1       3.979   3.260  17.456  0.00  0.00    +0.000 A 
ATOM      9  C   UNL     1       3.071   3.211  18.519  0.00  0.00    +0.000 A 
ATOM     10  C   UNL     1       2.499   4.384  19.003  0.00  0.00    +0.000 A 
ATOM     11  C   UNL     1       2.832   5.602  18.419  0.00  0.00    +0.000 A 
ATOM     12  C   UNL     1       3.757   5.648  17.373  0.00  0.00    +0.000 A 
ATOM     13  F   UNL     1       4.063   6.856  16.877  0.00  0.00    +0.000 F 
ENDBRANCH   6   7
ENDBRANCH   1   2
BRANCH   1  14
ATOM     14  C   UNL     1       7.153   7.285  17.118  0.00  0.00    +0.000 C 
BRANCH  14  16
ATOM     15  O   UNL     1       8.518   7.155  19.105  0.00  0.00    +0.000 OA
ATOM     16  C   UNL     1       8.050   7.842  18.204  0.00  0.00    +0.000 C 
ATOM     17  N   UNL     1       8.305   9.186  18.064  0.00  0.00    +0.000 N 
ATOM     18  H   UNL     1       7.940   9.683  17.260  0.00  0.00    +0.000 HD
BRANCH  17  19
ATOM     19  C   UNL     1       9.157   9.910  18.984  0.00  0.00    +0.000 C 
BRANCH  19  20
ATOM     20  C   UNL     1       9.307  11.395  18.605  0.00  0.00    +0.000 C 
ATOM     21  C   UNL     1       9.310  12.326  19.830  0.00  0.00    +0.000 C 
ATOM     22  C   UNL     1      10.556  12.149  20.694  0.00  0.00    +0.000 C 
ATOM     23  C   UNL     1      11.836  12.324  19.881  0.00  0.00    +0.000 C 
ATOM     24  C   UNL     1      11.860  11.458  18.624  0.00  0.00    +0.000 C 
ATOM     25  C   UNL     1      10.590  11.624  17.787  0.00  0.00    +0.000 C 
ENDBRANCH  19  20
ENDBRANCH  17  19
ENDBRANCH  14  16
ENDBRANCH   1  14
TORSDOF 6
ENDMDL
MODEL 9
REMARK VINA RESULT:      -7.5      3.968      6.306
REMARK  Name = 
REMARK  6 active torsions:
REMARK  status: ('A' for Active; 'I' for Inactive)
REMARK    1  A    between atoms: C_2  and  C_3
REMARK    2  A    between atoms: C_3  and  C_4
REMARK    3  A    between atoms: C_4  and  C_5
REMARK    4  A    between atoms: C_9  and  C_10
REMARK    5  A    between atoms: N_17  and  C_18
REMARK    6  A    between atoms: C_18  and  C_19
REMARK                            x       y       z     vdW  Elec       q    Type
REMARK                         _______ _______ _______ _____ _____    ______ ____
ROOT
ATOM      1  C   UNL     1       3.875   6.811  17.602  0.00  0.00    +0.000 C 
ENDROOT
BRANCH   1   2
ATOM      2  C   UNL     1       4.829   5.815  18.174  0.00  0.00    +0.000 A 
ATOM      3  C   UNL     1       6.204   5.833  18.130  0.00  0.00    +0.000 A 
ATOM      4  O   UNL     1       6.702   4.758  18.773  0.00  0.00    +0.000 OA
ATOM      5  N   UNL     1       5.669   3.993  19.258  0.00  0.00    +0.000 NA
ATOM      6  C   UNL     1       4.527   4.599  18.886  0.00  0.00    +0.000 A 
BRANCH   6   7
ATOM      7  C   UNL     1       3.223   4.002  19.203  0.00  0.00    +0.000 A 
ATOM      8  C   UNL     1       2.685   4.059  20.500  0.00  0.00    +0.000 A 
ATOM      9  C   UNL     1       1.413   3.552  20.781  0.00  0.00    +0.000 A 
ATOM     10  C   UNL     1       0.665   2.944  19.777  0.00  0.00    +0.000 A 
ATOM     11  C   UNL     1       1.195   2.841  18.494  0.00  0.00    +0.000 A 
ATOM     12  C   UNL     1       2.457   3.369  18.212  0.00  0.00    +0.000 A 
ATOM     13  F   UNL     1       2.897   3.269  16.949  0.00  0.00    +0.000 F 
ENDBRANCH   6   7
ENDBRANCH   1   2
BRANCH   1  14
ATOM     14  C   UNL     1       2.555   6.971  18.347  0.00  0.00    +0.000 C 
BRANCH  14  16
ATOM     15  O   UNL     1       2.225   9.107  17.273  0.00  0.00    +0.000 OA
ATOM     16  C   UNL     1       2.098   8.413  18.275  0.00  0.00    +0.000 C 
ATOM     17  N   UNL     1       1.504   8.855  19.434  0.00  0.00    +0.000 N 
ATOM     18  H   UNL     1       1.371   8.211  20.204  0.00  0.00    +0.000 HD
BRANCH  17  19
ATOM     19  C   UNL     1       0.977  10.197  19.568  0.00  0.00    +0.000 C 
BRANCH  19  20
ATOM     20  C   UNL     1      -0.518  10.211  19.935  0.00  0.00    +0.000 C 
ATOM     21  C   UNL     1      -0.837  11.159  21.104  0.00  0.00    +0.000 C 
ATOM     22  C   UNL     1      -0.645  12.627  20.732  0.00  0.00    +0.000 C 
ATOM     23  C   UNL     1      -1.454  13.006  19.494  0.00  0.00    +0.000 C 
ATOM     24  C   UNL     1      -1.213  12.062  18.319  0.00  0.00    +0.000 C 
ATOM     25  C   UNL     1      -1.377  10.594  18.718  0.00  0.00    +0.000 C 
ENDBRANCH  19  20
ENDBRANCH  17  19
ENDBRANCH  14  16
ENDBRANCH   1  14
TORSDOF 6
ENDMDL
