MODEL 1
REMARK VINA RESULT:      -7.6      0.000      0.000
REMARK  Name = 
REMARK  5 active torsions:
REMARK  status: ('A' for Active; 'I' for Inactive)
REMARK    1  A    between atoms: C_1  and  C_2
REMARK    2  A    between atoms: C_5  and  C_6
REMARK    3  A    between atoms: C_6  and  N_7
REMARK    4  A    between atoms: N_10  and  C_11
REMARK    5  A    between atoms: C_11  and  C_12
REMARK                            x       y       z     vdW  Elec       q    Type
REMARK                         _______ _______ _______ _____ _____    ______ ____
ROOT
ATOM      1  N   UNL     1       6.500   5.152  17.829  0.00  0.00    +0.000 N 
ATOM      2  C   UNL     1       5.440   5.162  18.721  0.00  0.00    +0.000 A 
ATOM      3  O   UNL     1       5.578   5.542  19.887  0.00  0.00    +0.000 OA
ATOM      4  N   UNL     1       4.212   4.721  18.243  0.00  0.00    +0.000 N 
ATOM      5  C   UNL     1       4.006   4.204  16.973  0.00  0.00    +0.000 A 
ATOM      6  O   UNL     1       2.957   3.688  16.594  0.00  0.00    +0.000 OA
ATOM      7  C   UNL     1       5.129   4.290  16.037  0.00  0.00    +0.000 A 
ATOM      8  C   UNL     1       4.978   3.914  14.698  0.00  0.00    +0.000 A 
ATOM      9  C   UNL     1       6.051   4.054  13.828  0.00  0.00    +0.000 A 
ATOM     10  C   UNL     1       7.234   4.554  14.339  0.00  0.00    +0.000 A 
ATOM     11  N   UNL     1       7.403   4.902  15.635  0.00  0.00    +0.000 NA
ATOM     12  C   UNL     1       6.348   4.770  16.481  0.00  0.00    +0.000 A 
ENDROOT
BRANCH   1  13
ATOM     13  C   UNL     1       7.806   5.625  18.279  0.00  0.00    +0.000 C 
BRANCH  13  18
ATOM     14  C   UNL     1       8.715  11.386  18.076  0.00  0.00    +0.000 C 
ATOM     15  C   UNL     1       8.413   9.921  18.194  0.00  0.00    +0.000 A 
ATOM     16  C   UNL     1       9.003   9.140  19.192  0.00  0.00    +0.000 A 
ATOM     17  C   UNL     1       8.773   7.761  19.246  0.00  0.00    +0.000 A 
ATOM     18  C   UNL     1       7.956   7.133  18.297  0.00  0.00    +0.000 A 
ATOM     19  C   UNL     1       7.333   7.926  17.325  0.00  0.00    +0.000 A 
ATOM     20  C   UNL     1       7.562   9.304  17.269  0.00  0.00    +0.000 A 
ENDBRANCH  13  18
ENDBRANCH   1  13
BRANCH   4  21
ATOM     21  C   UNL     1       3.086   4.708  19.167  0.00  0.00    +0.000 C 
BRANCH  21  22
ATOM     22  C   UNL     1       2.454   6.072  19.373  0.00  0.00    +0.000 A 
ATOM     23  C   UNL     1       1.836   6.396  20.593  0.00  0.00    +0.000 A 
ATOM     24  C   UNL     1       1.332   7.682  20.815  0.00  0.00    +0.000 A 
ATOM     25  C   UNL     1       1.431   8.648  19.819  0.00  0.00    +0.000 A 
ATOM     26 CL   UNL     1       0.855  10.243  20.111  0.00  0.00    +0.000 Cl
ATOM     27  C   UNL     1       2.008   8.333  18.590  0.00  0.00    +0.000 A 
ATOM     28  C   UNL     1       2.511   7.047  18.366  0.00  0.00    +0.000 A 
ENDBRANCH  21  22
ENDBRANCH   4  21
TORSDOF 4
ENDMDL
MODEL 2
REMARK VINA RESULT:      -7.1      3.409      6.666
REMARK  Name = 
REMARK  5 active torsions:
REMARK  status: ('A' for Active; 'I' for Inactive)
REMARK    1  A    between atoms: C_1  and  C_2
REMARK    2  A    between atoms: C_5  and  C_6
REMARK    3  A    between atoms: C_6  and  N_7
REMARK    4  A    between atoms: N_10  and  C_11
REMARK    5  A    between atoms: C_11  and  C_12
REMARK                            x       y       z     vdW  Elec       q    Type
REMARK                         _______ _______ _______ _____ _____    ______ ____
ROOT
ATOM      1  N   UNL     1       2.627   5.934  18.386  0.00  0.00    +0.000 N 
ATOM      2  C   UNL     1       3.882   6.181  17.855  0.00  0.00    +0.000 A 
ATOM      3  O   UNL     1       4.079   7.103  17.059  0.00  0.00    +0.000 OA
ATOM      4  N   UNL     1       4.912   5.339  18.259  0.00  0.00    +0.000 N 
ATOM      5  C   UNL     1       4.744   4.237  19.083  0.00  0.00    +0.000 A 
ATOM      6  O   UNL     1       5.624   3.414  19.330  0.00  0.00    +0.000 OA
ATOM      7  C   UNL     1       3.423   4.062  19.688  0.00  0.00    +0.000 A 
ATOM      8  C   UNL     1       3.193   3.055  20.632  0.00  0.00    +0.000 A 
ATOM      9  C   UNL     1       1.940   2.949  21.221  0.00  0.00    +0.000 A 
ATOM     10  C   UNL     1       0.966   3.848  20.830  0.00  0.00    +0.000 A 
ATOM     11  N   UNL     1       1.165   4.813  19.903  0.00  0.00    +0.000 NA
ATOM     12  C   UNL     1       2.395   4.918  19.335  0.00  0.00    +0.000 A 
ENDROOT
BRANCH   1  13
ATOM     13  C   UNL     1       1.516   6.803  18.007  0.00  0.00    +0.000 C 
BRANCH  13  18
ATOM     14  C   UNL     1       0.989  11.925  20.756  0.00  0.00    +0.000 C 
ATOM     15  C   UNL     1       1.220  10.621  20.049  0.00  0.00    +0.000 A 
ATOM     16  C   UNL     1       1.366  10.568  18.660  0.00  0.00    +0.000 A 
ATOM     17  C   UNL     1       1.505   9.340  18.005  0.00  0.00    +0.000 A 
ATOM     18  C   UNL     1       1.491   8.137  18.726  0.00  0.00    +0.000 A 
ATOM     19  C   UNL     1       1.388   8.199  20.121  0.00  0.00    +0.000 A 
ATOM     20  C   UNL     1       1.248   9.426  20.777  0.00  0.00    +0.000 A 
ENDBRANCH  13  18
ENDBRANCH   1  13
BRANCH   4  21
ATOM     21  C   UNL     1       6.238   5.570  17.702  0.00  0.00    +0.000 C 
BRANCH  21  22
ATOM     22  C   UNL     1       6.408   5.031  16.295  0.00  0.00    +0.000 A 
ATOM     23  C   UNL     1       5.617   3.962  15.839  0.00  0.00    +0.000 A 
ATOM     24  C   UNL     1       5.710   3.523  14.514  0.00  0.00    +0.000 A 
ATOM     25  C   UNL     1       6.601   4.139  13.640  0.00  0.00    +0.000 A 
ATOM     26 CL   UNL     1       6.680   3.630  11.997  0.00  0.00    +0.000 Cl
ATOM     27  C   UNL     1       7.419   5.175  14.086  0.00  0.00    +0.000 A 
ATOM     28  C   UNL     1       7.327   5.615  15.410  0.00  0.00    +0.000 A 
ENDBRANCH  21  22
ENDBRANCH   4  21
TORSDOF 4
ENDMDL
MODEL 3
REMARK VINA RESULT:      -7.0      6.134     10.187
REMARK  Name = 
REMARK  5 active torsions:
REMARK  status: ('A' for Active; 'I' for Inactive)
REMARK    1  A    between atoms: C_1  and  C_2
REMARK    2  A    between atoms: C_5  and  C_6
REMARK    3  A    between atoms: C_6  and  N_7
REMARK    4  A    between atoms: N_10  and  C_11
REMARK    5  A    between atoms: C_11  and  C_12
REMARK                            x       y       z     vdW  Elec       q    Type
REMARK                         _______ _______ _______ _____ _____    ______ ____
ROOT
ATOM      1  N   UNL     1      -1.478  12.523  19.443  0.00  0.00    +0.000 N 
ATOM      2  C   UNL     1      -0.176  12.066  19.315  0.00  0.00    +0.000 A 
ATOM      3  O   UNL     1       0.770  12.645  19.856  0.00  0.00    +0.000 OA
ATOM      4  N   UNL     1       0.017  10.924  18.546  0.00  0.00    +0.000 N 
ATOM      5  C   UNL     1      -0.987  10.275  17.844  0.00  0.00    +0.000 A 
ATOM      6  O   UNL     1      -0.797   9.350  17.056  0.00  0.00    +0.000 OA
ATOM      7  C   UNL     1      -2.356  10.737  18.074  0.00  0.00    +0.000 A 
ATOM      8  C   UNL     1      -3.446  10.063  17.512  0.00  0.00    +0.000 A 
ATOM      9  C   UNL     1      -4.733  10.501  17.790  0.00  0.00    +0.000 A 
ATOM     10  C   UNL     1      -4.875  11.605  18.610  0.00  0.00    +0.000 A 
ATOM     11  N   UNL     1      -3.832  12.281  19.143  0.00  0.00    +0.000 NA
ATOM     12  C   UNL     1      -2.574  11.844  18.874  0.00  0.00    +0.000 A 
ENDROOT
BRANCH   1  13
ATOM     13  C   UNL     1      -1.734  13.707  20.257  0.00  0.00    +0.000 C 
BRANCH  13  18
ATOM     14  C   UNL     1      -4.708  12.359  25.094  0.00  0.00    +0.000 C 
ATOM     15  C   UNL     1      -3.892  12.768  23.903  0.00  0.00    +0.000 A 
ATOM     16  C   UNL     1      -4.237  13.890  23.143  0.00  0.00    +0.000 A 
ATOM     17  C   UNL     1      -3.514  14.218  21.991  0.00  0.00    +0.000 A 
ATOM     18  C   UNL     1      -2.437  13.425  21.570  0.00  0.00    +0.000 A 
ATOM     19  C   UNL     1      -2.070  12.328  22.359  0.00  0.00    +0.000 A 
ATOM     20  C   UNL     1      -2.792  11.998  23.510  0.00  0.00    +0.000 A 
ENDBRANCH  13  18
ENDBRANCH   1  13
BRANCH   4  21
ATOM     21  C   UNL     1       1.379  10.435  18.385  0.00  0.00    +0.000 C 
BRANCH  21  22
ATOM     22  C   UNL     1       1.628   9.099  19.059  0.00  0.00    +0.000 A 
ATOM     23  C   UNL     1       1.159   8.857  20.361  0.00  0.00    +0.000 A 
ATOM     24  C   UNL     1       1.309   7.597  20.949  0.00  0.00    +0.000 A 
ATOM     25  C   UNL     1       1.940   6.574  20.246  0.00  0.00    +0.000 A 
ATOM     26 CL   UNL     1       2.082   5.011  20.951  0.00  0.00    +0.000 Cl
ATOM     27  C   UNL     1       2.444   6.808  18.969  0.00  0.00    +0.000 A 
ATOM     28  C   UNL     1       2.295   8.068  18.380  0.00  0.00    +0.000 A 
ENDBRANCH  21  22
ENDBRANCH   4  21
TORSDOF 4
ENDMDL
MODEL 4
REMARK VINA RESULT:      -7.0      6.325      9.676
REMARK  Name = 
REMARK  5 active torsions:
REMARK  status: ('A' for Active; 'I' for Inactive)
REMARK    1  A    between atoms: C_1  and  C_2
REMARK    2  A    between atoms: C_5  and  C_6
REMARK    3  A    between atoms: C_6  and  N_7
REMARK    4  A    between atoms: N_10  and  C_11
REMARK    5  A    between atoms: C_11  and  C_12
REMARK                            x       y       z     vdW  Elec       q    Type
REMARK                         _______ _______ _______ _____ _____    ______ ____
ROOT
ATOM      1  N   UNL     1      -0.930  12.371  19.772  0.00  0.00    +0.000 N 
ATOM      2  C   UNL     1       0.278  11.768  19.463  0.00  0.00    +0.000 A 
ATOM      3  O   UNL     1       1.340  12.150  19.964  0.00  0.00    +0.000 OA
ATOM      4  N   UNL     1       0.242  10.713  18.559  0.00  0.00    +0.000 N 
ATOM      5  C   UNL     1      -0.900  10.289  17.897  0.00  0.00    +0.000 A 
ATOM      6  O   UNL     1      -0.911   9.451  16.998  0.00  0.00    +0.000 OA
ATOM      7  C   UNL     1      -2.166  10.894  18.314  0.00  0.00    +0.000 A 
ATOM      8  C   UNL     1      -3.384  10.440  17.797  0.00  0.00    +0.000 A 
ATOM      9  C   UNL     1      -4.568  11.004  18.251  0.00  0.00    +0.000 A 
ATOM     10  C   UNL     1      -4.482  12.009  19.196  0.00  0.00    +0.000 A 
ATOM     11  N   UNL     1      -3.313  12.475  19.690  0.00  0.00    +0.000 NA
ATOM     12  C   UNL     1      -2.157  11.914  19.248  0.00  0.00    +0.000 A 
ENDROOT
BRANCH   1  13
ATOM     13  C   UNL     1      -0.946  13.471  20.732  0.00  0.00    +0.000 C 
BRANCH  13  18
ATOM     14  C   UNL     1      -1.485  18.631  18.059  0.00  0.00    +0.000 C 
ATOM     15  C   UNL     1      -1.272  17.341  18.796  0.00  0.00    +0.000 A 
ATOM     16  C   UNL     1      -0.337  16.402  18.353  0.00  0.00    +0.000 A 
ATOM     17  C   UNL     1      -0.201  15.170  19.003  0.00  0.00    +0.000 A 
ATOM     18  C   UNL     1      -1.005  14.849  20.105  0.00  0.00    +0.000 A 
ATOM     19  C   UNL     1      -1.910  15.811  20.572  0.00  0.00    +0.000 A 
ATOM     20  C   UNL     1      -2.048  17.042  19.922  0.00  0.00    +0.000 A 
ENDBRANCH  13  18
ENDBRANCH   1  13
BRANCH   4  21
ATOM     21  C   UNL     1       1.503  10.075  18.207  0.00  0.00    +0.000 C 
BRANCH  21  22
ATOM     22  C   UNL     1       1.740   8.762  18.928  0.00  0.00    +0.000 A 
ATOM     23  C   UNL     1       1.337   8.597  20.264  0.00  0.00    +0.000 A 
ATOM     24  C   UNL     1       1.474   7.359  20.901  0.00  0.00    +0.000 A 
ATOM     25  C   UNL     1       2.026   6.282  20.213  0.00  0.00    +0.000 A 
ATOM     26 CL   UNL     1       2.150   4.747  20.982  0.00  0.00    +0.000 Cl
ATOM     27  C   UNL     1       2.465   6.438  18.900  0.00  0.00    +0.000 A 
ATOM     28  C   UNL     1       2.328   7.676  18.262  0.00  0.00    +0.000 A 
ENDBRANCH  21  22
ENDBRANCH   4  21
TORSDOF 4
ENDMDL
MODEL 5
REMARK VINA RESULT:      -6.9      5.096      8.502
REMARK  Name = 
REMARK  5 active torsions:
REMARK  status: ('A' for Active; 'I' for Inactive)
REMARK    1  A    between atoms: C_1  and  C_2
REMARK    2  A    between atoms: C_5  and  C_6
REMARK    3  A    between atoms: C_6  and  N_7
REMARK    4  A    between atoms: N_10  and  C_11
REMARK    5  A    between atoms: C_11  and  C_12
REMARK                            x       y       z     vdW  Elec       q    Type
REMARK                         _______ _______ _______ _____ _____    ______ ____
ROOT
ATOM      1  N   UNL     1      -0.205  10.135  20.826  0.00  0.00    +0.000 N 
ATOM      2  C   UNL     1       0.892   9.290  20.837  0.00  0.00    +0.000 A 
ATOM      3  O   UNL     1       1.443   8.957  21.890  0.00  0.00    +0.000 OA
ATOM      4  N   UNL     1       1.347   8.835  19.605  0.00  0.00    +0.000 N 
ATOM      5  C   UNL     1       0.828   9.235  18.383  0.00  0.00    +0.000 A 
ATOM      6  O   UNL     1       1.315   8.943  17.293  0.00  0.00    +0.000 OA
ATOM      7  C   UNL     1      -0.381  10.060  18.419  0.00  0.00    +0.000 A 
ATOM      8  C   UNL     1      -1.050  10.405  17.239  0.00  0.00    +0.000 A 
ATOM      9  C   UNL     1      -2.220  11.147  17.315  0.00  0.00    +0.000 A 
ATOM     10  C   UNL     1      -2.665  11.525  18.568  0.00  0.00    +0.000 A 
ATOM     11  N   UNL     1      -2.018  11.218  19.716  0.00  0.00    +0.000 NA
ATOM     12  C   UNL     1      -0.877  10.484  19.638  0.00  0.00    +0.000 A 
ENDROOT
BRANCH   1  13
ATOM     13  C   UNL     1      -0.733  10.624  22.097  0.00  0.00    +0.000 C 
BRANCH  13  18
ATOM     14  C   UNL     1      -0.034  16.324  23.138  0.00  0.00    +0.000 C 
ATOM     15  C   UNL     1      -0.282  14.882  22.806  0.00  0.00    +0.000 A 
ATOM     16  C   UNL     1      -1.302  14.162  23.434  0.00  0.00    +0.000 A 
ATOM     17  C   UNL     1      -1.475  12.798  23.173  0.00  0.00    +0.000 A 
ATOM     18  C   UNL     1      -0.625  12.124  22.286  0.00  0.00    +0.000 A 
ATOM     19  C   UNL     1       0.368  12.860  21.627  0.00  0.00    +0.000 A 
ATOM     20  C   UNL     1       0.543  14.223  21.888  0.00  0.00    +0.000 A 
ENDBRANCH  13  18
ENDBRANCH   1  13
BRANCH   4  21
ATOM     21  C   UNL     1       2.509   7.957  19.590  0.00  0.00    +0.000 C 
BRANCH  21  22
ATOM     22  C   UNL     1       2.160   6.491  19.426  0.00  0.00    +0.000 A 
ATOM     23  C   UNL     1       1.662   5.748  20.510  0.00  0.00    +0.000 A 
ATOM     24  C   UNL     1       1.256   4.422  20.337  0.00  0.00    +0.000 A 
ATOM     25  C   UNL     1       1.356   3.822  19.085  0.00  0.00    +0.000 A 
ATOM     26 CL   UNL     1       0.812   2.205  18.862  0.00  0.00    +0.000 Cl
ATOM     27  C   UNL     1       1.883   4.532  18.008  0.00  0.00    +0.000 A 
ATOM     28  C   UNL     1       2.290   5.859  18.179  0.00  0.00    +0.000 A 
ENDBRANCH  21  22
ENDBRANCH   4  21
TORSDOF 4
ENDMDL
MODEL 6
REMARK VINA RESULT:      -6.9      6.223      9.153
REMARK  Name = 
REMARK  5 active torsions:
REMARK  status: ('A' for Active; 'I' for Inactive)
REMARK    1  A    between atoms: C_1  and  C_2
REMARK    2  A    between atoms: C_5  and  C_6
REMARK    3  A    between atoms: C_6  and  N_7
REMARK    4  A    between atoms: N_10  and  C_11
REMARK    5  A    between atoms: C_11  and  C_12
REMARK                            x       y       z     vdW  Elec       q    Type
REMARK                         _______ _______ _______ _____ _____    ______ ____
ROOT
ATOM      1  N   UNL     1       1.537  13.077  19.955  0.00  0.00    +0.000 N 
ATOM      2  C   UNL     1       1.718  12.110  18.980  0.00  0.00    +0.000 A 
ATOM      3  O   UNL     1       2.648  12.170  18.171  0.00  0.00    +0.000 OA
ATOM      4  N   UNL     1       0.800  11.066  18.953  0.00  0.00    +0.000 N 
ATOM      5  C   UNL     1      -0.312  10.980  19.776  0.00  0.00    +0.000 A 
ATOM      6  O   UNL     1      -1.196  10.134  19.663  0.00  0.00    +0.000 OA
ATOM      7  C   UNL     1      -0.419  11.975  20.845  0.00  0.00    +0.000 A 
ATOM      8  C   UNL     1      -1.435  11.893  21.803  0.00  0.00    +0.000 A 
ATOM      9  C   UNL     1      -1.477  12.826  22.830  0.00  0.00    +0.000 A 
ATOM     10  C   UNL     1      -0.506  13.809  22.848  0.00  0.00    +0.000 A 
ATOM     11  N   UNL     1       0.470  13.916  21.918  0.00  0.00    +0.000 NA
ATOM     12  C   UNL     1       0.512  12.995  20.918  0.00  0.00    +0.000 A 
ENDROOT
BRANCH   1  13
ATOM     13  C   UNL     1       2.487  14.184  20.037  0.00  0.00    +0.000 C 
BRANCH  13  18
ATOM     14  C   UNL     1       0.954  18.519  16.444  0.00  0.00    +0.000 C 
ATOM     15  C   UNL     1       1.388  17.471  17.426  0.00  0.00    +0.000 A 
ATOM     16  C   UNL     1       2.675  16.926  17.378  0.00  0.00    +0.000 A 
ATOM     17  C   UNL     1       3.044  15.895  18.250  0.00  0.00    +0.000 A 
ATOM     18  C   UNL     1       2.130  15.381  19.180  0.00  0.00    +0.000 A 
ATOM     19  C   UNL     1       0.857  15.960  19.252  0.00  0.00    +0.000 A 
ATOM     20  C   UNL     1       0.486  16.990  18.381  0.00  0.00    +0.000 A 
ENDBRANCH  13  18
ENDBRANCH   1  13
BRANCH   4  21
ATOM     21  C   UNL     1       0.961  10.045  17.927  0.00  0.00    +0.000 C 
BRANCH  21  22
ATOM     22  C   UNL     1       1.740   8.831  18.395  0.00  0.00    +0.000 A 
ATOM     23  C   UNL     1       1.566   8.327  19.696  0.00  0.00    +0.000 A 
ATOM     24  C   UNL     1       2.215   7.156  20.098  0.00  0.00    +0.000 A 
ATOM     25  C   UNL     1       3.054   6.487  19.211  0.00  0.00    +0.000 A 
ATOM     26 CL   UNL     1       3.815   5.020  19.691  0.00  0.00    +0.000 Cl
ATOM     27  C   UNL     1       3.267   6.993  17.930  0.00  0.00    +0.000 A 
ATOM     28  C   UNL     1       2.618   8.165  17.527  0.00  0.00    +0.000 A 
ENDBRANCH  21  22
ENDBRANCH   4  21
TORSDOF 4
ENDMDL
MODEL 7
REMARK VINA RESULT:      -6.9      7.686     11.413
REMARK  Name = 
REMARK  5 active torsions:
REMARK  status: ('A' for Active; 'I' for Inactive)
REMARK    1  A    between atoms: C_1  and  C_2
REMARK    2  A    between atoms: C_5  and  C_6
REMARK    3  A    between atoms: C_6  and  N_7
REMARK    4  A    between atoms: N_10  and  C_11
REMARK    5  A    between atoms: C_11  and  C_12
REMARK                            x       y       z     vdW  Elec       q    Type
REMARK                         _______ _______ _______ _____ _____    ______ ____
ROOT
ATOM      1  N   UNL     1      -0.981  12.799  22.009  0.00  0.00    +0.000 N 
ATOM      2  C   UNL     1      -0.807  13.611  20.900  0.00  0.00    +0.000 A 
ATOM      3  O   UNL     1      -1.201  14.781  20.885  0.00  0.00    +0.000 OA
ATOM      4  N   UNL     1      -0.170  13.046  19.802  0.00  0.00    +0.000 N 
ATOM      5  C   UNL     1       0.221  11.719  19.721  0.00  0.00    +0.000 A 
ATOM      6  O   UNL     1       0.659  11.184  18.704  0.00  0.00    +0.000 OA
ATOM      7  C   UNL     1       0.097  10.920  20.941  0.00  0.00    +0.000 A 
ATOM      8  C   UNL     1       0.584   9.610  20.995  0.00  0.00    +0.000 A 
ATOM      9  C   UNL     1       0.492   8.898  22.183  0.00  0.00    +0.000 A 
ATOM     10  C   UNL     1      -0.096   9.525  23.265  0.00  0.00    +0.000 A 
ATOM     11  N   UNL     1      -0.592  10.783  23.224  0.00  0.00    +0.000 NA
ATOM     12  C   UNL     1      -0.492  11.478  22.061  0.00  0.00    +0.000 A 
ENDROOT
BRANCH   1  13
ATOM     13  C   UNL     1      -1.628  13.353  23.196  0.00  0.00    +0.000 C 
BRANCH  13  18
ATOM     14  C   UNL     1      -7.397  12.619  23.684  0.00  0.00    +0.000 C 
ATOM     15  C   UNL     1      -5.905  12.712  23.546  0.00  0.00    +0.000 A 
ATOM     16  C   UNL     1      -5.065  12.514  24.646  0.00  0.00    +0.000 A 
ATOM     17  C   UNL     1      -3.681  12.678  24.523  0.00  0.00    +0.000 A 
ATOM     18  C   UNL     1      -3.110  13.054  23.299  0.00  0.00    +0.000 A 
ATOM     19  C   UNL     1      -3.952  13.209  22.191  0.00  0.00    +0.000 A 
ATOM     20  C   UNL     1      -5.335  13.046  22.313  0.00  0.00    +0.000 A 
ENDBRANCH  13  18
ENDBRANCH   1  13
BRANCH   4  21
ATOM     21  C   UNL     1       0.010  13.877  18.618  0.00  0.00    +0.000 C 
BRANCH  21  22
ATOM     22  C   UNL     1       1.322  14.638  18.605  0.00  0.00    +0.000 A 
ATOM     23  C   UNL     1       1.368  15.989  18.988  0.00  0.00    +0.000 A 
ATOM     24  C   UNL     1       2.590  16.666  19.061  0.00  0.00    +0.000 A 
ATOM     25  C   UNL     1       3.771  16.004  18.741  0.00  0.00    +0.000 A 
ATOM     26 CL   UNL     1       5.278  16.823  18.879  0.00  0.00    +0.000 Cl
ATOM     27  C   UNL     1       3.739  14.674  18.324  0.00  0.00    +0.000 A 
ATOM     28  C   UNL     1       2.518  13.996  18.250  0.00  0.00    +0.000 A 
ENDBRANCH  21  22
ENDBRANCH   4  21
TORSDOF 4
ENDMDL
MODEL 8
REMARK VINA RESULT:      -6.8      4.619      8.767
REMARK  Name = 
REMARK  5 active torsions:
REMARK  status: ('A' for Active; 'I' for Inactive)
REMARK    1  A    between atoms: C_1  and  C_2
REMARK    2  A    between atoms: C_5  and  C_6
REMARK    3  A    between atoms: C_6  and  N_7
REMARK    4  A    between atoms: N_10  and  C_11
REMARK    5  A    between atoms: C_11  and  C_12
REMARK                            x       y       z     vdW  Elec       q    Type
REMARK                         _______ _______ _______ _____ _____    ______ ____
ROOT
ATOM      1  N   UNL     1       0.685  10.115  19.082  0.00  0.00    +0.000 N 
ATOM      2  C   UNL     1       1.594   9.331  18.390  0.00  0.00    +0.000 A 
ATOM      3  O   UNL     1       1.889   9.566  17.215  0.00  0.00    +0.000 OA
ATOM      4  N   UNL     1       2.159   8.266  19.081  0.00  0.00    +0.000 N 
ATOM      5  C   UNL     1       1.812   7.897  20.371  0.00  0.00    +0.000 A 
ATOM      6  O   UNL     1       2.207   6.877  20.932  0.00  0.00    +0.000 OA
ATOM      7  C   UNL     1       0.914   8.798  21.094  0.00  0.00    +0.000 A 
ATOM      8  C   UNL     1       0.609   8.579  22.442  0.00  0.00    +0.000 A 
ATOM      9  C   UNL     1      -0.208   9.481  23.110  0.00  0.00    +0.000 A 
ATOM     10  C   UNL     1      -0.696  10.559  22.395  0.00  0.00    +0.000 A 
ATOM     11  N   UNL     1      -0.430  10.773  21.086  0.00  0.00    +0.000 NA
ATOM     12  C   UNL     1       0.377   9.892  20.440  0.00  0.00    +0.000 A 
ENDROOT
BRANCH   1  13
ATOM     13  C   UNL     1       0.079  11.259  18.407  0.00  0.00    +0.000 C 
BRANCH  13  18
ATOM     14  C   UNL     1      -5.705  10.604  17.997  0.00  0.00    +0.000 C 
ATOM     15  C   UNL     1      -4.220  10.814  18.015  0.00  0.00    +0.000 A 
ATOM     16  C   UNL     1      -3.353   9.895  17.416  0.00  0.00    +0.000 A 
ATOM     17  C   UNL     1      -1.967  10.061  17.505  0.00  0.00    +0.000 A 
ATOM     18  C   UNL     1      -1.418  11.146  18.204  0.00  0.00    +0.000 A 
ATOM     19  C   UNL     1      -2.291  12.086  18.765  0.00  0.00    +0.000 A 
ATOM     20  C   UNL     1      -3.677  11.921  18.678  0.00  0.00    +0.000 A 
ENDBRANCH  13  18
ENDBRANCH   1  13
BRANCH   4  21
ATOM     21  C   UNL     1       3.106   7.419  18.368  0.00  0.00    +0.000 C 
BRANCH  21  22
ATOM     22  C   UNL     1       2.794   5.938  18.470  0.00  0.00    +0.000 A 
ATOM     23  C   UNL     1       3.636   5.078  19.195  0.00  0.00    +0.000 A 
ATOM     24  C   UNL     1       3.301   3.731  19.366  0.00  0.00    +0.000 A 
ATOM     25  C   UNL     1       2.130   3.230  18.803  0.00  0.00    +0.000 A 
ATOM     26 CL   UNL     1       1.694   1.584  19.053  0.00  0.00    +0.000 Cl
ATOM     27  C   UNL     1       1.303   4.061  18.049  0.00  0.00    +0.000 A 
ATOM     28  C   UNL     1       1.637   5.409  17.879  0.00  0.00    +0.000 A 
ENDBRANCH  21  22
ENDBRANCH   4  21
TORSDOF 4
ENDMDL
MODEL 9
REMARK VINA RESULT:      -6.8      5.099      9.375
REMARK  Name = 
REMARK  5 active torsions:
REMARK  status: ('A' for Active; 'I' for Inactive)
REMARK    1  A    between atoms: C_1  and  C_2
REMARK    2  A    between atoms: C_5  and  C_6
REMARK    3  A    between atoms: C_6  and  N_7
REMARK    4  A    between atoms: N_10  and  C_11
REMARK    5  A    between atoms: C_11  and  C_12
REMARK                            x       y       z     vdW  Elec       q    Type
REMARK                         _______ _______ _______ _____ _____    ______ ____
ROOT
ATOM      1  N   UNL     1       0.024  10.255  19.155  0.00  0.00    +0.000 N 
ATOM      2  C   UNL     1       1.009   9.339  18.825  0.00  0.00    +0.000 A 
ATOM      3  O   UNL     1       1.367   9.166  17.657  0.00  0.00    +0.000 OA
ATOM      4  N   UNL     1       1.577   8.622  19.872  0.00  0.00    +0.000 N 
ATOM      5  C   UNL     1       1.165   8.708  21.193  0.00  0.00    +0.000 A 
ATOM      6  O   UNL     1       1.569   7.977  22.095  0.00  0.00    +0.000 OA
ATOM      7  C   UNL     1       0.183   9.746  21.510  0.00  0.00    +0.000 A 
ATOM      8  C   UNL     1      -0.197   9.994  22.834  0.00  0.00    +0.000 A 
ATOM      9  C   UNL     1      -1.095  11.018  23.103  0.00  0.00    +0.000 A 
ATOM     10  C   UNL     1      -1.584  11.743  22.033  0.00  0.00    +0.000 A 
ATOM     11  N   UNL     1      -1.245  11.501  20.746  0.00  0.00    +0.000 NA
ATOM     12  C   UNL     1      -0.360  10.503  20.489  0.00  0.00    +0.000 A 
ENDROOT
BRANCH   1  13
ATOM     13  C   UNL     1      -0.589  11.048  18.092  0.00  0.00    +0.000 C 
BRANCH  13  18
ATOM     14  C   UNL     1      -6.404  10.603  18.295  0.00  0.00    +0.000 C 
ATOM     15  C   UNL     1      -4.916  10.733  18.148  0.00  0.00    +0.000 A 
ATOM     16  C   UNL     1      -4.129   9.638  17.780  0.00  0.00    +0.000 A 
ATOM     17  C   UNL     1      -2.736   9.751  17.720  0.00  0.00    +0.000 A 
ATOM     18  C   UNL     1      -2.100  10.959  18.036  0.00  0.00    +0.000 A 
ATOM     19  C   UNL     1      -2.896  12.065  18.362  0.00  0.00    +0.000 A 
ATOM     20  C   UNL     1      -4.289  11.953  18.424  0.00  0.00    +0.000 A 
ENDBRANCH  13  18
ENDBRANCH   1  13
BRANCH   4  21
ATOM     21  C   UNL     1       2.604   7.642  19.547  0.00  0.00    +0.000 C 
BRANCH  21  22
ATOM     22  C   UNL     1       2.061   6.244  19.325  0.00  0.00    +0.000 A 
ATOM     23  C   UNL     1       2.023   5.687  18.035  0.00  0.00    +0.000 A 
ATOM     24  C   UNL     1       1.606   4.367  17.842  0.00  0.00    +0.000 A 
ATOM     25  C   UNL     1       1.212   3.596  18.932  0.00  0.00    +0.000 A 
ATOM     26 CL   UNL     1       0.745   1.956  18.700  0.00  0.00    +0.000 Cl
ATOM     27  C   UNL     1       1.209   4.144  20.214  0.00  0.00    +0.000 A 
ATOM     28  C   UNL     1       1.626   5.465  20.408  0.00  0.00    +0.000 A 
ENDBRANCH  21  22
ENDBRANCH   4  21
TORSDOF 4
ENDMDL
