MODEL 1
REMARK VINA RESULT:      -6.9      0.000      0.000
REMARK  Name = 
REMARK  6 active torsions:
REMARK  status: ('A' for Active; 'I' for Inactive)
REMARK    1  A    between atoms: C_1  and  C_2
REMARK    2  A    between atoms: N_4  and  C_5
REMARK    3  A    between atoms: C_5  and  C_6
REMARK    4  A    between atoms: C_6  and  C_7
REMARK    5  A    between atoms: C_6  and  C_8
REMARK    6  A    between atoms: N_11  and  C_12
REMARK                            x       y       z     vdW  Elec       q    Type
REMARK                         _______ _______ _______ _____ _____    ______ ____
ROOT
ATOM      1  C   UNL     1       8.088   5.820  18.574  0.00  0.00    +0.000 C 
ATOM      2  C   UNL     1       6.802   5.330  17.988  0.00  0.00    +0.000 A 
ATOM      3  C   UNL     1       6.561   5.256  16.682  0.00  0.00    +0.000 A 
ATOM      4  N   UNL     1       5.398   4.733  16.166  0.00  0.00    +0.000 N 
ATOM      5  C   UNL     1       4.374   4.245  16.987  0.00  0.00    +0.000 A 
ATOM      6  O   UNL     1       3.391   3.676  16.504  0.00  0.00    +0.000 OA
ATOM      7  N   UNL     1       4.568   4.418  18.371  0.00  0.00    +0.000 N 
ATOM      8  C   UNL     1       5.731   4.931  18.934  0.00  0.00    +0.000 A 
ATOM      9  O   UNL     1       5.920   5.134  20.135  0.00  0.00    +0.000 OA
ENDROOT
BRANCH   7  10
ATOM     10  C   UNL     1       3.484   4.082  19.251  0.00  0.00    +0.000 A 
ATOM     11  C   UNL     1       2.493   5.024  19.564  0.00  0.00    +0.000 A 
ATOM     12  C   UNL     1       1.437   4.688  20.413  0.00  0.00    +0.000 A 
ATOM     13  C   UNL     1       1.342   3.401  20.933  0.00  0.00    +0.000 A 
ATOM     14  C   UNL     1       2.307   2.449  20.618  0.00  0.00    +0.000 A 
ATOM     15  C   UNL     1       3.384   2.793  19.794  0.00  0.00    +0.000 A 
ENDBRANCH   7  10
BRANCH   4  16
ATOM     16  C   UNL     1       5.201   4.714  14.706  0.00  0.00    +0.000 C 
BRANCH  16  17
ATOM     17  C   UNL     1       6.307   3.996  13.904  0.00  0.00    +0.000 C 
ATOM     18  C   UNL     1       5.772   3.351  12.626  0.00  0.00    +0.000 C 
ATOM     19  C   UNL     1       7.423   4.986  13.558  0.00  0.00    +0.000 C 
ENDBRANCH  16  17
ENDBRANCH   4  16
TORSDOF 3
ENDMDL
MODEL 2
REMARK VINA RESULT:      -6.9      0.109      1.112
REMARK  Name = 
REMARK  6 active torsions:
REMARK  status: ('A' for Active; 'I' for Inactive)
REMARK    1  A    between atoms: C_1  and  C_2
REMARK    2  A    between atoms: N_4  and  C_5
REMARK    3  A    between atoms: C_5  and  C_6
REMARK    4  A    between atoms: C_6  and  C_7
REMARK    5  A    between atoms: C_6  and  C_8
REMARK    6  A    between atoms: N_11  and  C_12
REMARK                            x       y       z     vdW  Elec       q    Type
REMARK                         _______ _______ _______ _____ _____    ______ ____
ROOT
ATOM      1  C   UNL     1       8.103   5.939  18.662  0.00  0.00    +0.000 C 
ATOM      2  C   UNL     1       6.835   5.443  18.042  0.00  0.00    +0.000 A 
ATOM      3  C   UNL     1       6.617   5.400  16.731  0.00  0.00    +0.000 A 
ATOM      4  N   UNL     1       5.471   4.871  16.183  0.00  0.00    +0.000 N 
ATOM      5  C   UNL     1       4.442   4.345  16.974  0.00  0.00    +0.000 A 
ATOM      6  O   UNL     1       3.477   3.774  16.460  0.00  0.00    +0.000 OA
ATOM      7  N   UNL     1       4.610   4.486  18.365  0.00  0.00    +0.000 N 
ATOM      8  C   UNL     1       5.756   5.003  18.960  0.00  0.00    +0.000 A 
ATOM      9  O   UNL     1       5.921   5.178  20.169  0.00  0.00    +0.000 OA
ENDROOT
BRANCH   7  10
ATOM     10  C   UNL     1       3.518   4.110  19.217  0.00  0.00    +0.000 A 
ATOM     11  C   UNL     1       3.437   2.819  19.757  0.00  0.00    +0.000 A 
ATOM     12  C   UNL     1       2.377   2.463  20.593  0.00  0.00    +0.000 A 
ATOM     13  C   UNL     1       1.404   3.401  20.923  0.00  0.00    +0.000 A 
ATOM     14  C   UNL     1       1.479   4.693  20.410  0.00  0.00    +0.000 A 
ATOM     15  C   UNL     1       2.522   5.041  19.546  0.00  0.00    +0.000 A 
ENDBRANCH   7  10
BRANCH   4  16
ATOM     16  C   UNL     1       5.298   4.887  14.719  0.00  0.00    +0.000 C 
BRANCH  16  17
ATOM     17  C   UNL     1       6.340   4.069  13.927  0.00  0.00    +0.000 C 
ATOM     18  C   UNL     1       5.730   3.377  12.709  0.00  0.00    +0.000 C 
ATOM     19  C   UNL     1       7.488   4.980  13.485  0.00  0.00    +0.000 C 
ENDBRANCH  16  17
ENDBRANCH   4  16
TORSDOF 3
ENDMDL
MODEL 3
REMARK VINA RESULT:      -6.9      1.832      6.036
REMARK  Name = 
REMARK  6 active torsions:
REMARK  status: ('A' for Active; 'I' for Inactive)
REMARK    1  A    between atoms: C_1  and  C_2
REMARK    2  A    between atoms: N_4  and  C_5
REMARK    3  A    between atoms: C_5  and  C_6
REMARK    4  A    between atoms: C_6  and  C_7
REMARK    5  A    between atoms: C_6  and  C_8
REMARK    6  A    between atoms: N_11  and  C_12
REMARK                            x       y       z     vdW  Elec       q    Type
REMARK                         _______ _______ _______ _____ _____    ______ ____
ROOT
ATOM      1  C   UNL     1       2.125   8.332  18.689  0.00  0.00    +0.000 C 
ATOM      2  C   UNL     1       2.772   6.984  18.669  0.00  0.00    +0.000 A 
ATOM      3  C   UNL     1       2.575   6.051  19.595  0.00  0.00    +0.000 A 
ATOM      4  N   UNL     1       3.125   4.792  19.515  0.00  0.00    +0.000 N 
ATOM      5  C   UNL     1       3.945   4.405  18.448  0.00  0.00    +0.000 A 
ATOM      6  O   UNL     1       4.333   3.240  18.339  0.00  0.00    +0.000 OA
ATOM      7  N   UNL     1       4.253   5.417  17.519  0.00  0.00    +0.000 N 
ATOM      8  C   UNL     1       3.711   6.697  17.555  0.00  0.00    +0.000 A 
ATOM      9  O   UNL     1       3.987   7.617  16.784  0.00  0.00    +0.000 OA
ENDROOT
BRANCH   7  10
ATOM     10  C   UNL     1       5.215   5.122  16.495  0.00  0.00    +0.000 A 
ATOM     11  C   UNL     1       6.584   5.340  16.708  0.00  0.00    +0.000 A 
ATOM     12  C   UNL     1       7.515   5.042  15.713  0.00  0.00    +0.000 A 
ATOM     13  C   UNL     1       7.093   4.494  14.505  0.00  0.00    +0.000 A 
ATOM     14  C   UNL     1       5.740   4.254  14.283  0.00  0.00    +0.000 A 
ATOM     15  C   UNL     1       4.802   4.584  15.267  0.00  0.00    +0.000 A 
ENDBRANCH   7  10
BRANCH   4  16
ATOM     16  C   UNL     1       2.876   3.827  20.600  0.00  0.00    +0.000 C 
BRANCH  16  17
ATOM     17  C   UNL     1       1.406   3.387  20.763  0.00  0.00    +0.000 C 
ATOM     18  C   UNL     1       0.839   2.771  19.485  0.00  0.00    +0.000 C 
ATOM     19  C   UNL     1       1.287   2.387  21.917  0.00  0.00    +0.000 C 
ENDBRANCH  16  17
ENDBRANCH   4  16
TORSDOF 3
ENDMDL
MODEL 4
REMARK VINA RESULT:      -6.9      1.531      3.457
REMARK  Name = 
REMARK  6 active torsions:
REMARK  status: ('A' for Active; 'I' for Inactive)
REMARK    1  A    between atoms: C_1  and  C_2
REMARK    2  A    between atoms: N_4  and  C_5
REMARK    3  A    between atoms: C_5  and  C_6
REMARK    4  A    between atoms: C_6  and  C_7
REMARK    5  A    between atoms: C_6  and  C_8
REMARK    6  A    between atoms: N_11  and  C_12
REMARK                            x       y       z     vdW  Elec       q    Type
REMARK                         _______ _______ _______ _____ _____    ______ ____
ROOT
ATOM      1  C   UNL     1       5.610   3.221  14.987  0.00  0.00    +0.000 C 
ATOM      2  C   UNL     1       5.249   4.102  16.140  0.00  0.00    +0.000 A 
ATOM      3  C   UNL     1       5.766   5.310  16.341  0.00  0.00    +0.000 A 
ATOM      4  N   UNL     1       5.364   6.132  17.370  0.00  0.00    +0.000 N 
ATOM      5  C   UNL     1       4.380   5.746  18.288  0.00  0.00    +0.000 A 
ATOM      6  O   UNL     1       3.954   6.540  19.131  0.00  0.00    +0.000 OA
ATOM      7  N   UNL     1       3.905   4.427  18.154  0.00  0.00    +0.000 N 
ATOM      8  C   UNL     1       4.275   3.569  17.125  0.00  0.00    +0.000 A 
ATOM      9  O   UNL     1       3.912   2.399  16.999  0.00  0.00    +0.000 OA
ENDROOT
BRANCH   7  10
ATOM     10  C   UNL     1       3.015   3.925  19.164  0.00  0.00    +0.000 A 
ATOM     11  C   UNL     1       1.627   4.084  19.044  0.00  0.00    +0.000 A 
ATOM     12  C   UNL     1       0.767   3.586  20.023  0.00  0.00    +0.000 A 
ATOM     13  C   UNL     1       1.282   2.897  21.118  0.00  0.00    +0.000 A 
ATOM     14  C   UNL     1       2.656   2.714  21.242  0.00  0.00    +0.000 A 
ATOM     15  C   UNL     1       3.521   3.242  20.279  0.00  0.00    +0.000 A 
ENDBRANCH   7  10
BRANCH   4  16
ATOM     16  C   UNL     1       6.008   7.447  17.536  0.00  0.00    +0.000 C 
BRANCH  16  17
ATOM     17  C   UNL     1       7.547   7.413  17.649  0.00  0.00    +0.000 C 
ATOM     18  C   UNL     1       8.141   8.798  17.901  0.00  0.00    +0.000 C 
ATOM     19  C   UNL     1       7.965   6.458  18.771  0.00  0.00    +0.000 C 
ENDBRANCH  16  17
ENDBRANCH   4  16
TORSDOF 3
ENDMDL
MODEL 5
REMARK VINA RESULT:      -6.8      2.373      6.419
REMARK  Name = 
REMARK  6 active torsions:
REMARK  status: ('A' for Active; 'I' for Inactive)
REMARK    1  A    between atoms: C_1  and  C_2
REMARK    2  A    between atoms: N_4  and  C_5
REMARK    3  A    between atoms: C_5  and  C_6
REMARK    4  A    between atoms: C_6  and  C_7
REMARK    5  A    between atoms: C_6  and  C_8
REMARK    6  A    between atoms: N_11  and  C_12
REMARK                            x       y       z     vdW  Elec       q    Type
REMARK                         _______ _______ _______ _____ _____    ______ ____
ROOT
ATOM      1  C   UNL     1       2.024   3.002  21.589  0.00  0.00    +0.000 C 
ATOM      2  C   UNL     1       2.425   4.132  20.695  0.00  0.00    +0.000 A 
ATOM      3  C   UNL     1       1.879   5.343  20.738  0.00  0.00    +0.000 A 
ATOM      4  N   UNL     1       2.316   6.387  19.955  0.00  0.00    +0.000 N 
ATOM      5  C   UNL     1       3.370   6.243  19.044  0.00  0.00    +0.000 A 
ATOM      6  O   UNL     1       3.819   7.218  18.437  0.00  0.00    +0.000 OA
ATOM      7  N   UNL     1       3.883   4.939  18.908  0.00  0.00    +0.000 N 
ATOM      8  C   UNL     1       3.479   3.860  19.686  0.00  0.00    +0.000 A 
ATOM      9  O   UNL     1       3.876   2.699  19.568  0.00  0.00    +0.000 OA
ENDROOT
BRANCH   7  10
ATOM     10  C   UNL     1       4.853   4.701  17.876  0.00  0.00    +0.000 A 
ATOM     11  C   UNL     1       4.453   4.386  16.570  0.00  0.00    +0.000 A 
ATOM     12  C   UNL     1       5.400   4.165  15.570  0.00  0.00    +0.000 A 
ATOM     13  C   UNL     1       6.757   4.285  15.856  0.00  0.00    +0.000 A 
ATOM     14  C   UNL     1       7.171   4.615  17.143  0.00  0.00    +0.000 A 
ATOM     15  C   UNL     1       6.224   4.804  18.154  0.00  0.00    +0.000 A 
ENDBRANCH   7  10
BRANCH   4  16
ATOM     16  C   UNL     1       1.636   7.691  20.046  0.00  0.00    +0.000 C 
BRANCH  16  17
ATOM     17  C   UNL     1       1.009   8.009  21.421  0.00  0.00    +0.000 C 
ATOM     18  C   UNL     1       1.637   9.238  22.075  0.00  0.00    +0.000 C 
ATOM     19  C   UNL     1      -0.500   8.218  21.267  0.00  0.00    +0.000 C 
ENDBRANCH  16  17
ENDBRANCH   4  16
TORSDOF 3
ENDMDL
MODEL 6
REMARK VINA RESULT:      -6.7      2.393      6.438
REMARK  Name = 
REMARK  6 active torsions:
REMARK  status: ('A' for Active; 'I' for Inactive)
REMARK    1  A    between atoms: C_1  and  C_2
REMARK    2  A    between atoms: N_4  and  C_5
REMARK    3  A    between atoms: C_5  and  C_6
REMARK    4  A    between atoms: C_6  and  C_7
REMARK    5  A    between atoms: C_6  and  C_8
REMARK    6  A    between atoms: N_11  and  C_12
REMARK                            x       y       z     vdW  Elec       q    Type
REMARK                         _______ _______ _______ _____ _____    ______ ____
ROOT
ATOM      1  C   UNL     1       2.057   3.055  21.610  0.00  0.00    +0.000 C 
ATOM      2  C   UNL     1       2.446   4.185  20.710  0.00  0.00    +0.000 A 
ATOM      3  C   UNL     1       1.889   5.391  20.750  0.00  0.00    +0.000 A 
ATOM      4  N   UNL     1       2.315   6.436  19.961  0.00  0.00    +0.000 N 
ATOM      5  C   UNL     1       3.366   6.297  19.047  0.00  0.00    +0.000 A 
ATOM      6  O   UNL     1       3.805   7.273  18.434  0.00  0.00    +0.000 OA
ATOM      7  N   UNL     1       3.890   4.996  18.914  0.00  0.00    +0.000 N 
ATOM      8  C   UNL     1       3.498   3.917  19.698  0.00  0.00    +0.000 A 
ATOM      9  O   UNL     1       3.905   2.759  19.583  0.00  0.00    +0.000 OA
ENDROOT
BRANCH   7  10
ATOM     10  C   UNL     1       4.858   4.762  17.880  0.00  0.00    +0.000 A 
ATOM     11  C   UNL     1       6.232   4.868  18.142  0.00  0.00    +0.000 A 
ATOM     12  C   UNL     1       7.168   4.630  17.135  0.00  0.00    +0.000 A 
ATOM     13  C   UNL     1       6.744   4.253  15.864  0.00  0.00    +0.000 A 
ATOM     14  C   UNL     1       5.385   4.126  15.592  0.00  0.00    +0.000 A 
ATOM     15  C   UNL     1       4.445   4.396  16.591  0.00  0.00    +0.000 A 
ENDBRANCH   7  10
BRANCH   4  16
ATOM     16  C   UNL     1       1.624   7.734  20.050  0.00  0.00    +0.000 C 
BRANCH  16  17
ATOM     17  C   UNL     1       0.993   8.049  21.422  0.00  0.00    +0.000 C 
ATOM     18  C   UNL     1       1.643   9.255  22.098  0.00  0.00    +0.000 C 
ATOM     19  C   UNL     1      -0.510   8.294  21.259  0.00  0.00    +0.000 C 
ENDBRANCH  16  17
ENDBRANCH   4  16
TORSDOF 3
ENDMDL
MODEL 7
REMARK VINA RESULT:      -6.7      1.594      3.645
REMARK  Name = 
REMARK  6 active torsions:
REMARK  status: ('A' for Active; 'I' for Inactive)
REMARK    1  A    between atoms: C_1  and  C_2
REMARK    2  A    between atoms: N_4  and  C_5
REMARK    3  A    between atoms: C_5  and  C_6
REMARK    4  A    between atoms: C_6  and  C_7
REMARK    5  A    between atoms: C_6  and  C_8
REMARK    6  A    between atoms: N_11  and  C_12
REMARK                            x       y       z     vdW  Elec       q    Type
REMARK                         _______ _______ _______ _____ _____    ______ ____
ROOT
ATOM      1  C   UNL     1       5.939   3.666  14.560  0.00  0.00    +0.000 C 
ATOM      2  C   UNL     1       5.529   4.454  15.764  0.00  0.00    +0.000 A 
ATOM      3  C   UNL     1       6.012   5.656  16.064  0.00  0.00    +0.000 A 
ATOM      4  N   UNL     1       5.565   6.393  17.137  0.00  0.00    +0.000 N 
ATOM      5  C   UNL     1       4.569   5.920  18.000  0.00  0.00    +0.000 A 
ATOM      6  O   UNL     1       4.103   6.642  18.885  0.00  0.00    +0.000 OA
ATOM      7  N   UNL     1       4.128   4.605  17.759  0.00  0.00    +0.000 N 
ATOM      8  C   UNL     1       4.544   3.831  16.682  0.00  0.00    +0.000 A 
ATOM      9  O   UNL     1       4.211   2.664  16.463  0.00  0.00    +0.000 OA
ENDROOT
BRANCH   7  10
ATOM     10  C   UNL     1       3.226   4.012  18.706  0.00  0.00    +0.000 A 
ATOM     11  C   UNL     1       3.708   3.352  19.846  0.00  0.00    +0.000 A 
ATOM     12  C   UNL     1       2.826   2.787  20.767  0.00  0.00    +0.000 A 
ATOM     13  C   UNL     1       1.452   2.901  20.577  0.00  0.00    +0.000 A 
ATOM     14  C   UNL     1       0.956   3.569  19.461  0.00  0.00    +0.000 A 
ATOM     15  C   UNL     1       1.839   4.107  18.519  0.00  0.00    +0.000 A 
ENDBRANCH   7  10
BRANCH   4  16
ATOM     16  C   UNL     1       6.175   7.705  17.414  0.00  0.00    +0.000 C 
BRANCH  16  17
ATOM     17  C   UNL     1       7.701   7.685  17.640  0.00  0.00    +0.000 C 
ATOM     18  C   UNL     1       8.252   9.063  18.004  0.00  0.00    +0.000 C 
ATOM     19  C   UNL     1       8.050   6.680  18.741  0.00  0.00    +0.000 C 
ENDBRANCH  16  17
ENDBRANCH   4  16
TORSDOF 3
ENDMDL
MODEL 8
REMARK VINA RESULT:      -6.7      2.052      6.070
REMARK  Name = 
REMARK  6 active torsions:
REMARK  status: ('A' for Active; 'I' for Inactive)
REMARK    1  A    between atoms: C_1  and  C_2
REMARK    2  A    between atoms: N_4  and  C_5
REMARK    3  A    between atoms: C_5  and  C_6
REMARK    4  A    between atoms: C_6  and  C_7
REMARK    5  A    between atoms: C_6  and  C_8
REMARK    6  A    between atoms: N_11  and  C_12
REMARK                            x       y       z     vdW  Elec       q    Type
REMARK                         _______ _______ _______ _____ _____    ______ ____
ROOT
ATOM      1  C   UNL     1       1.727   8.756  18.381  0.00  0.00    +0.000 C 
ATOM      2  C   UNL     1       2.415   7.451  18.626  0.00  0.00    +0.000 A 
ATOM      3  C   UNL     1       2.192   6.682  19.687  0.00  0.00    +0.000 A 
ATOM      4  N   UNL     1       2.783   5.450  19.853  0.00  0.00    +0.000 N 
ATOM      5  C   UNL     1       3.675   4.920  18.912  0.00  0.00    +0.000 A 
ATOM      6  O   UNL     1       4.103   3.769  19.024  0.00  0.00    +0.000 OA
ATOM      7  N   UNL     1       4.006   5.771  17.840  0.00  0.00    +0.000 N 
ATOM      8  C   UNL     1       3.424   7.017  17.629  0.00  0.00    +0.000 A 
ATOM      9  O   UNL     1       3.717   7.803  16.727  0.00  0.00    +0.000 OA
ENDROOT
BRANCH   7  10
ATOM     10  C   UNL     1       5.034   5.345  16.934  0.00  0.00    +0.000 A 
ATOM     11  C   UNL     1       4.714   4.670  15.747  0.00  0.00    +0.000 A 
ATOM     12  C   UNL     1       5.718   4.266  14.865  0.00  0.00    +0.000 A 
ATOM     13  C   UNL     1       7.049   4.559  15.144  0.00  0.00    +0.000 A 
ATOM     14  C   UNL     1       7.383   5.244  16.309  0.00  0.00    +0.000 A 
ATOM     15  C   UNL     1       6.381   5.620  17.209  0.00  0.00    +0.000 A 
ENDBRANCH   7  10
BRANCH   4  16
ATOM     16  C   UNL     1       2.501   4.673  21.073  0.00  0.00    +0.000 C 
BRANCH  16  17
ATOM     17  C   UNL     1       1.242   3.783  21.007  0.00  0.00    +0.000 C 
ATOM     18  C   UNL     1       0.808   3.495  19.570  0.00  0.00    +0.000 C 
ATOM     19  C   UNL     1       1.498   2.465  21.745  0.00  0.00    +0.000 C 
ENDBRANCH  16  17
ENDBRANCH   4  16
TORSDOF 3
ENDMDL
MODEL 9
REMARK VINA RESULT:      -6.5      0.697      1.503
REMARK  Name = 
REMARK  6 active torsions:
REMARK  status: ('A' for Active; 'I' for Inactive)
REMARK    1  A    between atoms: C_1  and  C_2
REMARK    2  A    between atoms: N_4  and  C_5
REMARK    3  A    between atoms: C_5  and  C_6
REMARK    4  A    between atoms: C_6  and  C_7
REMARK    5  A    between atoms: C_6  and  C_8
REMARK    6  A    between atoms: N_11  and  C_12
REMARK                            x       y       z     vdW  Elec       q    Type
REMARK                         _______ _______ _______ _____ _____    ______ ____
ROOT
ATOM      1  C   UNL     1       7.678   6.401  18.412  0.00  0.00    +0.000 C 
ATOM      2  C   UNL     1       6.649   5.422  17.944  0.00  0.00    +0.000 A 
ATOM      3  C   UNL     1       6.675   4.830  16.754  0.00  0.00    +0.000 A 
ATOM      4  N   UNL     1       5.757   3.876  16.375  0.00  0.00    +0.000 N 
ATOM      5  C   UNL     1       4.719   3.467  17.219  0.00  0.00    +0.000 A 
ATOM      6  O   UNL     1       3.978   2.532  16.905  0.00  0.00    +0.000 OA
ATOM      7  N   UNL     1       4.613   4.165  18.438  0.00  0.00    +0.000 N 
ATOM      8  C   UNL     1       5.523   5.125  18.864  0.00  0.00    +0.000 A 
ATOM      9  O   UNL     1       5.441   5.783  19.903  0.00  0.00    +0.000 OA
ENDROOT
BRANCH   7  10
ATOM     10  C   UNL     1       3.474   3.897  19.271  0.00  0.00    +0.000 A 
ATOM     11  C   UNL     1       3.524   2.907  20.262  0.00  0.00    +0.000 A 
ATOM     12  C   UNL     1       2.417   2.658  21.075  0.00  0.00    +0.000 A 
ATOM     13  C   UNL     1       1.260   3.417  20.928  0.00  0.00    +0.000 A 
ATOM     14  C   UNL     1       1.200   4.417  19.961  0.00  0.00    +0.000 A 
ATOM     15  C   UNL     1       2.297   4.644  19.123  0.00  0.00    +0.000 A 
ENDBRANCH   7  10
BRANCH   4  16
ATOM     16  C   UNL     1       5.844   3.289  15.026  0.00  0.00    +0.000 C 
BRANCH  16  17
ATOM     17  C   UNL     1       5.812   4.306  13.865  0.00  0.00    +0.000 C 
ATOM     18  C   UNL     1       7.202   4.835  13.518  0.00  0.00    +0.000 C 
ATOM     19  C   UNL     1       5.178   3.662  12.628  0.00  0.00    +0.000 C 
ENDBRANCH  16  17
ENDBRANCH   4  16
TORSDOF 3
ENDMDL
