MODEL 1
REMARK VINA RESULT:      -8.4      0.000      0.000
REMARK  Name = 
REMARK  7 active torsions:
REMARK  status: ('A' for Active; 'I' for Inactive)
REMARK    1  A    between atoms: C_1  and  O_2
REMARK    2  A    between atoms: O_2  and  C_3
REMARK    3  A    between atoms: C_6  and  N_7
REMARK    4  A    between atoms: N_7  and  C_8
REMARK    5  A    between atoms: C_10  and  C_11
REMARK    6  A    between atoms: C_25  and  O_26
REMARK    7  A    between atoms: O_26  and  C_27
REMARK                            x       y       z     vdW  Elec       q    Type
REMARK                         _______ _______ _______ _____ _____    ______ ____
ROOT
ATOM      1  C   UNL     1       3.308   2.995  17.861  0.00  0.00    +0.000 A 
ATOM      2  N   UNL     1       2.509   3.802  17.116  0.00  0.00    +0.000 NA
ATOM      3  C   UNL     1       1.617   4.502  17.791  0.00  0.00    +0.000 A 
ATOM      4  N   UNL     1       0.875   3.828  18.674  0.00  0.00    +0.000 NA
ATOM      5  C   UNL     1       1.609   3.169  19.554  0.00  0.00    +0.000 A 
ATOM      6  C   UNL     1       1.062   3.193  20.834  0.00  0.00    +0.000 A 
ATOM      7  C   UNL     1       1.760   2.748  21.943  0.00  0.00    +0.000 A 
ATOM      8  C   UNL     1       2.984   2.128  21.738  0.00  0.00    +0.000 A 
ATOM      9  C   UNL     1       3.546   2.086  20.426  0.00  0.00    +0.000 A 
ATOM     10  C   UNL     1       2.914   2.694  19.259  0.00  0.00    +0.000 A 
ENDROOT
BRANCH   3  11
ATOM     11  C   UNL     1       2.205   5.753  18.449  0.00  0.00    +0.000 A 
ATOM     12  C   UNL     1       1.868   6.066  19.786  0.00  0.00    +0.000 A 
ATOM     13  C   UNL     1       1.711   7.395  20.183  0.00  0.00    +0.000 A 
ATOM     14  C   UNL     1       1.980   8.423  19.284  0.00  0.00    +0.000 A 
ATOM     15  C   UNL     1       2.499   8.130  18.027  0.00  0.00    +0.000 A 
ATOM     16  C   UNL     1       2.663   6.803  17.632  0.00  0.00    +0.000 A 
ENDBRANCH   3  11
BRANCH   1  17
ATOM     17  N   UNL     1       4.616   2.872  17.258  0.00  0.00    +0.000 N 
ATOM     18  H   UNL     1       4.543   2.400  16.365  0.00  0.00    +0.000 HD
BRANCH  17  22
ATOM     19  C   UNL     1       7.238   6.362  16.896  0.00  0.00    +0.000 A 
ATOM     20  C   UNL     1       6.495   6.098  18.042  0.00  0.00    +0.000 A 
ATOM     21  C   UNL     1       5.654   4.960  18.155  0.00  0.00    +0.000 A 
ATOM     22  C   UNL     1       5.526   4.020  17.123  0.00  0.00    +0.000 A 
ATOM     23  C   UNL     1       6.266   4.305  15.946  0.00  0.00    +0.000 A 
ATOM     24  C   UNL     1       7.125   5.459  15.822  0.00  0.00    +0.000 A 
BRANCH  19  26
ATOM     25  C   UNL     1       8.051   8.452  17.795  0.00  0.00    +0.000 C 
ATOM     26  O   UNL     1       8.013   7.487  16.748  0.00  0.00    +0.000 OA
ENDBRANCH  19  26
BRANCH  24  27
ATOM     27  O   UNL     1       7.786   5.555  14.610  0.00  0.00    +0.000 OA
ATOM     28  C   UNL     1       7.247   4.913  13.447  0.00  0.00    +0.000 C 
ENDBRANCH  24  27
ENDBRANCH  17  22
ENDBRANCH   1  17
TORSDOF 5
ENDMDL
MODEL 2
REMARK VINA RESULT:      -8.3      3.381      6.492
REMARK  Name = 
REMARK  7 active torsions:
REMARK  status: ('A' for Active; 'I' for Inactive)
REMARK    1  A    between atoms: C_1  and  O_2
REMARK    2  A    between atoms: O_2  and  C_3
REMARK    3  A    between atoms: C_6  and  N_7
REMARK    4  A    between atoms: N_7  and  C_8
REMARK    5  A    between atoms: C_10  and  C_11
REMARK    6  A    between atoms: C_25  and  O_26
REMARK    7  A    between atoms: O_26  and  C_27
REMARK                            x       y       z     vdW  Elec       q    Type
REMARK                         _______ _______ _______ _____ _____    ______ ____
ROOT
ATOM      1  C   UNL     1       2.966   6.066  18.881  0.00  0.00    +0.000 A 
ATOM      2  N   UNL     1       4.304   6.283  18.798  0.00  0.00    +0.000 NA
ATOM      3  C   UNL     1       5.035   5.228  18.491  0.00  0.00    +0.000 A 
ATOM      4  N   UNL     1       4.804   4.117  19.197  0.00  0.00    +0.000 NA
ATOM      5  C   UNL     1       3.536   3.746  19.156  0.00  0.00    +0.000 A 
ATOM      6  C   UNL     1       3.384   2.363  19.086  0.00  0.00    +0.000 A 
ATOM      7  C   UNL     1       2.163   1.768  18.827  0.00  0.00    +0.000 A 
ATOM      8  C   UNL     1       1.038   2.579  18.783  0.00  0.00    +0.000 A 
ATOM      9  C   UNL     1       1.182   3.997  18.869  0.00  0.00    +0.000 A 
ATOM     10  C   UNL     1       2.473   4.669  18.975  0.00  0.00    +0.000 A 
ENDROOT
BRANCH   3  11
ATOM     11  C   UNL     1       5.031   4.906  16.995  0.00  0.00    +0.000 A 
ATOM     12  C   UNL     1       5.576   3.683  16.539  0.00  0.00    +0.000 A 
ATOM     13  C   UNL     1       6.264   3.624  15.326  0.00  0.00    +0.000 A 
ATOM     14  C   UNL     1       6.333   4.752  14.513  0.00  0.00    +0.000 A 
ATOM     15  C   UNL     1       5.636   5.905  14.861  0.00  0.00    +0.000 A 
ATOM     16  C   UNL     1       4.942   5.962  16.069  0.00  0.00    +0.000 A 
ENDBRANCH   3  11
BRANCH   1  17
ATOM     17  N   UNL     1       2.230   7.245  18.483  0.00  0.00    +0.000 N 
ATOM     18  H   UNL     1       1.471   6.987  17.864  0.00  0.00    +0.000 HD
BRANCH  17  22
ATOM     19  C   UNL     1       0.698  10.089  21.440  0.00  0.00    +0.000 A 
ATOM     20  C   UNL     1       1.098   8.800  21.777  0.00  0.00    +0.000 A 
ATOM     21  C   UNL     1       1.602   7.886  20.814  0.00  0.00    +0.000 A 
ATOM     22  C   UNL     1       1.741   8.228  19.461  0.00  0.00    +0.000 A 
ATOM     23  C   UNL     1       1.309   9.536  19.117  0.00  0.00    +0.000 A 
ATOM     24  C   UNL     1       0.797  10.472  20.090  0.00  0.00    +0.000 A 
BRANCH  19  26
ATOM     25  C   UNL     1      -1.002  10.585  23.083  0.00  0.00    +0.000 C 
ATOM     26  O   UNL     1       0.156  10.967  22.349  0.00  0.00    +0.000 OA
ENDBRANCH  19  26
BRANCH  24  27
ATOM     27  O   UNL     1       0.452  11.708  19.571  0.00  0.00    +0.000 OA
ATOM     28  C   UNL     1      -0.767  11.858  18.831  0.00  0.00    +0.000 C 
ENDBRANCH  24  27
ENDBRANCH  17  22
ENDBRANCH   1  17
TORSDOF 5
ENDMDL
MODEL 3
REMARK VINA RESULT:      -8.0      3.368      6.472
REMARK  Name = 
REMARK  7 active torsions:
REMARK  status: ('A' for Active; 'I' for Inactive)
REMARK    1  A    between atoms: C_1  and  O_2
REMARK    2  A    between atoms: O_2  and  C_3
REMARK    3  A    between atoms: C_6  and  N_7
REMARK    4  A    between atoms: N_7  and  C_8
REMARK    5  A    between atoms: C_10  and  C_11
REMARK    6  A    between atoms: C_25  and  O_26
REMARK    7  A    between atoms: O_26  and  C_27
REMARK                            x       y       z     vdW  Elec       q    Type
REMARK                         _______ _______ _______ _____ _____    ______ ____
ROOT
ATOM      1  C   UNL     1       3.306   6.002  18.845  0.00  0.00    +0.000 A 
ATOM      2  N   UNL     1       4.548   6.420  19.201  0.00  0.00    +0.000 NA
ATOM      3  C   UNL     1       5.521   5.553  18.996  0.00  0.00    +0.000 A 
ATOM      4  N   UNL     1       5.320   4.312  19.450  0.00  0.00    +0.000 NA
ATOM      5  C   UNL     1       4.207   3.776  18.979  0.00  0.00    +0.000 A 
ATOM      6  C   UNL     1       4.346   2.422  18.688  0.00  0.00    +0.000 A 
ATOM      7  C   UNL     1       3.379   1.713  17.997  0.00  0.00    +0.000 A 
ATOM      8  C   UNL     1       2.178   2.349  17.719  0.00  0.00    +0.000 A 
ATOM      9  C   UNL     1       2.021   3.735  18.027  0.00  0.00    +0.000 A 
ATOM     10  C   UNL     1       3.080   4.555  18.604  0.00  0.00    +0.000 A 
ENDROOT
BRANCH   3  11
ATOM     11  C   UNL     1       5.993   5.507  17.541  0.00  0.00    +0.000 A 
ATOM     12  C   UNL     1       5.459   6.419  16.601  0.00  0.00    +0.000 A 
ATOM     13  C   UNL     1       5.233   6.024  15.282  0.00  0.00    +0.000 A 
ATOM     14  C   UNL     1       5.622   4.754  14.863  0.00  0.00    +0.000 A 
ATOM     15  C   UNL     1       6.323   3.920  15.728  0.00  0.00    +0.000 A 
ATOM     16  C   UNL     1       6.557   4.317  17.043  0.00  0.00    +0.000 A 
ENDBRANCH   3  11
BRANCH   1  17
ATOM     17  N   UNL     1       2.499   7.116  18.399  0.00  0.00    +0.000 N 
ATOM     18  H   UNL     1       1.770   6.787  17.776  0.00  0.00    +0.000 HD
BRANCH  17  22
ATOM     19  C   UNL     1       0.718   9.938  21.235  0.00  0.00    +0.000 A 
ATOM     20  C   UNL     1       1.139   8.665  21.608  0.00  0.00    +0.000 A 
ATOM     21  C   UNL     1       1.724   7.759  20.684  0.00  0.00    +0.000 A 
ATOM     22  C   UNL     1       1.925   8.092  19.337  0.00  0.00    +0.000 A 
ATOM     23  C   UNL     1       1.472   9.381  18.955  0.00  0.00    +0.000 A 
ATOM     24  C   UNL     1       0.878  10.310  19.888  0.00  0.00    +0.000 A 
BRANCH  19  26
ATOM     25  C   UNL     1      -0.787  10.292  23.092  0.00  0.00    +0.000 C 
ATOM     26  O   UNL     1       0.100  10.806  22.103  0.00  0.00    +0.000 OA
ENDBRANCH  19  26
BRANCH  24  27
ATOM     27  O   UNL     1       0.524  11.529  19.337  0.00  0.00    +0.000 OA
ATOM     28  C   UNL     1      -0.814  11.739  18.866  0.00  0.00    +0.000 C 
ENDBRANCH  24  27
ENDBRANCH  17  22
ENDBRANCH   1  17
TORSDOF 5
ENDMDL
MODEL 4
REMARK VINA RESULT:      -7.8      3.408      6.578
REMARK  Name = 
REMARK  7 active torsions:
REMARK  status: ('A' for Active; 'I' for Inactive)
REMARK    1  A    between atoms: C_1  and  O_2
REMARK    2  A    between atoms: O_2  and  C_3
REMARK    3  A    between atoms: C_6  and  N_7
REMARK    4  A    between atoms: N_7  and  C_8
REMARK    5  A    between atoms: C_10  and  C_11
REMARK    6  A    between atoms: C_25  and  O_26
REMARK    7  A    between atoms: O_26  and  C_27
REMARK                            x       y       z     vdW  Elec       q    Type
REMARK                         _______ _______ _______ _____ _____    ______ ____
ROOT
ATOM      1  C   UNL     1       2.780   6.346  18.816  0.00  0.00    +0.000 A 
ATOM      2  N   UNL     1       4.098   6.653  18.697  0.00  0.00    +0.000 NA
ATOM      3  C   UNL     1       4.906   5.629  18.498  0.00  0.00    +0.000 A 
ATOM      4  N   UNL     1       4.761   4.586  19.321  0.00  0.00    +0.000 NA
ATOM      5  C   UNL     1       3.524   4.119  19.333  0.00  0.00    +0.000 A 
ATOM      6  C   UNL     1       3.477   2.729  19.413  0.00  0.00    +0.000 A 
ATOM      7  C   UNL     1       2.304   2.019  19.231  0.00  0.00    +0.000 A 
ATOM      8  C   UNL     1       1.121   2.735  19.112  0.00  0.00    +0.000 A 
ATOM      9  C   UNL     1       1.158   4.160  19.044  0.00  0.00    +0.000 A 
ATOM     10  C   UNL     1       2.394   4.935  19.064  0.00  0.00    +0.000 A 
ENDROOT
BRANCH   3  11
ATOM     11  C   UNL     1       4.924   5.148  17.045  0.00  0.00    +0.000 A 
ATOM     12  C   UNL     1       5.404   3.853  16.741  0.00  0.00    +0.000 A 
ATOM     13  C   UNL     1       6.120   3.623  15.565  0.00  0.00    +0.000 A 
ATOM     14  C   UNL     1       6.284   4.651  14.641  0.00  0.00    +0.000 A 
ATOM     15  C   UNL     1       5.650   5.874  14.841  0.00  0.00    +0.000 A 
ATOM     16  C   UNL     1       4.928   6.102  16.010  0.00  0.00    +0.000 A 
ENDBRANCH   3  11
BRANCH   1  17
ATOM     17  N   UNL     1       1.957   7.417  18.301  0.00  0.00    +0.000 N 
ATOM     18  H   UNL     1       1.117   7.037  17.881  0.00  0.00    +0.000 HD
BRANCH  17  22
ATOM     19  C   UNL     1       0.978  10.971  20.666  0.00  0.00    +0.000 A 
ATOM     20  C   UNL     1       1.105  11.004  19.281  0.00  0.00    +0.000 A 
ATOM     21  C   UNL     1       1.414   9.846  18.521  0.00  0.00    +0.000 A 
ATOM     22  C   UNL     1       1.600   8.589  19.115  0.00  0.00    +0.000 A 
ATOM     23  C   UNL     1       1.493   8.565  20.530  0.00  0.00    +0.000 A 
ATOM     24  C   UNL     1       1.178   9.737  21.312  0.00  0.00    +0.000 A 
BRANCH  19  26
ATOM     25  C   UNL     1      -0.581  12.637  21.463  0.00  0.00    +0.000 C 
ATOM     26  O   UNL     1       0.735  12.093  21.423  0.00  0.00    +0.000 OA
ENDBRANCH  19  26
BRANCH  24  27
ATOM     27  O   UNL     1       1.089   9.512  22.674  0.00  0.00    +0.000 OA
ATOM     28  C   UNL     1      -0.196   9.427  23.304  0.00  0.00    +0.000 C 
ENDBRANCH  24  27
ENDBRANCH  17  22
ENDBRANCH   1  17
TORSDOF 5
ENDMDL
MODEL 5
REMARK VINA RESULT:      -7.8      3.328      6.396
REMARK  Name = 
REMARK  7 active torsions:
REMARK  status: ('A' for Active; 'I' for Inactive)
REMARK    1  A    between atoms: C_1  and  O_2
REMARK    2  A    between atoms: O_2  and  C_3
REMARK    3  A    between atoms: C_6  and  N_7
REMARK    4  A    between atoms: N_7  and  C_8
REMARK    5  A    between atoms: C_10  and  C_11
REMARK    6  A    between atoms: C_25  and  O_26
REMARK    7  A    between atoms: O_26  and  C_27
REMARK                            x       y       z     vdW  Elec       q    Type
REMARK                         _______ _______ _______ _____ _____    ______ ____
ROOT
ATOM      1  C   UNL     1       3.778   5.987  18.546  0.00  0.00    +0.000 A 
ATOM      2  N   UNL     1       5.123   6.024  18.731  0.00  0.00    +0.000 NA
ATOM      3  C   UNL     1       5.736   4.856  18.696  0.00  0.00    +0.000 A 
ATOM      4  N   UNL     1       5.207   3.882  19.443  0.00  0.00    +0.000 NA
ATOM      5  C   UNL     1       3.932   3.669  19.167  0.00  0.00    +0.000 A 
ATOM      6  C   UNL     1       3.594   2.319  19.204  0.00  0.00    +0.000 A 
ATOM      7  C   UNL     1       2.374   1.851  18.750  0.00  0.00    +0.000 A 
ATOM      8  C   UNL     1       1.413   2.784  18.384  0.00  0.00    +0.000 A 
ATOM      9  C   UNL     1       1.746   4.172  18.357  0.00  0.00    +0.000 A 
ATOM     10  C   UNL     1       3.075   4.687  18.670  0.00  0.00    +0.000 A 
ENDROOT
BRANCH   3  11
ATOM     11  C   UNL     1       5.983   4.347  17.274  0.00  0.00    +0.000 A 
ATOM     12  C   UNL     1       7.257   4.509  16.682  0.00  0.00    +0.000 A 
ATOM     13  C   UNL     1       7.374   4.778  15.318  0.00  0.00    +0.000 A 
ATOM     14  C   UNL     1       6.237   4.796  14.515  0.00  0.00    +0.000 A 
ATOM     15  C   UNL     1       5.001   4.447  15.051  0.00  0.00    +0.000 A 
ATOM     16  C   UNL     1       4.884   4.169  16.412  0.00  0.00    +0.000 A 
ENDBRANCH   3  11
BRANCH   1  17
ATOM     17  N   UNL     1       3.320   7.188  17.883  0.00  0.00    +0.000 N 
ATOM     18  H   UNL     1       3.047   6.975  16.931  0.00  0.00    +0.000 HD
BRANCH  17  22
ATOM     19  C   UNL     1       0.390   9.931  19.636  0.00  0.00    +0.000 A 
ATOM     20  C   UNL     1       0.869  10.074  18.338  0.00  0.00    +0.000 A 
ATOM     21  C   UNL     1       1.812   9.176  17.774  0.00  0.00    +0.000 A 
ATOM     22  C   UNL     1       2.315   8.077  18.485  0.00  0.00    +0.000 A 
ATOM     23  C   UNL     1       1.843   7.948  19.817  0.00  0.00    +0.000 A 
ATOM     24  C   UNL     1       0.882   8.855  20.399  0.00  0.00    +0.000 A 
BRANCH  19  26
ATOM     25  C   UNL     1      -1.325  11.614  19.388  0.00  0.00    +0.000 C 
ATOM     26  O   UNL     1      -0.480  10.823  20.217  0.00  0.00    +0.000 OA
ENDBRANCH  19  26
BRANCH  24  27
ATOM     27  O   UNL     1       0.521   8.553  21.700  0.00  0.00    +0.000 OA
ATOM     28  C   UNL     1       1.076   9.303  22.789  0.00  0.00    +0.000 C 
ENDBRANCH  24  27
ENDBRANCH  17  22
ENDBRANCH   1  17
TORSDOF 5
ENDMDL
MODEL 6
REMARK VINA RESULT:      -7.8      4.579      7.535
REMARK  Name = 
REMARK  7 active torsions:
REMARK  status: ('A' for Active; 'I' for Inactive)
REMARK    1  A    between atoms: C_1  and  O_2
REMARK    2  A    between atoms: O_2  and  C_3
REMARK    3  A    between atoms: C_6  and  N_7
REMARK    4  A    between atoms: N_7  and  C_8
REMARK    5  A    between atoms: C_10  and  C_11
REMARK    6  A    between atoms: C_25  and  O_26
REMARK    7  A    between atoms: O_26  and  C_27
REMARK                            x       y       z     vdW  Elec       q    Type
REMARK                         _______ _______ _______ _____ _____    ______ ____
ROOT
ATOM      1  C   UNL     1       1.351  10.012  18.697  0.00  0.00    +0.000 A 
ATOM      2  N   UNL     1       0.244   9.536  19.325  0.00  0.00    +0.000 NA
ATOM      3  C   UNL     1      -0.660  10.440  19.651  0.00  0.00    +0.000 A 
ATOM      4  N   UNL     1      -0.214  11.525  20.291  0.00  0.00    +0.000 NA
ATOM      5  C   UNL     1       0.746  12.146  19.626  0.00  0.00    +0.000 A 
ATOM      6  C   UNL     1       0.651  13.532  19.719  0.00  0.00    +0.000 A 
ATOM      7  C   UNL     1       1.420  14.378  18.939  0.00  0.00    +0.000 A 
ATOM      8  C   UNL     1       2.414  13.814  18.151  0.00  0.00    +0.000 A 
ATOM      9  C   UNL     1       2.527  12.394  18.061  0.00  0.00    +0.000 A 
ATOM     10  C   UNL     1       1.625  11.470  18.740  0.00  0.00    +0.000 A 
ENDROOT
BRANCH   3  11
ATOM     11  C   UNL     1      -1.549  10.856  18.476  0.00  0.00    +0.000 A 
ATOM     12  C   UNL     1      -2.624  11.749  18.691  0.00  0.00    +0.000 A 
ATOM     13  C   UNL     1      -3.817  11.602  17.984  0.00  0.00    +0.000 A 
ATOM     14  C   UNL     1      -3.921  10.630  16.993  0.00  0.00    +0.000 A 
ATOM     15  C   UNL     1      -2.806   9.876  16.640  0.00  0.00    +0.000 A 
ATOM     16  C   UNL     1      -1.611  10.027  17.340  0.00  0.00    +0.000 A 
ENDBRANCH   3  11
BRANCH   1  17
ATOM     17  N   UNL     1       1.874   9.034  17.770  0.00  0.00    +0.000 N 
ATOM     18  H   UNL     1       2.424   9.495  17.055  0.00  0.00    +0.000 HD
BRANCH  17  22
ATOM     19  C   UNL     1       3.995   5.407  19.006  0.00  0.00    +0.000 A 
ATOM     20  C   UNL     1       4.399   6.179  17.921  0.00  0.00    +0.000 A 
ATOM     21  C   UNL     1       3.711   7.359  17.532  0.00  0.00    +0.000 A 
ATOM     22  C   UNL     1       2.586   7.830  18.223  0.00  0.00    +0.000 A 
ATOM     23  C   UNL     1       2.162   7.026  19.313  0.00  0.00    +0.000 A 
ATOM     24  C   UNL     1       2.855   5.826  19.718  0.00  0.00    +0.000 A 
BRANCH  19  26
ATOM     25  C   UNL     1       4.234   3.020  18.720  0.00  0.00    +0.000 C 
ATOM     26  O   UNL     1       4.615   4.233  19.362  0.00  0.00    +0.000 OA
ENDBRANCH  19  26
BRANCH  24  27
ATOM     27  O   UNL     1       2.310   5.191  20.819  0.00  0.00    +0.000 OA
ATOM     28  C   UNL     1       1.277   4.212  20.643  0.00  0.00    +0.000 C 
ENDBRANCH  24  27
ENDBRANCH  17  22
ENDBRANCH   1  17
TORSDOF 5
ENDMDL
MODEL 7
REMARK VINA RESULT:      -7.7      3.248      6.243
REMARK  Name = 
REMARK  7 active torsions:
REMARK  status: ('A' for Active; 'I' for Inactive)
REMARK    1  A    between atoms: C_1  and  O_2
REMARK    2  A    between atoms: O_2  and  C_3
REMARK    3  A    between atoms: C_6  and  N_7
REMARK    4  A    between atoms: N_7  and  C_8
REMARK    5  A    between atoms: C_10  and  C_11
REMARK    6  A    between atoms: C_25  and  O_26
REMARK    7  A    between atoms: O_26  and  C_27
REMARK                            x       y       z     vdW  Elec       q    Type
REMARK                         _______ _______ _______ _____ _____    ______ ____
ROOT
ATOM      1  C   UNL     1       3.665   5.796  18.832  0.00  0.00    +0.000 A 
ATOM      2  N   UNL     1       5.012   5.862  18.992  0.00  0.00    +0.000 NA
ATOM      3  C   UNL     1       5.661   4.723  18.836  0.00  0.00    +0.000 A 
ATOM      4  N   UNL     1       5.181   3.668  19.501  0.00  0.00    +0.000 NA
ATOM      5  C   UNL     1       3.907   3.438  19.234  0.00  0.00    +0.000 A 
ATOM      6  C   UNL     1       3.613   2.079  19.154  0.00  0.00    +0.000 A 
ATOM      7  C   UNL     1       2.398   1.614  18.684  0.00  0.00    +0.000 A 
ATOM      8  C   UNL     1       1.400   2.543  18.426  0.00  0.00    +0.000 A 
ATOM      9  C   UNL     1       1.688   3.938  18.520  0.00  0.00    +0.000 A 
ATOM     10  C   UNL     1       3.007   4.467  18.851  0.00  0.00    +0.000 A 
ENDROOT
BRANCH   3  11
ATOM     11  C   UNL     1       5.889   4.355  17.368  0.00  0.00    +0.000 A 
ATOM     12  C   UNL     1       7.191   4.427  16.821  0.00  0.00    +0.000 A 
ATOM     13  C   UNL     1       7.382   4.835  15.501  0.00  0.00    +0.000 A 
ATOM     14  C   UNL     1       6.281   5.084  14.686  0.00  0.00    +0.000 A 
ATOM     15  C   UNL     1       4.996   4.829  15.157  0.00  0.00    +0.000 A 
ATOM     16  C   UNL     1       4.805   4.413  16.473  0.00  0.00    +0.000 A 
ENDBRANCH   3  11
BRANCH   1  17
ATOM     17  N   UNL     1       3.153   7.036  18.293  0.00  0.00    +0.000 N 
ATOM     18  H   UNL     1       2.772   6.880  17.367  0.00  0.00    +0.000 HD
BRANCH  17  22
ATOM     19  C   UNL     1       0.355   9.508  20.583  0.00  0.00    +0.000 A 
ATOM     20  C   UNL     1       0.915   8.340  21.092  0.00  0.00    +0.000 A 
ATOM     21  C   UNL     1       1.828   7.549  20.347  0.00  0.00    +0.000 A 
ATOM     22  C   UNL     1       2.235   7.899  19.052  0.00  0.00    +0.000 A 
ATOM     23  C   UNL     1       1.643   9.077  18.526  0.00  0.00    +0.000 A 
ATOM     24  C   UNL     1       0.715   9.889  19.277  0.00  0.00    +0.000 A 
BRANCH  19  26
ATOM     25  C   UNL     1      -0.134  11.345  22.074  0.00  0.00    +0.000 C 
ATOM     26  O   UNL     1      -0.573  10.256  21.268  0.00  0.00    +0.000 OA
ENDBRANCH  19  26
BRANCH  24  27
ATOM     27  O   UNL     1       0.266  11.014  18.609  0.00  0.00    +0.000 OA
ATOM     28  C   UNL     1       1.060  12.208  18.602  0.00  0.00    +0.000 C 
ENDBRANCH  24  27
ENDBRANCH  17  22
ENDBRANCH   1  17
TORSDOF 5
ENDMDL
MODEL 8
REMARK VINA RESULT:      -7.6      3.426      6.501
REMARK  Name = 
REMARK  7 active torsions:
REMARK  status: ('A' for Active; 'I' for Inactive)
REMARK    1  A    between atoms: C_1  and  O_2
REMARK    2  A    between atoms: O_2  and  C_3
REMARK    3  A    between atoms: C_6  and  N_7
REMARK    4  A    between atoms: N_7  and  C_8
REMARK    5  A    between atoms: C_10  and  C_11
REMARK    6  A    between atoms: C_25  and  O_26
REMARK    7  A    between atoms: O_26  and  C_27
REMARK                            x       y       z     vdW  Elec       q    Type
REMARK                         _______ _______ _______ _____ _____    ______ ____
ROOT
ATOM      1  C   UNL     1       3.095   6.171  18.518  0.00  0.00    +0.000 A 
ATOM      2  N   UNL     1       4.309   6.651  18.895  0.00  0.00    +0.000 NA
ATOM      3  C   UNL     1       5.305   5.787  18.840  0.00  0.00    +0.000 A 
ATOM      4  N   UNL     1       5.095   4.598  19.412  0.00  0.00    +0.000 NA
ATOM      5  C   UNL     1       4.019   3.992  18.940  0.00  0.00    +0.000 A 
ATOM      6  C   UNL     1       4.194   2.617  18.805  0.00  0.00    +0.000 A 
ATOM      7  C   UNL     1       3.279   1.819  18.142  0.00  0.00    +0.000 A 
ATOM      8  C   UNL     1       2.086   2.397  17.731  0.00  0.00    +0.000 A 
ATOM      9  C   UNL     1       1.892   3.804  17.879  0.00  0.00    +0.000 A 
ATOM     10  C   UNL     1       2.905   4.703  18.422  0.00  0.00    +0.000 A 
ENDROOT
BRANCH   3  11
ATOM     11  C   UNL     1       5.859   5.595  17.426  0.00  0.00    +0.000 A 
ATOM     12  C   UNL     1       5.397   6.419  16.373  0.00  0.00    +0.000 A 
ATOM     13  C   UNL     1       5.242   5.901  15.087  0.00  0.00    +0.000 A 
ATOM     14  C   UNL     1       5.633   4.593  14.815  0.00  0.00    +0.000 A 
ATOM     15  C   UNL     1       6.268   3.838  15.796  0.00  0.00    +0.000 A 
ATOM     16  C   UNL     1       6.431   4.357  17.079  0.00  0.00    +0.000 A 
ENDBRANCH   3  11
BRANCH   1  17
ATOM     17  N   UNL     1       2.299   7.214  17.911  0.00  0.00    +0.000 N 
ATOM     18  H   UNL     1       1.526   6.806  17.399  0.00  0.00    +0.000 HD
BRANCH  17  22
ATOM     19  C   UNL     1       0.935  10.729  20.139  0.00  0.00    +0.000 A 
ATOM     20  C   UNL     1       1.213  10.766  18.777  0.00  0.00    +0.000 A 
ATOM     21  C   UNL     1       1.647   9.621  18.059  0.00  0.00    +0.000 A 
ATOM     22  C   UNL     1       1.812   8.372  18.675  0.00  0.00    +0.000 A 
ATOM     23  C   UNL     1       1.550   8.343  20.070  0.00  0.00    +0.000 A 
ATOM     24  C   UNL     1       1.107   9.502  20.808  0.00  0.00    +0.000 A 
BRANCH  19  26
ATOM     25  C   UNL     1      -0.736  12.385  20.689  0.00  0.00    +0.000 C 
ATOM     26  O   UNL     1       0.568  11.841  20.860  0.00  0.00    +0.000 OA
ENDBRANCH  19  26
BRANCH  24  27
ATOM     27  O   UNL     1       0.878   9.274  22.153  0.00  0.00    +0.000 OA
ATOM     28  C   UNL     1      -0.466   9.151  22.639  0.00  0.00    +0.000 C 
ENDBRANCH  24  27
ENDBRANCH  17  22
ENDBRANCH   1  17
TORSDOF 5
ENDMDL
MODEL 9
REMARK VINA RESULT:      -7.6      4.331      7.088
REMARK  Name = 
REMARK  7 active torsions:
REMARK  status: ('A' for Active; 'I' for Inactive)
REMARK    1  A    between atoms: C_1  and  O_2
REMARK    2  A    between atoms: O_2  and  C_3
REMARK    3  A    between atoms: C_6  and  N_7
REMARK    4  A    between atoms: N_7  and  C_8
REMARK    5  A    between atoms: C_10  and  C_11
REMARK    6  A    between atoms: C_25  and  O_26
REMARK    7  A    between atoms: O_26  and  C_27
REMARK                            x       y       z     vdW  Elec       q    Type
REMARK                         _______ _______ _______ _____ _____    ______ ____
ROOT
ATOM      1  C   UNL     1       1.369   9.949  18.638  0.00  0.00    +0.000 A 
ATOM      2  N   UNL     1       0.278   9.478  19.295  0.00  0.00    +0.000 NA
ATOM      3  C   UNL     1      -0.598  10.389  19.672  0.00  0.00    +0.000 A 
ATOM      4  N   UNL     1      -0.111  11.453  20.318  0.00  0.00    +0.000 NA
ATOM      5  C   UNL     1       0.834  12.072  19.632  0.00  0.00    +0.000 A 
ATOM      6  C   UNL     1       0.767  13.458  19.757  0.00  0.00    +0.000 A 
ATOM      7  C   UNL     1       1.522  14.306  18.968  0.00  0.00    +0.000 A 
ATOM      8  C   UNL     1       2.477  13.744  18.133  0.00  0.00    +0.000 A 
ATOM      9  C   UNL     1       2.563  12.324  18.010  0.00  0.00    +0.000 A 
ATOM     10  C   UNL     1       1.670  11.400  18.702  0.00  0.00    +0.000 A 
ENDROOT
BRANCH   3  11
ATOM     11  C   UNL     1      -1.522  10.845  18.539  0.00  0.00    +0.000 A 
ATOM     12  C   UNL     1      -2.588  11.731  18.817  0.00  0.00    +0.000 A 
ATOM     13  C   UNL     1      -3.803  11.608  18.141  0.00  0.00    +0.000 A 
ATOM     14  C   UNL     1      -3.937  10.670  17.121  0.00  0.00    +0.000 A 
ATOM     15  C   UNL     1      -2.835   9.928  16.710  0.00  0.00    +0.000 A 
ATOM     16  C   UNL     1      -1.619  10.054  17.378  0.00  0.00    +0.000 A 
ENDBRANCH   3  11
BRANCH   1  17
ATOM     17  N   UNL     1       1.842   8.983  17.672  0.00  0.00    +0.000 N 
ATOM     18  H   UNL     1       2.299   9.458  16.903  0.00  0.00    +0.000 HD
BRANCH  17  22
ATOM     19  C   UNL     1       4.239   5.547  18.950  0.00  0.00    +0.000 A 
ATOM     20  C   UNL     1       3.090   5.952  19.622  0.00  0.00    +0.000 A 
ATOM     21  C   UNL     1       2.313   7.061  19.197  0.00  0.00    +0.000 A 
ATOM     22  C   UNL     1       2.647   7.816  18.063  0.00  0.00    +0.000 A 
ATOM     23  C   UNL     1       3.833   7.415  17.394  0.00  0.00    +0.000 A 
ATOM     24  C   UNL     1       4.628   6.287  17.818  0.00  0.00    +0.000 A 
BRANCH  19  26
ATOM     25  C   UNL     1       4.489   3.196  19.449  0.00  0.00    +0.000 C 
ATOM     26  O   UNL     1       5.033   4.511  19.380  0.00  0.00    +0.000 OA
ENDBRANCH  19  26
BRANCH  24  27
ATOM     27  O   UNL     1       5.734   6.033  17.025  0.00  0.00    +0.000 OA
ATOM     28  C   UNL     1       6.985   6.669  17.318  0.00  0.00    +0.000 C 
ENDBRANCH  24  27
ENDBRANCH  17  22
ENDBRANCH   1  17
TORSDOF 5
ENDMDL
