MODEL 1
REMARK VINA RESULT:      -7.9      0.000      0.000
REMARK  Name = 
REMARK  3 active torsions:
REMARK  status: ('A' for Active; 'I' for Inactive)
REMARK    1  A    between atoms: C_5  and  C_6
REMARK    2  A    between atoms: C_8  and  C_9
REMARK    3  A    between atoms: C_15  and  C_16
REMARK                            x       y       z     vdW  Elec       q    Type
REMARK                         _______ _______ _______ _____ _____    ______ ____
ROOT
ATOM      1  C   UNL     1       2.826   7.154  18.504  0.00  0.00    +0.000 A 
ATOM      2  C   UNL     1       3.833   6.976  17.556  0.00  0.00    +0.000 A 
ATOM      3  C   UNL     1       4.412   5.719  17.388  0.00  0.00    +0.000 A 
ATOM      4  C   UNL     1       3.990   4.676  18.205  0.00  0.00    +0.000 A 
ATOM      5  C   UNL     1       3.019   4.926  19.166  0.00  0.00    +0.000 A 
ATOM      6  N   UNL     1       2.424   6.137  19.309  0.00  0.00    +0.000 NA
ENDROOT
BRANCH   1  11
ATOM      7 CL   UNL     1      -0.036  12.414  19.228  0.00  0.00    +0.000 Cl
ATOM      8  C   UNL     1       0.790  10.918  19.027  0.00  0.00    +0.000 A 
ATOM      9  C   UNL     1       1.536  10.691  17.878  0.00  0.00    +0.000 A 
ATOM     10  C   UNL     1       2.195   9.469  17.708  0.00  0.00    +0.000 A 
ATOM     11  C   UNL     1       2.133   8.451  18.684  0.00  0.00    +0.000 A 
ATOM     12  C   UNL     1       1.368   8.715  19.836  0.00  0.00    +0.000 A 
ATOM     13  C   UNL     1       0.704   9.937  20.009  0.00  0.00    +0.000 A 
ENDBRANCH   1  11
BRANCH   3  14
ATOM     14  C   UNL     1       5.442   5.524  16.381  0.00  0.00    +0.000 A 
ATOM     15  C   UNL     1       5.372   4.886  15.110  0.00  0.00    +0.000 A 
ATOM     16  C   UNL     1       6.632   4.965  14.564  0.00  0.00    +0.000 A 
ATOM     17  O   UNL     1       7.477   5.600  15.413  0.00  0.00    +0.000 OA
ATOM     18  C   UNL     1       6.753   5.936  16.512  0.00  0.00    +0.000 A 
ENDBRANCH   3  14
BRANCH   5  19
ATOM     19  C   UNL     1       2.561   3.896  20.111  0.00  0.00    +0.000 A 
ATOM     20  C   UNL     1       1.364   3.825  20.804  0.00  0.00    +0.000 A 
ATOM     21  C   UNL     1       1.280   2.678  21.650  0.00  0.00    +0.000 A 
ATOM     22  C   UNL     1       2.422   1.911  21.590  0.00  0.00    +0.000 A 
ATOM     23  S   UNL     1       3.578   2.568  20.523  0.00  0.00    +0.000 S 
ENDBRANCH   5  19
TORSDOF 3
ENDMDL
MODEL 2
REMARK VINA RESULT:      -7.9      0.054      1.005
REMARK  Name = 
REMARK  3 active torsions:
REMARK  status: ('A' for Active; 'I' for Inactive)
REMARK    1  A    between atoms: C_5  and  C_6
REMARK    2  A    between atoms: C_8  and  C_9
REMARK    3  A    between atoms: C_15  and  C_16
REMARK                            x       y       z     vdW  Elec       q    Type
REMARK                         _______ _______ _______ _____ _____    ______ ____
ROOT
ATOM      1  C   UNL     1       2.850   7.170  18.527  0.00  0.00    +0.000 A 
ATOM      2  C   UNL     1       3.858   6.994  17.580  0.00  0.00    +0.000 A 
ATOM      3  C   UNL     1       4.436   5.737  17.408  0.00  0.00    +0.000 A 
ATOM      4  C   UNL     1       4.012   4.692  18.221  0.00  0.00    +0.000 A 
ATOM      5  C   UNL     1       3.041   4.939  19.183  0.00  0.00    +0.000 A 
ATOM      6  N   UNL     1       2.446   6.150  19.329  0.00  0.00    +0.000 NA
ENDROOT
BRANCH   1  11
ATOM      7 CL   UNL     1       0.068  12.468  19.282  0.00  0.00    +0.000 Cl
ATOM      8  C   UNL     1       0.852  10.953  19.060  0.00  0.00    +0.000 A 
ATOM      9  C   UNL     1       0.718   9.960  20.023  0.00  0.00    +0.000 A 
ATOM     10  C   UNL     1       1.368   8.733  19.850  0.00  0.00    +0.000 A 
ATOM     11  C   UNL     1       2.157   8.467  18.710  0.00  0.00    +0.000 A 
ATOM     12  C   UNL     1       2.270   9.495  17.755  0.00  0.00    +0.000 A 
ATOM     13  C   UNL     1       1.623  10.726  17.926  0.00  0.00    +0.000 A 
ENDBRANCH   1  11
BRANCH   3  14
ATOM     14  C   UNL     1       5.467   5.544  16.402  0.00  0.00    +0.000 A 
ATOM     15  C   UNL     1       5.407   4.880  15.144  0.00  0.00    +0.000 A 
ATOM     16  C   UNL     1       6.663   4.974  14.593  0.00  0.00    +0.000 A 
ATOM     17  O   UNL     1       7.497   5.646  15.425  0.00  0.00    +0.000 OA
ATOM     18  C   UNL     1       6.769   5.988  16.520  0.00  0.00    +0.000 A 
ENDBRANCH   3  14
BRANCH   5  19
ATOM     19  C   UNL     1       2.580   3.907  20.123  0.00  0.00    +0.000 A 
ATOM     20  C   UNL     1       1.382   3.833  20.813  0.00  0.00    +0.000 A 
ATOM     21  C   UNL     1       1.296   2.685  21.656  0.00  0.00    +0.000 A 
ATOM     22  C   UNL     1       2.439   1.918  21.598  0.00  0.00    +0.000 A 
ATOM     23  S   UNL     1       3.597   2.579  20.536  0.00  0.00    +0.000 S 
ENDBRANCH   5  19
TORSDOF 3
ENDMDL
MODEL 3
REMARK VINA RESULT:      -7.4      2.379      4.984
REMARK  Name = 
REMARK  3 active torsions:
REMARK  status: ('A' for Active; 'I' for Inactive)
REMARK    1  A    between atoms: C_5  and  C_6
REMARK    2  A    between atoms: C_8  and  C_9
REMARK    3  A    between atoms: C_15  and  C_16
REMARK                            x       y       z     vdW  Elec       q    Type
REMARK                         _______ _______ _______ _____ _____    ______ ____
ROOT
ATOM      1  C   UNL     1       2.688   6.883  18.749  0.00  0.00    +0.000 A 
ATOM      2  C   UNL     1       2.291   5.903  19.659  0.00  0.00    +0.000 A 
ATOM      3  C   UNL     1       2.878   4.639  19.616  0.00  0.00    +0.000 A 
ATOM      4  C   UNL     1       3.826   4.377  18.633  0.00  0.00    +0.000 A 
ATOM      5  C   UNL     1       4.144   5.377  17.722  0.00  0.00    +0.000 A 
ATOM      6  N   UNL     1       3.605   6.621  17.782  0.00  0.00    +0.000 NA
ENDROOT
BRANCH   1  11
ATOM      7 CL   UNL     1       0.434  12.475  18.895  0.00  0.00    +0.000 Cl
ATOM      8  C   UNL     1       1.086  10.884  18.859  0.00  0.00    +0.000 A 
ATOM      9  C   UNL     1       1.835  10.470  17.765  0.00  0.00    +0.000 A 
ATOM     10  C   UNL     1       2.353   9.171  17.729  0.00  0.00    +0.000 A 
ATOM     11  C   UNL     1       2.144   8.260  18.787  0.00  0.00    +0.000 A 
ATOM     12  C   UNL     1       1.381   8.713  19.880  0.00  0.00    +0.000 A 
ATOM     13  C   UNL     1       0.858  10.013  19.919  0.00  0.00    +0.000 A 
ENDBRANCH   1  11
BRANCH   3  14
ATOM     14  C   UNL     1       2.488   3.625  20.581  0.00  0.00    +0.000 A 
ATOM     15  C   UNL     1       1.209   3.329  21.133  0.00  0.00    +0.000 A 
ATOM     16  C   UNL     1       1.394   2.285  22.008  0.00  0.00    +0.000 A 
ATOM     17  O   UNL     1       2.700   1.920  22.041  0.00  0.00    +0.000 OA
ATOM     18  C   UNL     1       3.359   2.734  21.177  0.00  0.00    +0.000 A 
ENDBRANCH   3  14
BRANCH   5  19
ATOM     19  C   UNL     1       5.089   5.165  16.615  0.00  0.00    +0.000 A 
ATOM     20  C   UNL     1       4.914   4.434  15.453  0.00  0.00    +0.000 A 
ATOM     21  C   UNL     1       6.069   4.441  14.614  0.00  0.00    +0.000 A 
ATOM     22  C   UNL     1       7.100   5.168  15.165  0.00  0.00    +0.000 A 
ATOM     23  S   UNL     1       6.675   5.833  16.677  0.00  0.00    +0.000 S 
ENDBRANCH   5  19
TORSDOF 3
ENDMDL
MODEL 4
REMARK VINA RESULT:      -7.4      2.383      5.085
REMARK  Name = 
REMARK  3 active torsions:
REMARK  status: ('A' for Active; 'I' for Inactive)
REMARK    1  A    between atoms: C_5  and  C_6
REMARK    2  A    between atoms: C_8  and  C_9
REMARK    3  A    between atoms: C_15  and  C_16
REMARK                            x       y       z     vdW  Elec       q    Type
REMARK                         _______ _______ _______ _____ _____    ______ ____
ROOT
ATOM      1  C   UNL     1       2.683   6.876  18.751  0.00  0.00    +0.000 A 
ATOM      2  C   UNL     1       2.288   5.898  19.662  0.00  0.00    +0.000 A 
ATOM      3  C   UNL     1       2.878   4.635  19.624  0.00  0.00    +0.000 A 
ATOM      4  C   UNL     1       3.827   4.373  18.642  0.00  0.00    +0.000 A 
ATOM      5  C   UNL     1       4.144   5.371  17.729  0.00  0.00    +0.000 A 
ATOM      6  N   UNL     1       3.602   6.614  17.785  0.00  0.00    +0.000 NA
ENDROOT
BRANCH   1  11
ATOM      7 CL   UNL     1       0.496  12.495  18.896  0.00  0.00    +0.000 Cl
ATOM      8  C   UNL     1       1.111  10.889  18.849  0.00  0.00    +0.000 A 
ATOM      9  C   UNL     1       0.861  10.023  19.907  0.00  0.00    +0.000 A 
ATOM     10  C   UNL     1       1.372   8.722  19.875  0.00  0.00    +0.000 A 
ATOM     11  C   UNL     1       2.136   8.252  18.785  0.00  0.00    +0.000 A 
ATOM     12  C   UNL     1       2.369   9.156  17.730  0.00  0.00    +0.000 A 
ATOM     13  C   UNL     1       1.861  10.461  17.759  0.00  0.00    +0.000 A 
ENDBRANCH   1  11
BRANCH   3  14
ATOM     14  C   UNL     1       2.489   3.622  20.591  0.00  0.00    +0.000 A 
ATOM     15  C   UNL     1       1.215   3.338  21.158  0.00  0.00    +0.000 A 
ATOM     16  C   UNL     1       1.399   2.290  22.028  0.00  0.00    +0.000 A 
ATOM     17  O   UNL     1       2.701   1.911  22.044  0.00  0.00    +0.000 OA
ATOM     18  C   UNL     1       3.358   2.721  21.173  0.00  0.00    +0.000 A 
ENDBRANCH   3  14
BRANCH   5  19
ATOM     19  C   UNL     1       5.090   5.158  16.623  0.00  0.00    +0.000 A 
ATOM     20  C   UNL     1       4.925   4.408  15.472  0.00  0.00    +0.000 A 
ATOM     21  C   UNL     1       6.078   4.422  14.631  0.00  0.00    +0.000 A 
ATOM     22  C   UNL     1       7.099   5.173  15.170  0.00  0.00    +0.000 A 
ATOM     23  S   UNL     1       6.666   5.853  16.672  0.00  0.00    +0.000 S 
ENDBRANCH   5  19
TORSDOF 3
ENDMDL
MODEL 5
REMARK VINA RESULT:      -7.1      3.624      6.905
REMARK  Name = 
REMARK  3 active torsions:
REMARK  status: ('A' for Active; 'I' for Inactive)
REMARK    1  A    between atoms: C_5  and  C_6
REMARK    2  A    between atoms: C_8  and  C_9
REMARK    3  A    between atoms: C_15  and  C_16
REMARK                            x       y       z     vdW  Elec       q    Type
REMARK                         _______ _______ _______ _____ _____    ______ ____
ROOT
ATOM      1  C   UNL     1       3.861   5.516  17.689  0.00  0.00    +0.000 A 
ATOM      2  C   UNL     1       3.583   4.520  18.624  0.00  0.00    +0.000 A 
ATOM      3  C   UNL     1       2.683   4.772  19.659  0.00  0.00    +0.000 A 
ATOM      4  C   UNL     1       2.112   6.037  19.752  0.00  0.00    +0.000 A 
ATOM      5  C   UNL     1       2.467   7.005  18.821  0.00  0.00    +0.000 A 
ATOM      6  N   UNL     1       3.311   6.754  17.789  0.00  0.00    +0.000 NA
ENDROOT
BRANCH   1  11
ATOM      7 CL   UNL     1       7.487   4.582  12.961  0.00  0.00    +0.000 Cl
ATOM      8  C   UNL     1       6.462   4.851  14.316  0.00  0.00    +0.000 A 
ATOM      9  C   UNL     1       6.037   3.773  15.083  0.00  0.00    +0.000 A 
ATOM     10  C   UNL     1       5.192   3.990  16.177  0.00  0.00    +0.000 A 
ATOM     11  C   UNL     1       4.760   5.285  16.534  0.00  0.00    +0.000 A 
ATOM     12  C   UNL     1       5.211   6.353  15.735  0.00  0.00    +0.000 A 
ATOM     13  C   UNL     1       6.055   6.141  14.638  0.00  0.00    +0.000 A 
ENDBRANCH   1  11
BRANCH   3  14
ATOM     14  C   UNL     1       2.369   3.727  20.618  0.00  0.00    +0.000 A 
ATOM     15  C   UNL     1       1.119   3.346  21.182  0.00  0.00    +0.000 A 
ATOM     16  C   UNL     1       1.380   2.308  22.045  0.00  0.00    +0.000 A 
ATOM     17  O   UNL     1       2.706   2.026  22.060  0.00  0.00    +0.000 OA
ATOM     18  C   UNL     1       3.302   2.888  21.195  0.00  0.00    +0.000 A 
ENDBRANCH   3  14
BRANCH   5  19
ATOM     19  C   UNL     1       1.958   8.383  18.883  0.00  0.00    +0.000 A 
ATOM     20  C   UNL     1       2.053   9.387  17.934  0.00  0.00    +0.000 A 
ATOM     21  C   UNL     1       1.450  10.610  18.357  0.00  0.00    +0.000 A 
ATOM     22  C   UNL     1       0.921  10.511  19.624  0.00  0.00    +0.000 A 
ATOM     23  S   UNL     1       1.150   8.958  20.292  0.00  0.00    +0.000 S 
ENDBRANCH   5  19
TORSDOF 3
ENDMDL
MODEL 6
REMARK VINA RESULT:      -7.1      3.624      6.868
REMARK  Name = 
REMARK  3 active torsions:
REMARK  status: ('A' for Active; 'I' for Inactive)
REMARK    1  A    between atoms: C_5  and  C_6
REMARK    2  A    between atoms: C_8  and  C_9
REMARK    3  A    between atoms: C_15  and  C_16
REMARK                            x       y       z     vdW  Elec       q    Type
REMARK                         _______ _______ _______ _____ _____    ______ ____
ROOT
ATOM      1  C   UNL     1       3.847   5.525  17.687  0.00  0.00    +0.000 A 
ATOM      2  C   UNL     1       3.573   4.527  18.622  0.00  0.00    +0.000 A 
ATOM      3  C   UNL     1       2.679   4.778  19.661  0.00  0.00    +0.000 A 
ATOM      4  C   UNL     1       2.108   6.042  19.759  0.00  0.00    +0.000 A 
ATOM      5  C   UNL     1       2.458   7.011  18.828  0.00  0.00    +0.000 A 
ATOM      6  N   UNL     1       3.298   6.762  17.791  0.00  0.00    +0.000 NA
ENDROOT
BRANCH   1  11
ATOM      7 CL   UNL     1       7.517   4.582  12.994  0.00  0.00    +0.000 Cl
ATOM      8  C   UNL     1       6.461   4.849  14.326  0.00  0.00    +0.000 A 
ATOM      9  C   UNL     1       6.064   6.143  14.643  0.00  0.00    +0.000 A 
ATOM     10  C   UNL     1       5.218   6.361  15.735  0.00  0.00    +0.000 A 
ATOM     11  C   UNL     1       4.741   5.295  16.528  0.00  0.00    +0.000 A 
ATOM     12  C   UNL     1       5.162   3.998  16.177  0.00  0.00    +0.000 A 
ATOM     13  C   UNL     1       6.012   3.775  15.086  0.00  0.00    +0.000 A 
ENDBRANCH   1  11
BRANCH   3  14
ATOM     14  C   UNL     1       2.369   3.730  20.621  0.00  0.00    +0.000 A 
ATOM     15  C   UNL     1       1.121   3.348  21.189  0.00  0.00    +0.000 A 
ATOM     16  C   UNL     1       1.386   2.309  22.049  0.00  0.00    +0.000 A 
ATOM     17  O   UNL     1       2.713   2.028  22.058  0.00  0.00    +0.000 OA
ATOM     18  C   UNL     1       3.304   2.891  21.192  0.00  0.00    +0.000 A 
ENDBRANCH   3  14
BRANCH   5  19
ATOM     19  C   UNL     1       1.949   8.390  18.894  0.00  0.00    +0.000 A 
ATOM     20  C   UNL     1       2.037   9.394  17.945  0.00  0.00    +0.000 A 
ATOM     21  C   UNL     1       1.437  10.616  18.373  0.00  0.00    +0.000 A 
ATOM     22  C   UNL     1       0.918  10.516  19.644  0.00  0.00    +0.000 A 
ATOM     23  S   UNL     1       1.153   8.964  20.309  0.00  0.00    +0.000 S 
ENDBRANCH   5  19
TORSDOF 3
ENDMDL
MODEL 7
REMARK VINA RESULT:      -7.0      4.065      4.856
REMARK  Name = 
REMARK  3 active torsions:
REMARK  status: ('A' for Active; 'I' for Inactive)
REMARK    1  A    between atoms: C_5  and  C_6
REMARK    2  A    between atoms: C_8  and  C_9
REMARK    3  A    between atoms: C_15  and  C_16
REMARK                            x       y       z     vdW  Elec       q    Type
REMARK                         _______ _______ _______ _____ _____    ______ ____
ROOT
ATOM      1  C   UNL     1       6.224   5.776  16.917  0.00  0.00    +0.000 A 
ATOM      2  C   UNL     1       6.443   5.342  15.611  0.00  0.00    +0.000 A 
ATOM      3  C   UNL     1       5.613   4.370  15.054  0.00  0.00    +0.000 A 
ATOM      4  C   UNL     1       4.602   3.828  15.840  0.00  0.00    +0.000 A 
ATOM      5  C   UNL     1       4.463   4.263  17.152  0.00  0.00    +0.000 A 
ATOM      6  N   UNL     1       5.243   5.237  17.687  0.00  0.00    +0.000 NA
ENDROOT
BRANCH   1  11
ATOM      7 CL   UNL     1       9.550  10.144  19.413  0.00  0.00    +0.000 Cl
ATOM      8  C   UNL     1       8.593   8.901  18.708  0.00  0.00    +0.000 A 
ATOM      9  C   UNL     1       8.662   7.608  19.211  0.00  0.00    +0.000 A 
ATOM     10  C   UNL     1       7.895   6.594  18.628  0.00  0.00    +0.000 A 
ATOM     11  C   UNL     1       7.034   6.849  17.539  0.00  0.00    +0.000 A 
ATOM     12  C   UNL     1       6.988   8.171  17.055  0.00  0.00    +0.000 A 
ATOM     13  C   UNL     1       7.757   9.189  17.634  0.00  0.00    +0.000 A 
ENDBRANCH   1  11
BRANCH   3  14
ATOM     14  C   UNL     1       5.822   3.936  13.683  0.00  0.00    +0.000 A 
ATOM     15  C   UNL     1       4.917   3.333  12.765  0.00  0.00    +0.000 A 
ATOM     16  C   UNL     1       5.625   3.111  11.607  0.00  0.00    +0.000 A 
ATOM     17  O   UNL     1       6.907   3.529  11.749  0.00  0.00    +0.000 OA
ATOM     18  C   UNL     1       7.023   4.026  13.007  0.00  0.00    +0.000 A 
ENDBRANCH   3  14
BRANCH   5  19
ATOM     19  C   UNL     1       3.461   3.699  18.069  0.00  0.00    +0.000 A 
ATOM     20  C   UNL     1       2.087   3.631  17.916  0.00  0.00    +0.000 A 
ATOM     21  C   UNL     1       1.434   3.026  19.033  0.00  0.00    +0.000 A 
ATOM     22  C   UNL     1       2.328   2.660  20.014  0.00  0.00    +0.000 A 
ATOM     23  S   UNL     1       3.934   3.043  19.589  0.00  0.00    +0.000 S 
ENDBRANCH   5  19
TORSDOF 3
ENDMDL
MODEL 8
REMARK VINA RESULT:      -6.9      3.987      4.798
REMARK  Name = 
REMARK  3 active torsions:
REMARK  status: ('A' for Active; 'I' for Inactive)
REMARK    1  A    between atoms: C_5  and  C_6
REMARK    2  A    between atoms: C_8  and  C_9
REMARK    3  A    between atoms: C_15  and  C_16
REMARK                            x       y       z     vdW  Elec       q    Type
REMARK                         _______ _______ _______ _____ _____    ______ ____
ROOT
ATOM      1  C   UNL     1       6.251   5.823  16.915  0.00  0.00    +0.000 A 
ATOM      2  C   UNL     1       6.498   5.359  15.623  0.00  0.00    +0.000 A 
ATOM      3  C   UNL     1       5.659   4.399  15.059  0.00  0.00    +0.000 A 
ATOM      4  C   UNL     1       4.611   3.898  15.823  0.00  0.00    +0.000 A 
ATOM      5  C   UNL     1       4.445   4.362  17.122  0.00  0.00    +0.000 A 
ATOM      6  N   UNL     1       5.233   5.324  17.663  0.00  0.00    +0.000 NA
ENDROOT
BRANCH   1  11
ATOM      7 CL   UNL     1       9.562  10.151  19.499  0.00  0.00    +0.000 Cl
ATOM      8  C   UNL     1       8.627   8.914  18.755  0.00  0.00    +0.000 A 
ATOM      9  C   UNL     1       7.809   9.223  17.675  0.00  0.00    +0.000 A 
ATOM     10  C   UNL     1       7.038   8.219  17.079  0.00  0.00    +0.000 A 
ATOM     11  C   UNL     1       7.071   6.886  17.541  0.00  0.00    +0.000 A 
ATOM     12  C   UNL     1       7.911   6.609  18.637  0.00  0.00    +0.000 A 
ATOM     13  C   UNL     1       8.684   7.611  19.238  0.00  0.00    +0.000 A 
ENDBRANCH   1  11
BRANCH   3  14
ATOM     14  C   UNL     1       5.897   3.934  13.703  0.00  0.00    +0.000 A 
ATOM     15  C   UNL     1       5.047   3.212  12.819  0.00  0.00    +0.000 A 
ATOM     16  C   UNL     1       5.764   3.014  11.663  0.00  0.00    +0.000 A 
ATOM     17  O   UNL     1       7.001   3.558  11.773  0.00  0.00    +0.000 OA
ATOM     18  C   UNL     1       7.078   4.113  13.010  0.00  0.00    +0.000 A 
ENDBRANCH   3  14
BRANCH   5  19
ATOM     19  C   UNL     1       3.401   3.842  18.018  0.00  0.00    +0.000 A 
ATOM     20  C   UNL     1       2.031   4.036  17.960  0.00  0.00    +0.000 A 
ATOM     21  C   UNL     1       1.332   3.384  19.020  0.00  0.00    +0.000 A 
ATOM     22  C   UNL     1       2.190   2.720  19.868  0.00  0.00    +0.000 A 
ATOM     23  S   UNL     1       3.817   2.882  19.387  0.00  0.00    +0.000 S 
ENDBRANCH   5  19
TORSDOF 3
ENDMDL
MODEL 9
REMARK VINA RESULT:      -6.9      4.174      6.498
REMARK  Name = 
REMARK  3 active torsions:
REMARK  status: ('A' for Active; 'I' for Inactive)
REMARK    1  A    between atoms: C_5  and  C_6
REMARK    2  A    between atoms: C_8  and  C_9
REMARK    3  A    between atoms: C_15  and  C_16
REMARK                            x       y       z     vdW  Elec       q    Type
REMARK                         _______ _______ _______ _____ _____    ______ ____
ROOT
ATOM      1  C   UNL     1       5.256   5.179  17.896  0.00  0.00    +0.000 A 
ATOM      2  C   UNL     1       6.042   6.244  18.336  0.00  0.00    +0.000 A 
ATOM      3  C   UNL     1       6.916   6.873  17.450  0.00  0.00    +0.000 A 
ATOM      4  C   UNL     1       7.007   6.391  16.148  0.00  0.00    +0.000 A 
ATOM      5  C   UNL     1       6.236   5.295  15.782  0.00  0.00    +0.000 A 
ATOM      6  N   UNL     1       5.355   4.703  16.628  0.00  0.00    +0.000 NA
ENDROOT
BRANCH   1  11
ATOM      7 CL   UNL     1       1.237   2.498  21.506  0.00  0.00    +0.000 Cl
ATOM      8  C   UNL     1       2.378   3.258  20.467  0.00  0.00    +0.000 A 
ATOM      9  C   UNL     1       3.587   2.630  20.192  0.00  0.00    +0.000 A 
ATOM     10  C   UNL     1       4.520   3.254  19.359  0.00  0.00    +0.000 A 
ATOM     11  C   UNL     1       4.267   4.514  18.775  0.00  0.00    +0.000 A 
ATOM     12  C   UNL     1       3.032   5.121  19.074  0.00  0.00    +0.000 A 
ATOM     13  C   UNL     1       2.095   4.501  19.910  0.00  0.00    +0.000 A 
ENDBRANCH   1  11
BRANCH   3  14
ATOM     14  C   UNL     1       7.716   8.000  17.898  0.00  0.00    +0.000 A 
ATOM     15  C   UNL     1       7.763   9.339  17.417  0.00  0.00    +0.000 A 
ATOM     16  C   UNL     1       8.698   9.997  18.182  0.00  0.00    +0.000 A 
ATOM     17  O   UNL     1       9.237   9.154  19.098  0.00  0.00    +0.000 OA
ATOM     18  C   UNL     1       8.641   7.947  18.922  0.00  0.00    +0.000 A 
ENDBRANCH   3  14
BRANCH   5  19
ATOM     19  C   UNL     1       6.316   4.686  14.446  0.00  0.00    +0.000 A 
ATOM     20  C   UNL     1       5.445   3.792  13.846  0.00  0.00    +0.000 A 
ATOM     21  C   UNL     1       5.863   3.403  12.538  0.00  0.00    +0.000 A 
ATOM     22  C   UNL     1       7.051   4.000  12.179  0.00  0.00    +0.000 A 
ATOM     23  S   UNL     1       7.650   5.019  13.408  0.00  0.00    +0.000 S 
ENDBRANCH   5  19
TORSDOF 3
ENDMDL
