MODEL 1
REMARK VINA RESULT:      -8.5      0.000      0.000
REMARK  Name = 
REMARK  7 active torsions:
REMARK  status: ('A' for Active; 'I' for Inactive)
REMARK    1  A    between atoms: C_1  and  C_2
REMARK    2  A    between atoms: C_8  and  N_9
REMARK    3  A    between atoms: N_9  and  C_10
REMARK    4  A    between atoms: C_10  and  N_12
REMARK    5  A    between atoms: N_12  and  C_13
REMARK    6  A    between atoms: C_19  and  C_20
REMARK    7  A    between atoms: N_22  and  C_23
REMARK                            x       y       z     vdW  Elec       q    Type
REMARK                         _______ _______ _______ _____ _____    ______ ____
ROOT
ATOM      1  C   UNL     1       1.011   5.080  20.809  0.00  0.00    +0.000 C 
ATOM      2  C   UNL     1       1.158   4.319  19.491  0.00  0.00    +0.000 C 
ATOM      3  C   UNL     1       0.948   2.819  19.860  0.00  0.00    +0.000 C 
ATOM      4  C   UNL     1       1.298   1.846  18.739  0.00  0.00    +0.000 C 
ATOM      5  C   UNL     1       2.762   2.002  18.353  0.00  0.00    +0.000 C 
ATOM      6  C   UNL     1       3.065   3.440  18.082  0.00  0.00    +0.000 A 
ATOM      7  S   UNL     1       4.226   3.863  16.933  0.00  0.00    +0.000 S 
ATOM      8  C   UNL     1       4.203   5.494  17.424  0.00  0.00    +0.000 A 
ATOM      9  C   UNL     1       3.118   5.792  18.237  0.00  0.00    +0.000 A 
ATOM     10  C   UNL     1       2.440   4.538  18.657  0.00  0.00    +0.000 A 
ENDROOT
BRANCH   9  11
ATOM     11  C   UNL     1       2.724   7.142  18.672  0.00  0.00    +0.000 C 
ATOM     12  O   UNL     1       2.785   7.408  19.862  0.00  0.00    +0.000 OA
ATOM     13  N   UNL     1       2.238   8.008  17.697  0.00  0.00    +0.000 N 
ATOM     14  H   UNL     1       2.217   7.677  16.741  0.00  0.00    +0.000 HD
BRANCH  13  15
ATOM     15  C   UNL     1       1.723   9.313  17.956  0.00  0.00    +0.000 A 
ATOM     16  C   UNL     1       2.494  10.480  17.841  0.00  0.00    +0.000 A 
ATOM     17  C   UNL     1       1.994  11.731  18.195  0.00  0.00    +0.000 A 
ATOM     18  C   UNL     1       0.688  11.854  18.646  0.00  0.00    +0.000 A 
ATOM     19  C   UNL     1      -0.118  10.719  18.720  0.00  0.00    +0.000 A 
ATOM     20  C   UNL     1       0.395   9.455  18.370  0.00  0.00    +0.000 A 
ENDBRANCH  13  15
ENDBRANCH   9  11
BRANCH   8  21
ATOM     21  N   UNL     1       5.303   6.131  16.873  0.00  0.00    +0.000 N 
ATOM     22  H   UNL     1       5.034   6.763  16.127  0.00  0.00    +0.000 HD
BRANCH  21  23
ATOM     23  C   UNL     1       6.548   5.565  16.652  0.00  0.00    +0.000 C 
ATOM     24  S   UNL     1       7.542   4.756  17.715  0.00  0.00    +0.000 S 
BRANCH  23  25
ATOM     25  N   UNL     1       7.054   5.818  15.385  0.00  0.00    +0.000 N 
ATOM     26  H   UNL     1       7.854   6.444  15.364  0.00  0.00    +0.000 HD
BRANCH  25  27
ATOM     27  C   UNL     1       6.866   5.051  14.213  0.00  0.00    +0.000 A 
ATOM     28  C   UNL     1       7.773   5.199  13.162  0.00  0.00    +0.000 A 
ATOM     29  C   UNL     1       7.605   4.466  11.982  0.00  0.00    +0.000 A 
ATOM     30  C   UNL     1       6.561   3.549  11.865  0.00  0.00    +0.000 A 
ATOM     31  C   UNL     1       5.689   3.357  12.932  0.00  0.00    +0.000 A 
ATOM     32  C   UNL     1       5.844   4.103  14.102  0.00  0.00    +0.000 A 
ENDBRANCH  25  27
ENDBRANCH  23  25
ENDBRANCH  21  23
ENDBRANCH   8  21
TORSDOF 6
ENDMDL
MODEL 2
REMARK VINA RESULT:      -8.3      0.122      1.267
REMARK  Name = 
REMARK  7 active torsions:
REMARK  status: ('A' for Active; 'I' for Inactive)
REMARK    1  A    between atoms: C_1  and  C_2
REMARK    2  A    between atoms: C_8  and  N_9
REMARK    3  A    between atoms: N_9  and  C_10
REMARK    4  A    between atoms: C_10  and  N_12
REMARK    5  A    between atoms: N_12  and  C_13
REMARK    6  A    between atoms: C_19  and  C_20
REMARK    7  A    between atoms: N_22  and  C_23
REMARK                            x       y       z     vdW  Elec       q    Type
REMARK                         _______ _______ _______ _____ _____    ______ ____
ROOT
ATOM      1  C   UNL     1       1.009   4.929  20.788  0.00  0.00    +0.000 C 
ATOM      2  C   UNL     1       1.149   4.230  19.435  0.00  0.00    +0.000 C 
ATOM      3  C   UNL     1       0.926   2.716  19.732  0.00  0.00    +0.000 C 
ATOM      4  C   UNL     1       1.267   1.794  18.567  0.00  0.00    +0.000 C 
ATOM      5  C   UNL     1       2.733   1.956  18.187  0.00  0.00    +0.000 C 
ATOM      6  C   UNL     1       3.048   3.402  17.984  0.00  0.00    +0.000 A 
ATOM      7  S   UNL     1       4.212   3.869  16.856  0.00  0.00    +0.000 S 
ATOM      8  C   UNL     1       4.203   5.475  17.423  0.00  0.00    +0.000 A 
ATOM      9  C   UNL     1       3.121   5.744  18.251  0.00  0.00    +0.000 A 
ATOM     10  C   UNL     1       2.432   4.477  18.611  0.00  0.00    +0.000 A 
ENDROOT
BRANCH   9  11
ATOM     11  C   UNL     1       2.739   7.075  18.749  0.00  0.00    +0.000 C 
ATOM     12  O   UNL     1       2.804   7.284  19.950  0.00  0.00    +0.000 OA
ATOM     13  N   UNL     1       2.258   7.990  17.817  0.00  0.00    +0.000 N 
ATOM     14  H   UNL     1       2.233   7.704  16.846  0.00  0.00    +0.000 HD
BRANCH  13  15
ATOM     15  C   UNL     1       1.754   9.285  18.138  0.00  0.00    +0.000 A 
ATOM     16  C   UNL     1       0.454   9.505  18.619  0.00  0.00    +0.000 A 
ATOM     17  C   UNL     1      -0.044  10.789  18.832  0.00  0.00    +0.000 A 
ATOM     18  C   UNL     1       0.761  11.893  18.599  0.00  0.00    +0.000 A 
ATOM     19  C   UNL     1       2.074  11.703  18.172  0.00  0.00    +0.000 A 
ATOM     20  C   UNL     1       2.571  10.403  17.950  0.00  0.00    +0.000 A 
ENDBRANCH  13  15
ENDBRANCH   9  11
BRANCH   8  21
ATOM     21  N   UNL     1       5.308   6.128  16.902  0.00  0.00    +0.000 N 
ATOM     22  H   UNL     1       5.049   6.768  16.160  0.00  0.00    +0.000 HD
BRANCH  21  23
ATOM     23  C   UNL     1       6.562   5.574  16.696  0.00  0.00    +0.000 C 
ATOM     24  S   UNL     1       7.551   4.777  17.772  0.00  0.00    +0.000 S 
BRANCH  23  25
ATOM     25  N   UNL     1       7.079   5.831  15.435  0.00  0.00    +0.000 N 
ATOM     26  H   UNL     1       7.875   6.462  15.423  0.00  0.00    +0.000 HD
BRANCH  25  27
ATOM     27  C   UNL     1       6.910   5.063  14.260  0.00  0.00    +0.000 A 
ATOM     28  C   UNL     1       5.844   4.163  14.196  0.00  0.00    +0.000 A 
ATOM     29  C   UNL     1       5.658   3.376  13.054  0.00  0.00    +0.000 A 
ATOM     30  C   UNL     1       6.506   3.518  11.956  0.00  0.00    +0.000 A 
ATOM     31  C   UNL     1       7.535   4.455  11.995  0.00  0.00    +0.000 A 
ATOM     32  C   UNL     1       7.732   5.226  13.142  0.00  0.00    +0.000 A 
ENDBRANCH  25  27
ENDBRANCH  23  25
ENDBRANCH  21  23
ENDBRANCH   8  21
TORSDOF 6
ENDMDL
MODEL 3
REMARK VINA RESULT:      -8.3      1.055      1.238
REMARK  Name = 
REMARK  7 active torsions:
REMARK  status: ('A' for Active; 'I' for Inactive)
REMARK    1  A    between atoms: C_1  and  C_2
REMARK    2  A    between atoms: C_8  and  N_9
REMARK    3  A    between atoms: N_9  and  C_10
REMARK    4  A    between atoms: C_10  and  N_12
REMARK    5  A    between atoms: N_12  and  C_13
REMARK    6  A    between atoms: C_19  and  C_20
REMARK    7  A    between atoms: N_22  and  C_23
REMARK                            x       y       z     vdW  Elec       q    Type
REMARK                         _______ _______ _______ _____ _____    ______ ____
ROOT
ATOM      1  C   UNL     1       1.743   5.491  20.918  0.00  0.00    +0.000 C 
ATOM      2  C   UNL     1       1.626   4.550  19.718  0.00  0.00    +0.000 C 
ATOM      3  C   UNL     1       1.463   3.126  20.330  0.00  0.00    +0.000 C 
ATOM      4  C   UNL     1       1.579   1.994  19.315  0.00  0.00    +0.000 C 
ATOM      5  C   UNL     1       2.947   2.031  18.647  0.00  0.00    +0.000 C 
ATOM      6  C   UNL     1       3.218   3.404  18.123  0.00  0.00    +0.000 A 
ATOM      7  S   UNL     1       4.149   3.614  16.732  0.00  0.00    +0.000 S 
ATOM      8  C   UNL     1       4.247   5.297  16.979  0.00  0.00    +0.000 A 
ATOM      9  C   UNL     1       3.340   5.750  17.927  0.00  0.00    +0.000 A 
ATOM     10  C   UNL     1       2.731   4.597  18.640  0.00  0.00    +0.000 A 
ENDROOT
BRANCH   9  11
ATOM     11  C   UNL     1       3.057   7.163  18.229  0.00  0.00    +0.000 C 
ATOM     12  O   UNL     1       3.964   7.973  18.109  0.00  0.00    +0.000 OA
ATOM     13  N   UNL     1       1.786   7.472  18.701  0.00  0.00    +0.000 N 
ATOM     14  H   UNL     1       1.115   6.718  18.775  0.00  0.00    +0.000 HD
BRANCH  13  15
ATOM     15  C   UNL     1       1.374   8.768  19.132  0.00  0.00    +0.000 A 
ATOM     16  C   UNL     1       1.082   9.075  20.470  0.00  0.00    +0.000 A 
ATOM     17  C   UNL     1       0.589  10.322  20.849  0.00  0.00    +0.000 A 
ATOM     18  C   UNL     1       0.403  11.313  19.896  0.00  0.00    +0.000 A 
ATOM     19  C   UNL     1       0.735  11.053  18.567  0.00  0.00    +0.000 A 
ATOM     20  C   UNL     1       1.225   9.788  18.189  0.00  0.00    +0.000 A 
ENDBRANCH  13  15
ENDBRANCH   9  11
BRANCH   8  21
ATOM     21  N   UNL     1       5.234   5.803  16.150  0.00  0.00    +0.000 N 
ATOM     22  H   UNL     1       5.091   5.527  15.186  0.00  0.00    +0.000 HD
BRANCH  21  23
ATOM     23  C   UNL     1       6.579   5.924  16.462  0.00  0.00    +0.000 C 
ATOM     24  S   UNL     1       7.319   6.922  17.571  0.00  0.00    +0.000 S 
BRANCH  23  25
ATOM     25  N   UNL     1       7.406   5.170  15.643  0.00  0.00    +0.000 N 
ATOM     26  H   UNL     1       8.096   4.610  16.135  0.00  0.00    +0.000 HD
BRANCH  25  27
ATOM     27  C   UNL     1       7.173   4.785  14.302  0.00  0.00    +0.000 A 
ATOM     28  C   UNL     1       7.897   5.417  13.288  0.00  0.00    +0.000 A 
ATOM     29  C   UNL     1       7.677   5.071  11.950  0.00  0.00    +0.000 A 
ATOM     30  C   UNL     1       6.771   4.063  11.624  0.00  0.00    +0.000 A 
ATOM     31  C   UNL     1       6.090   3.392  12.635  0.00  0.00    +0.000 A 
ATOM     32  C   UNL     1       6.295   3.750  13.969  0.00  0.00    +0.000 A 
ENDBRANCH  25  27
ENDBRANCH  23  25
ENDBRANCH  21  23
ENDBRANCH   8  21
TORSDOF 6
ENDMDL
MODEL 4
REMARK VINA RESULT:      -8.3      4.917     10.187
REMARK  Name = 
REMARK  7 active torsions:
REMARK  status: ('A' for Active; 'I' for Inactive)
REMARK    1  A    between atoms: C_1  and  C_2
REMARK    2  A    between atoms: C_8  and  N_9
REMARK    3  A    between atoms: N_9  and  C_10
REMARK    4  A    between atoms: C_10  and  N_12
REMARK    5  A    between atoms: N_12  and  C_13
REMARK    6  A    between atoms: C_19  and  C_20
REMARK    7  A    between atoms: N_22  and  C_23
REMARK                            x       y       z     vdW  Elec       q    Type
REMARK                         _______ _______ _______ _____ _____    ______ ____
ROOT
ATOM      1  C   UNL     1      -0.261   8.761  21.787  0.00  0.00    +0.000 C 
ATOM      2  C   UNL     1      -0.328  10.288  21.772  0.00  0.00    +0.000 C 
ATOM      3  C   UNL     1      -1.040  10.680  23.102  0.00  0.00    +0.000 C 
ATOM      4  C   UNL     1      -1.441  12.148  23.186  0.00  0.00    +0.000 C 
ATOM      5  C   UNL     1      -2.401  12.492  22.056  0.00  0.00    +0.000 C 
ATOM      6  C   UNL     1      -1.826  12.051  20.750  0.00  0.00    +0.000 A 
ATOM      7  S   UNL     1      -2.158  12.915  19.340  0.00  0.00    +0.000 S 
ATOM      8  C   UNL     1      -1.477  11.697  18.362  0.00  0.00    +0.000 A 
ATOM      9  C   UNL     1      -0.730  10.781  19.092  0.00  0.00    +0.000 A 
ATOM     10  C   UNL     1      -0.963  10.982  20.547  0.00  0.00    +0.000 A 
ENDROOT
BRANCH   9  11
ATOM     11  C   UNL     1       0.123   9.727  18.520  0.00  0.00    +0.000 C 
ATOM     12  O   UNL     1      -0.239   9.188  17.485  0.00  0.00    +0.000 OA
ATOM     13  N   UNL     1       1.258   9.365  19.239  0.00  0.00    +0.000 N 
ATOM     14  H   UNL     1       1.454   9.870  20.094  0.00  0.00    +0.000 HD
BRANCH  13  15
ATOM     15  C   UNL     1       2.139   8.301  18.881  0.00  0.00    +0.000 A 
ATOM     16  C   UNL     1       2.919   8.310  17.715  0.00  0.00    +0.000 A 
ATOM     17  C   UNL     1       3.696   7.217  17.341  0.00  0.00    +0.000 A 
ATOM     18  C   UNL     1       3.739   6.088  18.146  0.00  0.00    +0.000 A 
ATOM     19  C   UNL     1       3.015   6.072  19.338  0.00  0.00    +0.000 A 
ATOM     20  C   UNL     1       2.224   7.177  19.707  0.00  0.00    +0.000 A 
ENDBRANCH  13  15
ENDBRANCH   9  11
BRANCH   8  21
ATOM     21  N   UNL     1      -1.849  11.931  17.049  0.00  0.00    +0.000 N 
ATOM     22  H   UNL     1      -1.786  12.915  16.813  0.00  0.00    +0.000 HD
BRANCH  21  23
ATOM     23  C   UNL     1      -2.874  11.296  16.366  0.00  0.00    +0.000 C 
ATOM     24  S   UNL     1      -2.833   9.897  15.465  0.00  0.00    +0.000 S 
BRANCH  23  25
ATOM     25  N   UNL     1      -4.063  12.011  16.365  0.00  0.00    +0.000 N 
ATOM     26  H   UNL     1      -4.294  12.453  15.480  0.00  0.00    +0.000 HD
BRANCH  25  27
ATOM     27  C   UNL     1      -5.144  11.887  17.268  0.00  0.00    +0.000 A 
ATOM     28  C   UNL     1      -6.214  12.778  17.161  0.00  0.00    +0.000 A 
ATOM     29  C   UNL     1      -7.291  12.691  18.050  0.00  0.00    +0.000 A 
ATOM     30  C   UNL     1      -7.327  11.687  19.016  0.00  0.00    +0.000 A 
ATOM     31  C   UNL     1      -6.290  10.762  19.089  0.00  0.00    +0.000 A 
ATOM     32  C   UNL     1      -5.205  10.860  18.215  0.00  0.00    +0.000 A 
ENDBRANCH  25  27
ENDBRANCH  23  25
ENDBRANCH  21  23
ENDBRANCH   8  21
TORSDOF 6
ENDMDL
MODEL 5
REMARK VINA RESULT:      -8.2      0.981      1.329
REMARK  Name = 
REMARK  7 active torsions:
REMARK  status: ('A' for Active; 'I' for Inactive)
REMARK    1  A    between atoms: C_1  and  C_2
REMARK    2  A    between atoms: C_8  and  N_9
REMARK    3  A    between atoms: N_9  and  C_10
REMARK    4  A    between atoms: C_10  and  N_12
REMARK    5  A    between atoms: N_12  and  C_13
REMARK    6  A    between atoms: C_19  and  C_20
REMARK    7  A    between atoms: N_22  and  C_23
REMARK                            x       y       z     vdW  Elec       q    Type
REMARK                         _______ _______ _______ _____ _____    ______ ____
ROOT
ATOM      1  C   UNL     1       1.787   5.466  20.840  0.00  0.00    +0.000 C 
ATOM      2  C   UNL     1       1.645   4.524  19.644  0.00  0.00    +0.000 C 
ATOM      3  C   UNL     1       1.410   3.112  20.261  0.00  0.00    +0.000 C 
ATOM      4  C   UNL     1       1.489   1.970  19.255  0.00  0.00    +0.000 C 
ATOM      5  C   UNL     1       2.867   1.941  18.607  0.00  0.00    +0.000 C 
ATOM      6  C   UNL     1       3.207   3.296  18.079  0.00  0.00    +0.000 A 
ATOM      7  S   UNL     1       4.167   3.455  16.700  0.00  0.00    +0.000 S 
ATOM      8  C   UNL     1       4.337   5.134  16.940  0.00  0.00    +0.000 A 
ATOM      9  C   UNL     1       3.437   5.634  17.872  0.00  0.00    +0.000 A 
ATOM     10  C   UNL     1       2.767   4.514  18.582  0.00  0.00    +0.000 A 
ENDROOT
BRANCH   9  11
ATOM     11  C   UNL     1       3.215   7.060  18.161  0.00  0.00    +0.000 C 
ATOM     12  O   UNL     1       4.178   7.811  18.143  0.00  0.00    +0.000 OA
ATOM     13  N   UNL     1       1.923   7.446  18.507  0.00  0.00    +0.000 N 
ATOM     14  H   UNL     1       1.203   6.735  18.505  0.00  0.00    +0.000 HD
BRANCH  13  15
ATOM     15  C   UNL     1       1.552   8.763  18.911  0.00  0.00    +0.000 A 
ATOM     16  C   UNL     1       1.636   9.878  18.064  0.00  0.00    +0.000 A 
ATOM     17  C   UNL     1       1.360  11.167  18.514  0.00  0.00    +0.000 A 
ATOM     18  C   UNL     1       0.958  11.373  19.825  0.00  0.00    +0.000 A 
ATOM     19  C   UNL     1       0.815  10.278  20.675  0.00  0.00    +0.000 A 
ATOM     20  C   UNL     1       1.103   8.977  20.217  0.00  0.00    +0.000 A 
ENDBRANCH  13  15
ENDBRANCH   9  11
BRANCH   8  21
ATOM     21  N   UNL     1       5.358   5.591  16.123  0.00  0.00    +0.000 N 
ATOM     22  H   UNL     1       5.256   5.251  15.173  0.00  0.00    +0.000 HD
BRANCH  21  23
ATOM     23  C   UNL     1       6.688   5.737  16.484  0.00  0.00    +0.000 C 
ATOM     24  S   UNL     1       7.338   6.415  17.858  0.00  0.00    +0.000 S 
BRANCH  23  25
ATOM     25  N   UNL     1       7.576   5.352  15.490  0.00  0.00    +0.000 N 
ATOM     26  H   UNL     1       8.513   5.137  15.817  0.00  0.00    +0.000 HD
BRANCH  25  27
ATOM     27  C   UNL     1       7.266   4.858  14.202  0.00  0.00    +0.000 A 
ATOM     28  C   UNL     1       6.305   3.852  14.082  0.00  0.00    +0.000 A 
ATOM     29  C   UNL     1       5.988   3.331  12.823  0.00  0.00    +0.000 A 
ATOM     30  C   UNL     1       6.594   3.843  11.677  0.00  0.00    +0.000 A 
ATOM     31  C   UNL     1       7.511   4.884  11.786  0.00  0.00    +0.000 A 
ATOM     32  C   UNL     1       7.841   5.392  13.045  0.00  0.00    +0.000 A 
ENDBRANCH  25  27
ENDBRANCH  23  25
ENDBRANCH  21  23
ENDBRANCH   8  21
TORSDOF 6
ENDMDL
MODEL 6
REMARK VINA RESULT:      -7.9      2.758      4.175
REMARK  Name = 
REMARK  7 active torsions:
REMARK  status: ('A' for Active; 'I' for Inactive)
REMARK    1  A    between atoms: C_1  and  C_2
REMARK    2  A    between atoms: C_8  and  N_9
REMARK    3  A    between atoms: N_9  and  C_10
REMARK    4  A    between atoms: C_10  and  N_12
REMARK    5  A    between atoms: N_12  and  C_13
REMARK    6  A    between atoms: C_19  and  C_20
REMARK    7  A    between atoms: N_22  and  C_23
REMARK                            x       y       z     vdW  Elec       q    Type
REMARK                         _______ _______ _______ _____ _____    ______ ____
ROOT
ATOM      1  C   UNL     1       1.194   4.740  20.230  0.00  0.00    +0.000 C 
ATOM      2  C   UNL     1       1.640   4.233  18.858  0.00  0.00    +0.000 C 
ATOM      3  C   UNL     1       1.693   2.681  18.993  0.00  0.00    +0.000 C 
ATOM      4  C   UNL     1       2.355   1.975  17.816  0.00  0.00    +0.000 C 
ATOM      5  C   UNL     1       3.793   2.451  17.665  0.00  0.00    +0.000 C 
ATOM      6  C   UNL     1       3.832   3.944  17.631  0.00  0.00    +0.000 A 
ATOM      7  S   UNL     1       5.008   4.744  16.723  0.00  0.00    +0.000 S 
ATOM      8  C   UNL     1       4.603   6.248  17.415  0.00  0.00    +0.000 A 
ATOM      9  C   UNL     1       3.395   6.214  18.099  0.00  0.00    +0.000 A 
ATOM     10  C   UNL     1       2.938   4.808  18.251  0.00  0.00    +0.000 A 
ENDROOT
BRANCH   9  11
ATOM     11  C   UNL     1       2.692   7.386  18.646  0.00  0.00    +0.000 C 
ATOM     12  O   UNL     1       2.487   7.427  19.849  0.00  0.00    +0.000 OA
ATOM     13  N   UNL     1       2.245   8.341  17.739  0.00  0.00    +0.000 N 
ATOM     14  H   UNL     1       2.459   8.198  16.760  0.00  0.00    +0.000 HD
BRANCH  13  15
ATOM     15  C   UNL     1       1.465   9.485  18.085  0.00  0.00    +0.000 A 
ATOM     16  C   UNL     1       0.062   9.483  18.092  0.00  0.00    +0.000 A 
ATOM     17  C   UNL     1      -0.674  10.640  18.339  0.00  0.00    +0.000 A 
ATOM     18  C   UNL     1      -0.021  11.831  18.619  0.00  0.00    +0.000 A 
ATOM     19  C   UNL     1       1.372  11.850  18.671  0.00  0.00    +0.000 A 
ATOM     20  C   UNL     1       2.111  10.680  18.412  0.00  0.00    +0.000 A 
ENDBRANCH  13  15
ENDBRANCH   9  11
BRANCH   8  21
ATOM     21  N   UNL     1       5.609   7.152  17.114  0.00  0.00    +0.000 N 
ATOM     22  H   UNL     1       5.562   7.455  16.148  0.00  0.00    +0.000 HD
BRANCH  21  23
ATOM     23  C   UNL     1       6.912   7.108  17.584  0.00  0.00    +0.000 C 
ATOM     24  S   UNL     1       7.592   6.094  18.716  0.00  0.00    +0.000 S 
BRANCH  23  25
ATOM     25  N   UNL     1       7.708   8.137  17.100  0.00  0.00    +0.000 N 
ATOM     26  H   UNL     1       7.666   8.270  16.094  0.00  0.00    +0.000 HD
BRANCH  25  27
ATOM     27  C   UNL     1       8.240   9.229  17.823  0.00  0.00    +0.000 A 
ATOM     28  C   UNL     1       8.035  10.521  17.334  0.00  0.00    +0.000 A 
ATOM     29  C   UNL     1       8.562  11.622  18.019  0.00  0.00    +0.000 A 
ATOM     30  C   UNL     1       9.254  11.441  19.215  0.00  0.00    +0.000 A 
ATOM     31  C   UNL     1       9.411  10.160  19.736  0.00  0.00    +0.000 A 
ATOM     32  C   UNL     1       8.902   9.059  19.043  0.00  0.00    +0.000 A 
ENDBRANCH  25  27
ENDBRANCH  23  25
ENDBRANCH  21  23
ENDBRANCH   8  21
TORSDOF 6
ENDMDL
MODEL 7
REMARK VINA RESULT:      -7.6      1.860      3.043
REMARK  Name = 
REMARK  7 active torsions:
REMARK  status: ('A' for Active; 'I' for Inactive)
REMARK    1  A    between atoms: C_1  and  C_2
REMARK    2  A    between atoms: C_8  and  N_9
REMARK    3  A    between atoms: N_9  and  C_10
REMARK    4  A    between atoms: C_10  and  N_12
REMARK    5  A    between atoms: N_12  and  C_13
REMARK    6  A    between atoms: C_19  and  C_20
REMARK    7  A    between atoms: N_22  and  C_23
REMARK                            x       y       z     vdW  Elec       q    Type
REMARK                         _______ _______ _______ _____ _____    ______ ____
ROOT
ATOM      1  C   UNL     1       2.132   5.727  21.192  0.00  0.00    +0.000 C 
ATOM      2  C   UNL     1       1.638   4.706  20.167  0.00  0.00    +0.000 C 
ATOM      3  C   UNL     1       1.440   3.384  20.968  0.00  0.00    +0.000 C 
ATOM      4  C   UNL     1       1.189   2.158  20.098  0.00  0.00    +0.000 C 
ATOM      5  C   UNL     1       2.370   1.932  19.164  0.00  0.00    +0.000 C 
ATOM      6  C   UNL     1       2.686   3.195  18.431  0.00  0.00    +0.000 A 
ATOM      7  S   UNL     1       3.306   3.136  16.863  0.00  0.00    +0.000 S 
ATOM      8  C   UNL     1       3.662   4.802  16.877  0.00  0.00    +0.000 A 
ATOM      9  C   UNL     1       3.049   5.470  17.929  0.00  0.00    +0.000 A 
ATOM     10  C   UNL     1       2.476   4.490  18.887  0.00  0.00    +0.000 A 
ENDROOT
BRANCH   9  11
ATOM     11  C   UNL     1       3.017   6.931  18.107  0.00  0.00    +0.000 C 
ATOM     12  O   UNL     1       4.072   7.544  18.050  0.00  0.00    +0.000 OA
ATOM     13  N   UNL     1       1.786   7.510  18.399  0.00  0.00    +0.000 N 
ATOM     14  H   UNL     1       0.977   6.903  18.436  0.00  0.00    +0.000 HD
BRANCH  13  15
ATOM     15  C   UNL     1       1.590   8.892  18.697  0.00  0.00    +0.000 A 
ATOM     16  C   UNL     1       2.008   9.926  17.846  0.00  0.00    +0.000 A 
ATOM     17  C   UNL     1       1.892  11.267  18.206  0.00  0.00    +0.000 A 
ATOM     18  C   UNL     1       1.322  11.612  19.422  0.00  0.00    +0.000 A 
ATOM     19  C   UNL     1       0.849  10.607  20.264  0.00  0.00    +0.000 A 
ATOM     20  C   UNL     1       0.977   9.252  19.899  0.00  0.00    +0.000 A 
ENDBRANCH  13  15
ENDBRANCH   9  11
BRANCH   8  21
ATOM     21  N   UNL     1       4.497   5.079  15.807  0.00  0.00    +0.000 N 
ATOM     22  H   UNL     1       3.971   5.267  14.961  0.00  0.00    +0.000 HD
BRANCH  21  23
ATOM     23  C   UNL     1       5.711   4.467  15.539  0.00  0.00    +0.000 C 
ATOM     24  S   UNL     1       6.259   3.788  14.121  0.00  0.00    +0.000 S 
BRANCH  23  25
ATOM     25  N   UNL     1       6.516   4.321  16.661  0.00  0.00    +0.000 N 
ATOM     26  H   UNL     1       6.923   3.397  16.774  0.00  0.00    +0.000 HD
BRANCH  25  27
ATOM     27  C   UNL     1       7.136   5.343  17.416  0.00  0.00    +0.000 A 
ATOM     28  C   UNL     1       7.166   6.637  16.894  0.00  0.00    +0.000 A 
ATOM     29  C   UNL     1       7.787   7.667  17.609  0.00  0.00    +0.000 A 
ATOM     30  C   UNL     1       8.336   7.419  18.866  0.00  0.00    +0.000 A 
ATOM     31  C   UNL     1       8.257   6.143  19.415  0.00  0.00    +0.000 A 
ATOM     32  C   UNL     1       7.655   5.110  18.692  0.00  0.00    +0.000 A 
ENDBRANCH  25  27
ENDBRANCH  23  25
ENDBRANCH  21  23
ENDBRANCH   8  21
TORSDOF 6
ENDMDL
MODEL 8
REMARK VINA RESULT:      -7.3      7.159     10.801
REMARK  Name = 
REMARK  7 active torsions:
REMARK  status: ('A' for Active; 'I' for Inactive)
REMARK    1  A    between atoms: C_1  and  C_2
REMARK    2  A    between atoms: C_8  and  N_9
REMARK    3  A    between atoms: N_9  and  C_10
REMARK    4  A    between atoms: C_10  and  N_12
REMARK    5  A    between atoms: N_12  and  C_13
REMARK    6  A    between atoms: C_19  and  C_20
REMARK    7  A    between atoms: N_22  and  C_23
REMARK                            x       y       z     vdW  Elec       q    Type
REMARK                         _______ _______ _______ _____ _____    ______ ____
ROOT
ATOM      1  C   UNL     1      -0.117  12.227  22.318  0.00  0.00    +0.000 C 
ATOM      2  C   UNL     1      -0.383  10.921  21.569  0.00  0.00    +0.000 C 
ATOM      3  C   UNL     1       0.909  10.070  21.759  0.00  0.00    +0.000 C 
ATOM      4  C   UNL     1       0.967   8.822  20.885  0.00  0.00    +0.000 C 
ATOM      5  C   UNL     1       0.911   9.212  19.415  0.00  0.00    +0.000 C 
ATOM      6  C   UNL     1      -0.253  10.118  19.175  0.00  0.00    +0.000 A 
ATOM      7  S   UNL     1      -1.063  10.088  17.695  0.00  0.00    +0.000 S 
ATOM      8  C   UNL     1      -1.944  11.495  18.082  0.00  0.00    +0.000 A 
ATOM      9  C   UNL     1      -1.862  11.823  19.429  0.00  0.00    +0.000 A 
ATOM     10  C   UNL     1      -0.815  11.000  20.088  0.00  0.00    +0.000 A 
ENDROOT
BRANCH   9  11
ATOM     11  C   UNL     1      -2.651  12.868  20.100  0.00  0.00    +0.000 C 
ATOM     12  O   UNL     1      -2.126  13.953  20.296  0.00  0.00    +0.000 OA
ATOM     13  N   UNL     1      -3.928  12.523  20.533  0.00  0.00    +0.000 N 
ATOM     14  H   UNL     1      -4.258  11.588  20.330  0.00  0.00    +0.000 HD
BRANCH  13  15
ATOM     15  C   UNL     1      -4.788  13.379  21.283  0.00  0.00    +0.000 A 
ATOM     16  C   UNL     1      -5.312  14.577  20.775  0.00  0.00    +0.000 A 
ATOM     17  C   UNL     1      -6.070  15.442  21.562  0.00  0.00    +0.000 A 
ATOM     18  C   UNL     1      -6.352  15.113  22.880  0.00  0.00    +0.000 A 
ATOM     19  C   UNL     1      -5.888  13.904  23.396  0.00  0.00    +0.000 A 
ATOM     20  C   UNL     1      -5.116  13.037  22.598  0.00  0.00    +0.000 A 
ENDBRANCH  13  15
ENDBRANCH   9  11
BRANCH   8  21
ATOM     21  N   UNL     1      -2.536  11.971  16.924  0.00  0.00    +0.000 N 
ATOM     22  H   UNL     1      -2.704  12.970  16.973  0.00  0.00    +0.000 HD
BRANCH  21  23
ATOM     23  C   UNL     1      -3.500  11.318  16.172  0.00  0.00    +0.000 C 
ATOM     24  S   UNL     1      -3.325  10.059  15.097  0.00  0.00    +0.000 S 
BRANCH  23  25
ATOM     25  N   UNL     1      -4.760  11.890  16.274  0.00  0.00    +0.000 N 
ATOM     26  H   UNL     1      -5.175  12.164  15.388  0.00  0.00    +0.000 HD
BRANCH  25  27
ATOM     27  C   UNL     1      -5.670  11.785  17.351  0.00  0.00    +0.000 A 
ATOM     28  C   UNL     1      -5.599  10.664  18.181  0.00  0.00    +0.000 A 
ATOM     29  C   UNL     1      -6.496  10.523  19.246  0.00  0.00    +0.000 A 
ATOM     30  C   UNL     1      -7.434  11.519  19.514  0.00  0.00    +0.000 A 
ATOM     31  C   UNL     1      -7.469  12.664  18.723  0.00  0.00    +0.000 A 
ATOM     32  C   UNL     1      -6.587  12.797  17.649  0.00  0.00    +0.000 A 
ENDBRANCH  25  27
ENDBRANCH  23  25
ENDBRANCH  21  23
ENDBRANCH   8  21
TORSDOF 6
ENDMDL
MODEL 9
REMARK VINA RESULT:      -7.2      1.747      1.944
REMARK  Name = 
REMARK  7 active torsions:
REMARK  status: ('A' for Active; 'I' for Inactive)
REMARK    1  A    between atoms: C_1  and  C_2
REMARK    2  A    between atoms: C_8  and  N_9
REMARK    3  A    between atoms: N_9  and  C_10
REMARK    4  A    between atoms: C_10  and  N_12
REMARK    5  A    between atoms: N_12  and  C_13
REMARK    6  A    between atoms: C_19  and  C_20
REMARK    7  A    between atoms: N_22  and  C_23
REMARK                            x       y       z     vdW  Elec       q    Type
REMARK                         _______ _______ _______ _____ _____    ______ ____
ROOT
ATOM      1  C   UNL     1       0.708   4.659  20.322  0.00  0.00    +0.000 C 
ATOM      2  C   UNL     1       1.511   3.877  19.282  0.00  0.00    +0.000 C 
ATOM      3  C   UNL     1       1.315   2.377  19.659  0.00  0.00    +0.000 C 
ATOM      4  C   UNL     1       2.231   1.420  18.904  0.00  0.00    +0.000 C 
ATOM      5  C   UNL     1       3.688   1.758  19.191  0.00  0.00    +0.000 C 
ATOM      6  C   UNL     1       3.928   3.213  18.949  0.00  0.00    +0.000 A 
ATOM      7  S   UNL     1       5.430   3.746  18.397  0.00  0.00    +0.000 S 
ATOM      8  C   UNL     1       5.019   5.377  18.671  0.00  0.00    +0.000 A 
ATOM      9  C   UNL     1       3.659   5.555  18.890  0.00  0.00    +0.000 A 
ATOM     10  C   UNL     1       3.000   4.237  19.083  0.00  0.00    +0.000 A 
ENDROOT
BRANCH   9  11
ATOM     11  C   UNL     1       2.973   6.854  18.977  0.00  0.00    +0.000 C 
ATOM     12  O   UNL     1       3.167   7.671  18.090  0.00  0.00    +0.000 OA
ATOM     13  N   UNL     1       2.199   7.091  20.109  0.00  0.00    +0.000 N 
ATOM     14  H   UNL     1       2.119   6.347  20.789  0.00  0.00    +0.000 HD
BRANCH  13  15
ATOM     15  C   UNL     1       1.547   8.326  20.400  0.00  0.00    +0.000 A 
ATOM     16  C   UNL     1       1.188   9.256  19.413  0.00  0.00    +0.000 A 
ATOM     17  C   UNL     1       0.641  10.497  19.734  0.00  0.00    +0.000 A 
ATOM     18  C   UNL     1       0.407  10.830  21.060  0.00  0.00    +0.000 A 
ATOM     19  C   UNL     1       0.705   9.904  22.059  0.00  0.00    +0.000 A 
ATOM     20  C   UNL     1       1.265   8.654  21.729  0.00  0.00    +0.000 A 
ENDBRANCH  13  15
ENDBRANCH   9  11
BRANCH   8  21
ATOM     21  N   UNL     1       6.175   6.136  18.606  0.00  0.00    +0.000 N 
ATOM     22  H   UNL     1       6.386   6.573  19.496  0.00  0.00    +0.000 HD
BRANCH  21  23
ATOM     23  C   UNL     1       6.579   6.917  17.534  0.00  0.00    +0.000 C 
ATOM     24  S   UNL     1       7.749   8.099  17.473  0.00  0.00    +0.000 S 
BRANCH  23  25
ATOM     25  N   UNL     1       5.806   6.736  16.396  0.00  0.00    +0.000 N 
ATOM     26  H   UNL     1       5.237   7.537  16.136  0.00  0.00    +0.000 HD
BRANCH  25  27
ATOM     27  C   UNL     1       5.990   5.779  15.372  0.00  0.00    +0.000 A 
ATOM     28  C   UNL     1       7.246   5.675  14.770  0.00  0.00    +0.000 A 
ATOM     29  C   UNL     1       7.456   4.749  13.742  0.00  0.00    +0.000 A 
ATOM     30  C   UNL     1       6.430   3.893  13.344  0.00  0.00    +0.000 A 
ATOM     31  C   UNL     1       5.194   3.955  13.981  0.00  0.00    +0.000 A 
ATOM     32  C   UNL     1       4.978   4.892  14.994  0.00  0.00    +0.000 A 
ENDBRANCH  25  27
ENDBRANCH  23  25
ENDBRANCH  21  23
ENDBRANCH   8  21
TORSDOF 6
ENDMDL
