MODEL 1
REMARK VINA RESULT:      -9.8      0.000      0.000
REMARK  Name = 
REMARK  6 active torsions:
REMARK  status: ('A' for Active; 'I' for Inactive)
REMARK    1  A    between atoms: N_12  and  C_13
REMARK    2  A    between atoms: C_13  and  C_14
REMARK    3  A    between atoms: C_14  and  C_15
REMARK    4  A    between atoms: C_15  and  C_16
REMARK    5  A    between atoms: C_16  and  C_17
REMARK    6  A    between atoms: N_19  and  C_20
REMARK                            x       y       z     vdW  Elec       q    Type
REMARK                         _______ _______ _______ _____ _____    ______ ____
ROOT
ATOM      1  C   UNL     1       8.236   9.597  18.046  0.00  0.00    +0.000 C 
ENDROOT
BRANCH   1   2
ATOM      2  C   UNL     1       8.130   8.103  17.746  0.00  0.00    +0.000 C 
BRANCH   2   3
ATOM      3  C   UNL     1       6.677   7.684  17.501  0.00  0.00    +0.000 C 
BRANCH   3  15
ATOM      4  C   UNL     1       1.043   4.134  20.406  0.00  0.00    +0.000 A 
ATOM      5  C   UNL     1       1.808   5.266  20.720  0.00  0.00    +0.000 A 
ATOM      6  C   UNL     1       2.886   5.638  19.914  0.00  0.00    +0.000 A 
ATOM      7  C   UNL     1       3.182   4.859  18.802  0.00  0.00    +0.000 A 
ATOM      8  C   UNL     1       2.421   3.743  18.493  0.00  0.00    +0.000 A 
ATOM      9  C   UNL     1       1.346   3.364  19.281  0.00  0.00    +0.000 A 
ATOM     10  C   UNL     1       2.929   3.117  17.252  0.00  0.00    +0.000 C 
ATOM     11  O   UNL     1       4.136   3.838  16.935  0.00  0.00    +0.000 OA
ATOM     12  C   UNL     1       4.266   5.018  17.783  0.00  0.00    +0.000 C 
ATOM     13  C   UNL     1       4.049   6.260  16.910  0.00  0.00    +0.000 C 
ATOM     14  C   UNL     1       5.218   6.448  15.946  0.00  0.00    +0.000 C 
ATOM     15  N   UNL     1       6.517   6.519  16.626  0.00  0.00    +0.000 NA
ATOM     16  C   UNL     1       6.749   5.272  17.377  0.00  0.00    +0.000 C 
ATOM     17  C   UNL     1       5.662   4.974  18.413  0.00  0.00    +0.000 C 
ENDBRANCH   3  15
ENDBRANCH   2   3
ENDBRANCH   1   2
BRANCH   1  18
ATOM     18  C   UNL     1       9.360   9.916  19.028  0.00  0.00    +0.000 C 
BRANCH  18  19
ATOM     19  C   UNL     1       9.450  11.373  19.303  0.00  0.00    +0.000 A 
ATOM     20  C   UNL     1       9.743  12.349  18.381  0.00  0.00    +0.000 A 
ATOM     21  N   UNL     1       9.826  13.566  19.019  0.00  0.00    +0.000 N 
ATOM     22  C   UNL     1       9.469  13.390  20.359  0.00  0.00    +0.000 A 
ATOM     23  C   UNL     1       9.270  14.303  21.414  0.00  0.00    +0.000 A 
ATOM     24  C   UNL     1       8.885  13.816  22.669  0.00  0.00    +0.000 A 
ATOM     25  C   UNL     1       8.686  12.458  22.878  0.00  0.00    +0.000 A 
ATOM     26  C   UNL     1       8.858  11.554  21.828  0.00  0.00    +0.000 A 
ATOM     27  C   UNL     1       9.239  12.022  20.550  0.00  0.00    +0.000 A 
BRANCH  21  28
ATOM     28  C   UNL     1      10.245  14.758  18.369  0.00  0.00    +0.000 A 
ATOM     29  C   UNL     1       9.425  15.892  18.401  0.00  0.00    +0.000 A 
ATOM     30  C   UNL     1       9.852  17.019  17.722  0.00  0.00    +0.000 A 
ATOM     31  N   UNL     1      10.997  17.083  17.015  0.00  0.00    +0.000 NA
ATOM     32  C   UNL     1      11.755  15.965  16.985  0.00  0.00    +0.000 A 
ATOM     33  C   UNL     1      11.432  14.791  17.642  0.00  0.00    +0.000 A 
ENDBRANCH  21  28
ENDBRANCH  18  19
ENDBRANCH   1  18
TORSDOF 6
ENDMDL
MODEL 2
REMARK VINA RESULT:      -9.7      1.324      3.121
REMARK  Name = 
REMARK  6 active torsions:
REMARK  status: ('A' for Active; 'I' for Inactive)
REMARK    1  A    between atoms: N_12  and  C_13
REMARK    2  A    between atoms: C_13  and  C_14
REMARK    3  A    between atoms: C_14  and  C_15
REMARK    4  A    between atoms: C_15  and  C_16
REMARK    5  A    between atoms: C_16  and  C_17
REMARK    6  A    between atoms: N_19  and  C_20
REMARK                            x       y       z     vdW  Elec       q    Type
REMARK                         _______ _______ _______ _____ _____    ______ ____
ROOT
ATOM      1  C   UNL     1       8.372   9.435  18.170  0.00  0.00    +0.000 C 
ENDROOT
BRANCH   1   2
ATOM      2  C   UNL     1       8.113   7.930  18.146  0.00  0.00    +0.000 C 
BRANCH   2   3
ATOM      3  C   UNL     1       6.866   7.591  17.324  0.00  0.00    +0.000 C 
BRANCH   3  15
ATOM      4  C   UNL     1       1.165   4.289  20.386  0.00  0.00    +0.000 A 
ATOM      5  C   UNL     1       1.819   5.522  20.512  0.00  0.00    +0.000 A 
ATOM      6  C   UNL     1       2.957   5.801  19.753  0.00  0.00    +0.000 A 
ATOM      7  C   UNL     1       3.424   4.828  18.878  0.00  0.00    +0.000 A 
ATOM      8  C   UNL     1       2.772   3.612  18.753  0.00  0.00    +0.000 A 
ATOM      9  C   UNL     1       1.640   3.322  19.498  0.00  0.00    +0.000 A 
ATOM     10  C   UNL     1       3.456   2.777  17.739  0.00  0.00    +0.000 C 
ATOM     11  O   UNL     1       4.645   3.512  17.388  0.00  0.00    +0.000 OA
ATOM     12  C   UNL     1       4.606   4.854  17.959  0.00  0.00    +0.000 C 
ATOM     13  C   UNL     1       4.414   5.855  16.814  0.00  0.00    +0.000 C 
ATOM     14  C   UNL     1       5.672   5.929  15.950  0.00  0.00    +0.000 C 
ATOM     15  N   UNL     1       6.878   6.254  16.720  0.00  0.00    +0.000 NA
ATOM     16  C   UNL     1       7.098   5.223  17.750  0.00  0.00    +0.000 C 
ATOM     17  C   UNL     1       5.921   5.065  18.716  0.00  0.00    +0.000 C 
ENDBRANCH   3  15
ENDBRANCH   2   3
ENDBRANCH   1   2
BRANCH   1  18
ATOM     18  C   UNL     1       9.470   9.822  19.157  0.00  0.00    +0.000 C 
BRANCH  18  19
ATOM     19  C   UNL     1       9.497  11.287  19.399  0.00  0.00    +0.000 A 
ATOM     20  C   UNL     1       8.988  11.929  20.502  0.00  0.00    +0.000 A 
ATOM     21  N   UNL     1       9.113  13.290  20.334  0.00  0.00    +0.000 N 
ATOM     22  C   UNL     1       9.817  13.528  19.151  0.00  0.00    +0.000 A 
ATOM     23  C   UNL     1      10.321  14.709  18.568  0.00  0.00    +0.000 A 
ATOM     24  C   UNL     1      11.020  14.623  17.358  0.00  0.00    +0.000 A 
ATOM     25  C   UNL     1      11.235  13.398  16.742  0.00  0.00    +0.000 A 
ATOM     26  C   UNL     1      10.759  12.224  17.329  0.00  0.00    +0.000 A 
ATOM     27  C   UNL     1      10.056  12.284  18.553  0.00  0.00    +0.000 A 
BRANCH  21  28
ATOM     28  C   UNL     1       8.563  14.240  21.237  0.00  0.00    +0.000 A 
ATOM     29  C   UNL     1       9.210  14.498  22.451  0.00  0.00    +0.000 A 
ATOM     30  C   UNL     1       8.619  15.400  23.319  0.00  0.00    +0.000 A 
ATOM     31  N   UNL     1       7.451  16.026  23.075  0.00  0.00    +0.000 NA
ATOM     32  C   UNL     1       6.841  15.737  21.904  0.00  0.00    +0.000 A 
ATOM     33  C   UNL     1       7.351  14.865  20.958  0.00  0.00    +0.000 A 
ENDBRANCH  21  28
ENDBRANCH  18  19
ENDBRANCH   1  18
TORSDOF 6
ENDMDL
MODEL 3
REMARK VINA RESULT:      -9.5      1.708      3.471
REMARK  Name = 
REMARK  6 active torsions:
REMARK  status: ('A' for Active; 'I' for Inactive)
REMARK    1  A    between atoms: N_12  and  C_13
REMARK    2  A    between atoms: C_13  and  C_14
REMARK    3  A    between atoms: C_14  and  C_15
REMARK    4  A    between atoms: C_15  and  C_16
REMARK    5  A    between atoms: C_16  and  C_17
REMARK    6  A    between atoms: N_19  and  C_20
REMARK                            x       y       z     vdW  Elec       q    Type
REMARK                         _______ _______ _______ _____ _____    ______ ____
ROOT
ATOM      1  C   UNL     1       8.710   9.007  18.429  0.00  0.00    +0.000 C 
ENDROOT
BRANCH   1   2
ATOM      2  C   UNL     1       7.665   8.288  17.578  0.00  0.00    +0.000 C 
BRANCH   2   3
ATOM      3  C   UNL     1       7.446   6.850  18.060  0.00  0.00    +0.000 C 
BRANCH   3  15
ATOM      4  C   UNL     1       1.045   4.215  20.263  0.00  0.00    +0.000 A 
ATOM      5  C   UNL     1       2.018   5.087  20.769  0.00  0.00    +0.000 A 
ATOM      6  C   UNL     1       3.190   5.335  20.051  0.00  0.00    +0.000 A 
ATOM      7  C   UNL     1       3.366   4.695  18.831  0.00  0.00    +0.000 A 
ATOM      8  C   UNL     1       2.399   3.836  18.332  0.00  0.00    +0.000 A 
ATOM      9  C   UNL     1       1.230   3.583  19.032  0.00  0.00    +0.000 A 
ATOM     10  C   UNL     1       2.822   3.316  17.012  0.00  0.00    +0.000 C 
ATOM     11  O   UNL     1       4.170   3.795  16.834  0.00  0.00    +0.000 OA
ATOM     12  C   UNL     1       4.508   4.769  17.866  0.00  0.00    +0.000 C 
ATOM     13  C   UNL     1       4.606   6.149  17.206  0.00  0.00    +0.000 C 
ATOM     14  C   UNL     1       5.835   6.225  16.302  0.00  0.00    +0.000 C 
ATOM     15  N   UNL     1       7.083   5.901  17.003  0.00  0.00    +0.000 NA
ATOM     16  C   UNL     1       7.004   4.531  17.542  0.00  0.00    +0.000 C 
ATOM     17  C   UNL     1       5.829   4.320  18.500  0.00  0.00    +0.000 C 
ENDBRANCH   3  15
ENDBRANCH   2   3
ENDBRANCH   1   2
BRANCH   1  18
ATOM     18  C   UNL     1       9.112  10.357  17.840  0.00  0.00    +0.000 C 
BRANCH  18  19
ATOM     19  C   UNL     1       9.503  11.321  18.900  0.00  0.00    +0.000 A 
ATOM     20  C   UNL     1       8.968  11.388  20.164  0.00  0.00    +0.000 A 
ATOM     21  N   UNL     1       9.512  12.462  20.831  0.00  0.00    +0.000 N 
ATOM     22  C   UNL     1      10.498  13.034  20.024  0.00  0.00    +0.000 A 
ATOM     23  C   UNL     1      11.435  14.062  20.255  0.00  0.00    +0.000 A 
ATOM     24  C   UNL     1      12.330  14.406  19.235  0.00  0.00    +0.000 A 
ATOM     25  C   UNL     1      12.316  13.740  18.017  0.00  0.00    +0.000 A 
ATOM     26  C   UNL     1      11.406  12.704  17.794  0.00  0.00    +0.000 A 
ATOM     27  C   UNL     1      10.497  12.334  18.810  0.00  0.00    +0.000 A 
BRANCH  21  28
ATOM     28  C   UNL     1       9.071  12.885  22.115  0.00  0.00    +0.000 A 
ATOM     29  C   UNL     1       9.104  14.244  22.447  0.00  0.00    +0.000 A 
ATOM     30  C   UNL     1       8.704  14.609  23.720  0.00  0.00    +0.000 A 
ATOM     31  N   UNL     1       8.304  13.733  24.663  0.00  0.00    +0.000 NA
ATOM     32  C   UNL     1       8.305  12.426  24.318  0.00  0.00    +0.000 A 
ATOM     33  C   UNL     1       8.669  11.955  23.069  0.00  0.00    +0.000 A 
ENDBRANCH  21  28
ENDBRANCH  18  19
ENDBRANCH   1  18
TORSDOF 6
ENDMDL
MODEL 4
REMARK VINA RESULT:      -9.3      1.536      3.606
REMARK  Name = 
REMARK  6 active torsions:
REMARK  status: ('A' for Active; 'I' for Inactive)
REMARK    1  A    between atoms: N_12  and  C_13
REMARK    2  A    between atoms: C_13  and  C_14
REMARK    3  A    between atoms: C_14  and  C_15
REMARK    4  A    between atoms: C_15  and  C_16
REMARK    5  A    between atoms: C_16  and  C_17
REMARK    6  A    between atoms: N_19  and  C_20
REMARK                            x       y       z     vdW  Elec       q    Type
REMARK                         _______ _______ _______ _____ _____    ______ ____
ROOT
ATOM      1  C   UNL     1       7.968   9.192  18.050  0.00  0.00    +0.000 C 
ENDROOT
BRANCH   1   2
ATOM      2  C   UNL     1       7.959   7.671  17.901  0.00  0.00    +0.000 C 
BRANCH   2   3
ATOM      3  C   UNL     1       6.643   7.178  17.292  0.00  0.00    +0.000 C 
BRANCH   3  15
ATOM      4  C   UNL     1       1.008   3.952  20.549  0.00  0.00    +0.000 A 
ATOM      5  C   UNL     1       1.634   5.205  20.597  0.00  0.00    +0.000 A 
ATOM      6  C   UNL     1       2.768   5.460  19.823  0.00  0.00    +0.000 A 
ATOM      7  C   UNL     1       3.259   4.444  19.013  0.00  0.00    +0.000 A 
ATOM      8  C   UNL     1       2.635   3.208  18.965  0.00  0.00    +0.000 A 
ATOM      9  C   UNL     1       1.507   2.941  19.725  0.00  0.00    +0.000 A 
ATOM     10  C   UNL     1       3.340   2.326  18.008  0.00  0.00    +0.000 C 
ATOM     11  O   UNL     1       4.513   3.064  17.612  0.00  0.00    +0.000 OA
ATOM     12  C   UNL     1       4.442   4.437  18.096  0.00  0.00    +0.000 C 
ATOM     13  C   UNL     1       4.232   5.359  16.889  0.00  0.00    +0.000 C 
ATOM     14  C   UNL     1       5.490   5.405  16.025  0.00  0.00    +0.000 C 
ATOM     15  N   UNL     1       6.686   5.806  16.775  0.00  0.00    +0.000 NA
ATOM     16  C   UNL     1       6.927   4.848  17.869  0.00  0.00    +0.000 C 
ATOM     17  C   UNL     1       5.750   4.726  18.841  0.00  0.00    +0.000 C 
ENDBRANCH   3  15
ENDBRANCH   2   3
ENDBRANCH   1   2
BRANCH   1  18
ATOM     18  C   UNL     1       9.378   9.753  18.218  0.00  0.00    +0.000 C 
BRANCH  18  19
ATOM     19  C   UNL     1       9.396  10.920  19.135  0.00  0.00    +0.000 A 
ATOM     20  C   UNL     1       9.110  10.893  20.478  0.00  0.00    +0.000 A 
ATOM     21  N   UNL     1       9.142  12.177  20.976  0.00  0.00    +0.000 N 
ATOM     22  C   UNL     1       9.565  13.037  19.960  0.00  0.00    +0.000 A 
ATOM     23  C   UNL     1       9.883  14.410  19.951  0.00  0.00    +0.000 A 
ATOM     24  C   UNL     1      10.310  15.000  18.755  0.00  0.00    +0.000 A 
ATOM     25  C   UNL     1      10.436  14.250  17.593  0.00  0.00    +0.000 A 
ATOM     26  C   UNL     1      10.146  12.884  17.605  0.00  0.00    +0.000 A 
ATOM     27  C   UNL     1       9.720  12.264  18.801  0.00  0.00    +0.000 A 
BRANCH  21  28
ATOM     28  C   UNL     1       8.760  12.505  22.305  0.00  0.00    +0.000 A 
ATOM     29  C   UNL     1       8.179  11.527  23.122  0.00  0.00    +0.000 A 
ATOM     30  C   UNL     1       7.785  11.899  24.395  0.00  0.00    +0.000 A 
ATOM     31  N   UNL     1       7.908  13.148  24.887  0.00  0.00    +0.000 NA
ATOM     32  C   UNL     1       8.451  14.073  24.065  0.00  0.00    +0.000 A 
ATOM     33  C   UNL     1       8.894  13.805  22.782  0.00  0.00    +0.000 A 
ENDBRANCH  21  28
ENDBRANCH  18  19
ENDBRANCH   1  18
TORSDOF 6
ENDMDL
MODEL 5
REMARK VINA RESULT:      -9.2      6.004     10.944
REMARK  Name = 
REMARK  6 active torsions:
REMARK  status: ('A' for Active; 'I' for Inactive)
REMARK    1  A    between atoms: N_12  and  C_13
REMARK    2  A    between atoms: C_13  and  C_14
REMARK    3  A    between atoms: C_14  and  C_15
REMARK    4  A    between atoms: C_15  and  C_16
REMARK    5  A    between atoms: C_16  and  C_17
REMARK    6  A    between atoms: N_19  and  C_20
REMARK                            x       y       z     vdW  Elec       q    Type
REMARK                         _______ _______ _______ _____ _____    ______ ____
ROOT
ATOM      1  C   UNL     1       1.756   8.392  19.932  0.00  0.00    +0.000 C 
ENDROOT
BRANCH   1   2
ATOM      2  C   UNL     1       0.813   9.429  20.542  0.00  0.00    +0.000 C 
BRANCH   2   3
ATOM      3  C   UNL     1      -0.003  10.145  19.461  0.00  0.00    +0.000 C 
BRANCH   3  15
ATOM      4  C   UNL     1       3.079  16.526  17.861  0.00  0.00    +0.000 A 
ATOM      5  C   UNL     1       3.422  15.172  17.755  0.00  0.00    +0.000 A 
ATOM      6  C   UNL     1       2.557  14.182  18.225  0.00  0.00    +0.000 A 
ATOM      7  C   UNL     1       1.355  14.573  18.802  0.00  0.00    +0.000 A 
ATOM      8  C   UNL     1       1.017  15.914  18.902  0.00  0.00    +0.000 A 
ATOM      9  C   UNL     1       1.865  16.906  18.436  0.00  0.00    +0.000 A 
ATOM     10  C   UNL     1      -0.319  16.050  19.525  0.00  0.00    +0.000 C 
ATOM     11  O   UNL     1      -0.680  14.715  19.933  0.00  0.00    +0.000 OA
ATOM     12  C   UNL     1       0.257  13.741  19.386  0.00  0.00    +0.000 C 
ATOM     13  C   UNL     1      -0.473  12.927  18.311  0.00  0.00    +0.000 C 
ATOM     14  C   UNL     1      -1.521  12.017  18.947  0.00  0.00    +0.000 C 
ATOM     15  N   UNL     1      -0.963  11.128  19.972  0.00  0.00    +0.000 NA
ATOM     16  C   UNL     1      -0.356  11.935  21.046  0.00  0.00    +0.000 C 
ATOM     17  C   UNL     1       0.746  12.876  20.552  0.00  0.00    +0.000 C 
ENDBRANCH   3  15
ENDBRANCH   2   3
ENDBRANCH   1   2
BRANCH   1  18
ATOM     18  C   UNL     1       1.604   7.017  20.577  0.00  0.00    +0.000 C 
BRANCH  18  19
ATOM     19  C   UNL     1       2.366   5.979  19.837  0.00  0.00    +0.000 A 
ATOM     20  C   UNL     1       3.596   6.151  19.248  0.00  0.00    +0.000 A 
ATOM     21  N   UNL     1       3.944   4.999  18.579  0.00  0.00    +0.000 N 
ATOM     22  C   UNL     1       2.974   4.027  18.834  0.00  0.00    +0.000 A 
ATOM     23  C   UNL     1       2.893   2.658  18.506  0.00  0.00    +0.000 A 
ATOM     24  C   UNL     1       1.780   1.923  18.930  0.00  0.00    +0.000 A 
ATOM     25  C   UNL     1       0.772   2.519  19.675  0.00  0.00    +0.000 A 
ATOM     26  C   UNL     1       0.860   3.869  20.023  0.00  0.00    +0.000 A 
ATOM     27  C   UNL     1       1.978   4.630  19.613  0.00  0.00    +0.000 A 
BRANCH  21  28
ATOM     28  C   UNL     1       5.098   4.897  17.756  0.00  0.00    +0.000 A 
ATOM     29  C   UNL     1       6.361   4.760  18.344  0.00  0.00    +0.000 A 
ATOM     30  C   UNL     1       7.461   4.705  17.508  0.00  0.00    +0.000 A 
ATOM     31  N   UNL     1       7.392   4.794  16.165  0.00  0.00    +0.000 NA
ATOM     32  C   UNL     1       6.161   4.948  15.630  0.00  0.00    +0.000 A 
ATOM     33  C   UNL     1       4.994   4.999  16.372  0.00  0.00    +0.000 A 
ENDBRANCH  21  28
ENDBRANCH  18  19
ENDBRANCH   1  18
TORSDOF 6
ENDMDL
MODEL 6
REMARK VINA RESULT:      -9.2      5.871     10.684
REMARK  Name = 
REMARK  6 active torsions:
REMARK  status: ('A' for Active; 'I' for Inactive)
REMARK    1  A    between atoms: N_12  and  C_13
REMARK    2  A    between atoms: C_13  and  C_14
REMARK    3  A    between atoms: C_14  and  C_15
REMARK    4  A    between atoms: C_15  and  C_16
REMARK    5  A    between atoms: C_16  and  C_17
REMARK    6  A    between atoms: N_19  and  C_20
REMARK                            x       y       z     vdW  Elec       q    Type
REMARK                         _______ _______ _______ _____ _____    ______ ____
ROOT
ATOM      1  C   UNL     1       1.527   8.122  21.227  0.00  0.00    +0.000 C 
ENDROOT
BRANCH   1   2
ATOM      2  C   UNL     1       0.489   9.194  21.550  0.00  0.00    +0.000 C 
BRANCH   2   3
ATOM      3  C   UNL     1       0.187  10.066  20.327  0.00  0.00    +0.000 C 
BRANCH   3  15
ATOM      4  C   UNL     1       3.351  16.093  17.789  0.00  0.00    +0.000 A 
ATOM      5  C   UNL     1       3.714  14.753  17.979  0.00  0.00    +0.000 A 
ATOM      6  C   UNL     1       2.817  13.851  18.556  0.00  0.00    +0.000 A 
ATOM      7  C   UNL     1       1.565  14.316  18.939  0.00  0.00    +0.000 A 
ATOM      8  C   UNL     1       1.209  15.641  18.746  0.00  0.00    +0.000 A 
ATOM      9  C   UNL     1       2.087  16.546  18.172  0.00  0.00    +0.000 A 
ATOM     10  C   UNL     1      -0.179  15.862  19.212  0.00  0.00    +0.000 C 
ATOM     11  O   UNL     1      -0.565  14.622  19.839  0.00  0.00    +0.000 OA
ATOM     12  C   UNL     1       0.425  13.585  19.576  0.00  0.00    +0.000 C 
ATOM     13  C   UNL     1      -0.199  12.561  18.620  0.00  0.00    +0.000 C 
ATOM     14  C   UNL     1      -1.293  11.764  19.328  0.00  0.00    +0.000 C 
ATOM     15  N   UNL     1      -0.823  11.105  20.551  0.00  0.00    +0.000 NA
ATOM     16  C   UNL     1      -0.321  12.119  21.496  0.00  0.00    +0.000 C 
ATOM     17  C   UNL     1       0.814  12.974  20.926  0.00  0.00    +0.000 C 
ENDBRANCH   3  15
ENDBRANCH   2   3
ENDBRANCH   1   2
BRANCH   1  18
ATOM     18  C   UNL     1       1.611   7.823  19.733  0.00  0.00    +0.000 C 
BRANCH  18  19
ATOM     19  C   UNL     1       2.476   6.648  19.457  0.00  0.00    +0.000 A 
ATOM     20  C   UNL     1       3.697   6.678  18.827  0.00  0.00    +0.000 A 
ATOM     21  N   UNL     1       4.159   5.391  18.670  0.00  0.00    +0.000 N 
ATOM     22  C   UNL     1       3.274   4.520  19.311  0.00  0.00    +0.000 A 
ATOM     23  C   UNL     1       3.323   3.134  19.561  0.00  0.00    +0.000 A 
ATOM     24  C   UNL     1       2.271   2.534  20.264  0.00  0.00    +0.000 A 
ATOM     25  C   UNL     1       1.200   3.286  20.725  0.00  0.00    +0.000 A 
ATOM     26  C   UNL     1       1.161   4.664  20.501  0.00  0.00    +0.000 A 
ATOM     27  C   UNL     1       2.214   5.293  19.800  0.00  0.00    +0.000 A 
BRANCH  21  28
ATOM     28  C   UNL     1       5.333   5.070  17.936  0.00  0.00    +0.000 A 
ATOM     29  C   UNL     1       5.226   4.649  16.605  0.00  0.00    +0.000 A 
ATOM     30  C   UNL     1       6.390   4.308  15.939  0.00  0.00    +0.000 A 
ATOM     31  N   UNL     1       7.615   4.338  16.500  0.00  0.00    +0.000 NA
ATOM     32  C   UNL     1       7.681   4.728  17.792  0.00  0.00    +0.000 A 
ATOM     33  C   UNL     1       6.584   5.106  18.545  0.00  0.00    +0.000 A 
ENDBRANCH  21  28
ENDBRANCH  18  19
ENDBRANCH   1  18
TORSDOF 6
ENDMDL
MODEL 7
REMARK VINA RESULT:      -9.1      3.067     11.220
REMARK  Name = 
REMARK  6 active torsions:
REMARK  status: ('A' for Active; 'I' for Inactive)
REMARK    1  A    between atoms: N_12  and  C_13
REMARK    2  A    between atoms: C_13  and  C_14
REMARK    3  A    between atoms: C_14  and  C_15
REMARK    4  A    between atoms: C_15  and  C_16
REMARK    5  A    between atoms: C_16  and  C_17
REMARK    6  A    between atoms: N_19  and  C_20
REMARK                            x       y       z     vdW  Elec       q    Type
REMARK                         _______ _______ _______ _____ _____    ______ ____
ROOT
ATOM      1  C   UNL     1       8.012   8.064  17.925  0.00  0.00    +0.000 C 
ENDROOT
BRANCH   1   2
ATOM      2  C   UNL     1       8.691   9.063  18.861  0.00  0.00    +0.000 C 
BRANCH   2   3
ATOM      3  C   UNL     1       9.017  10.373  18.138  0.00  0.00    +0.000 C 
BRANCH   3  15
ATOM      4  C   UNL     1       7.015  17.291  19.097  0.00  0.00    +0.000 A 
ATOM      5  C   UNL     1       6.422  16.113  18.623  0.00  0.00    +0.000 A 
ATOM      6  C   UNL     1       7.160  14.931  18.542  0.00  0.00    +0.000 A 
ATOM      7  C   UNL     1       8.491  14.953  18.938  0.00  0.00    +0.000 A 
ATOM      8  C   UNL     1       9.073  16.119  19.410  0.00  0.00    +0.000 A 
ATOM      9  C   UNL     1       8.352  17.299  19.499  0.00  0.00    +0.000 A 
ATOM     10  C   UNL     1      10.481  15.860  19.787  0.00  0.00    +0.000 C 
ATOM     11  O   UNL     1      10.742  14.508  19.360  0.00  0.00    +0.000 OA
ATOM     12  C   UNL     1       9.505  13.852  18.953  0.00  0.00    +0.000 C 
ATOM     13  C   UNL     1       9.167  12.782  19.998  0.00  0.00    +0.000 C 
ATOM     14  C   UNL     1      10.163  11.627  19.924  0.00  0.00    +0.000 C 
ATOM     15  N   UNL     1      10.249  11.029  18.587  0.00  0.00    +0.000 NA
ATOM     16  C   UNL     1      10.674  12.053  17.616  0.00  0.00    +0.000 C 
ATOM     17  C   UNL     1       9.739  13.263  17.558  0.00  0.00    +0.000 C 
ENDBRANCH   3  15
ENDBRANCH   2   3
ENDBRANCH   1   2
BRANCH   1  18
ATOM     18  C   UNL     1       8.037   6.640  18.475  0.00  0.00    +0.000 C 
BRANCH  18  19
ATOM     19  C   UNL     1       6.867   5.854  18.011  0.00  0.00    +0.000 A 
ATOM     20  C   UNL     1       5.763   5.533  18.764  0.00  0.00    +0.000 A 
ATOM     21  N   UNL     1       4.931   4.721  18.026  0.00  0.00    +0.000 N 
ATOM     22  C   UNL     1       5.451   4.607  16.735  0.00  0.00    +0.000 A 
ATOM     23  C   UNL     1       4.952   4.006  15.561  0.00  0.00    +0.000 A 
ATOM     24  C   UNL     1       5.711   4.077  14.387  0.00  0.00    +0.000 A 
ATOM     25  C   UNL     1       6.932   4.739  14.364  0.00  0.00    +0.000 A 
ATOM     26  C   UNL     1       7.417   5.356  15.519  0.00  0.00    +0.000 A 
ATOM     27  C   UNL     1       6.665   5.304  16.715  0.00  0.00    +0.000 A 
BRANCH  21  28
ATOM     28  C   UNL     1       3.768   4.106  18.565  0.00  0.00    +0.000 A 
ATOM     29  C   UNL     1       2.504   4.628  18.264  0.00  0.00    +0.000 A 
ATOM     30  C   UNL     1       1.401   4.024  18.840  0.00  0.00    +0.000 A 
ATOM     31  N   UNL     1       1.472   2.980  19.688  0.00  0.00    +0.000 NA
ATOM     32  C   UNL     1       2.707   2.514  19.976  0.00  0.00    +0.000 A 
ATOM     33  C   UNL     1       3.874   3.031  19.443  0.00  0.00    +0.000 A 
ENDBRANCH  21  28
ENDBRANCH  18  19
ENDBRANCH   1  18
TORSDOF 6
ENDMDL
MODEL 8
REMARK VINA RESULT:      -9.1      3.012     11.148
REMARK  Name = 
REMARK  6 active torsions:
REMARK  status: ('A' for Active; 'I' for Inactive)
REMARK    1  A    between atoms: N_12  and  C_13
REMARK    2  A    between atoms: C_13  and  C_14
REMARK    3  A    between atoms: C_14  and  C_15
REMARK    4  A    between atoms: C_15  and  C_16
REMARK    5  A    between atoms: C_16  and  C_17
REMARK    6  A    between atoms: N_19  and  C_20
REMARK                            x       y       z     vdW  Elec       q    Type
REMARK                         _______ _______ _______ _____ _____    ______ ____
ROOT
ATOM      1  C   UNL     1       8.104   8.083  18.006  0.00  0.00    +0.000 C 
ENDROOT
BRANCH   1   2
ATOM      2  C   UNL     1       8.893   9.128  18.792  0.00  0.00    +0.000 C 
BRANCH   2   3
ATOM      3  C   UNL     1       8.481  10.550  18.399  0.00  0.00    +0.000 C 
BRANCH   3  15
ATOM      4  C   UNL     1       9.557  15.619  23.491  0.00  0.00    +0.000 A 
ATOM      5  C   UNL     1       8.664  14.561  23.278  0.00  0.00    +0.000 A 
ATOM      6  C   UNL     1       8.739  13.794  22.113  0.00  0.00    +0.000 A 
ATOM      7  C   UNL     1       9.714  14.109  21.175  0.00  0.00    +0.000 A 
ATOM      8  C   UNL     1      10.598  15.155  21.391  0.00  0.00    +0.000 A 
ATOM      9  C   UNL     1      10.537  15.922  22.544  0.00  0.00    +0.000 A 
ATOM     10  C   UNL     1      11.544  15.255  20.257  0.00  0.00    +0.000 C 
ATOM     11  O   UNL     1      11.065  14.307  19.283  0.00  0.00    +0.000 OA
ATOM     12  C   UNL     1      10.016  13.471  19.855  0.00  0.00    +0.000 C 
ATOM     13  C   UNL     1      10.575  12.053  20.025  0.00  0.00    +0.000 C 
ATOM     14  C   UNL     1      10.782  11.392  18.664  0.00  0.00    +0.000 C 
ATOM     15  N   UNL     1       9.564  11.369  17.846  0.00  0.00    +0.000 NA
ATOM     16  C   UNL     1       9.102  12.749  17.611  0.00  0.00    +0.000 C 
ATOM     17  C   UNL     1       8.819  13.524  18.900  0.00  0.00    +0.000 C 
ENDBRANCH   3  15
ENDBRANCH   2   3
ENDBRANCH   1   2
BRANCH   1  18
ATOM     18  C   UNL     1       8.142   6.706  18.665  0.00  0.00    +0.000 C 
BRANCH  18  19
ATOM     19  C   UNL     1       6.897   5.941  18.405  0.00  0.00    +0.000 A 
ATOM     20  C   UNL     1       5.875   5.738  19.301  0.00  0.00    +0.000 A 
ATOM     21  N   UNL     1       4.934   4.907  18.736  0.00  0.00    +0.000 N 
ATOM     22  C   UNL     1       5.299   4.659  17.410  0.00  0.00    +0.000 A 
ATOM     23  C   UNL     1       4.646   3.987  16.357  0.00  0.00    +0.000 A 
ATOM     24  C   UNL     1       5.269   3.921  15.105  0.00  0.00    +0.000 A 
ATOM     25  C   UNL     1       6.503   4.520  14.888  0.00  0.00    +0.000 A 
ATOM     26  C   UNL     1       7.140   5.208  15.922  0.00  0.00    +0.000 A 
ATOM     27  C   UNL     1       6.528   5.294  17.193  0.00  0.00    +0.000 A 
BRANCH  21  28
ATOM     28  C   UNL     1       3.817   4.396  19.452  0.00  0.00    +0.000 A 
ATOM     29  C   UNL     1       2.837   5.275  19.928  0.00  0.00    +0.000 A 
ATOM     30  C   UNL     1       1.788   4.742  20.655  0.00  0.00    +0.000 A 
ATOM     31  N   UNL     1       1.665   3.432  20.948  0.00  0.00    +0.000 NA
ATOM     32  C   UNL     1       2.639   2.614  20.494  0.00  0.00    +0.000 A 
ATOM     33  C   UNL     1       3.722   3.039  19.745  0.00  0.00    +0.000 A 
ENDBRANCH  21  28
ENDBRANCH  18  19
ENDBRANCH   1  18
TORSDOF 6
ENDMDL
MODEL 9
REMARK VINA RESULT:      -9.0      1.685      3.839
REMARK  Name = 
REMARK  6 active torsions:
REMARK  status: ('A' for Active; 'I' for Inactive)
REMARK    1  A    between atoms: N_12  and  C_13
REMARK    2  A    between atoms: C_13  and  C_14
REMARK    3  A    between atoms: C_14  and  C_15
REMARK    4  A    between atoms: C_15  and  C_16
REMARK    5  A    between atoms: C_16  and  C_17
REMARK    6  A    between atoms: N_19  and  C_20
REMARK                            x       y       z     vdW  Elec       q    Type
REMARK                         _______ _______ _______ _____ _____    ______ ____
ROOT
ATOM      1  C   UNL     1       8.754   8.911  18.749  0.00  0.00    +0.000 C 
ENDROOT
BRANCH   1   2
ATOM      2  C   UNL     1       7.888   8.336  17.629  0.00  0.00    +0.000 C 
BRANCH   2   3
ATOM      3  C   UNL     1       7.229   7.020  18.053  0.00  0.00    +0.000 C 
BRANCH   3  15
ATOM      4  C   UNL     1       1.024   4.015  20.346  0.00  0.00    +0.000 A 
ATOM      5  C   UNL     1       1.997   4.875  20.873  0.00  0.00    +0.000 A 
ATOM      6  C   UNL     1       3.123   5.216  20.121  0.00  0.00    +0.000 A 
ATOM      7  C   UNL     1       3.255   4.681  18.845  0.00  0.00    +0.000 A 
ATOM      8  C   UNL     1       2.288   3.834  18.326  0.00  0.00    +0.000 A 
ATOM      9  C   UNL     1       1.164   3.490  19.060  0.00  0.00    +0.000 A 
ATOM     10  C   UNL     1       2.657   3.434  16.950  0.00  0.00    +0.000 C 
ATOM     11  O   UNL     1       3.981   3.969  16.746  0.00  0.00    +0.000 OA
ATOM     12  C   UNL     1       4.343   4.867  17.835  0.00  0.00    +0.000 C 
ATOM     13  C   UNL     1       4.369   6.298  17.285  0.00  0.00    +0.000 C 
ATOM     14  C   UNL     1       5.548   6.485  16.332  0.00  0.00    +0.000 C 
ATOM     15  N   UNL     1       6.838   6.146  16.942  0.00  0.00    +0.000 NA
ATOM     16  C   UNL     1       6.826   4.736  17.372  0.00  0.00    +0.000 C 
ATOM     17  C   UNL     1       5.707   4.412  18.366  0.00  0.00    +0.000 C 
ENDBRANCH   3  15
ENDBRANCH   2   3
ENDBRANCH   1   2
BRANCH   1  18
ATOM     18  C   UNL     1       9.333  10.278  18.394  0.00  0.00    +0.000 C 
BRANCH  18  19
ATOM     19  C   UNL     1       9.125  11.261  19.487  0.00  0.00    +0.000 A 
ATOM     20  C   UNL     1       8.847  10.959  20.798  0.00  0.00    +0.000 A 
ATOM     21  N   UNL     1       8.630  12.125  21.497  0.00  0.00    +0.000 N 
ATOM     22  C   UNL     1       8.881  13.205  20.647  0.00  0.00    +0.000 A 
ATOM     23  C   UNL     1       8.929  14.597  20.870  0.00  0.00    +0.000 A 
ATOM     24  C   UNL     1       9.236  15.445  19.800  0.00  0.00    +0.000 A 
ATOM     25  C   UNL     1       9.506  14.935  18.538  0.00  0.00    +0.000 A 
ATOM     26  C   UNL     1       9.484  13.556  18.320  0.00  0.00    +0.000 A 
ATOM     27  C   UNL     1       9.184  12.678  19.385  0.00  0.00    +0.000 A 
BRANCH  21  28
ATOM     28  C   UNL     1       8.190  12.152  22.848  0.00  0.00    +0.000 A 
ATOM     29  C   UNL     1       6.870  11.802  23.155  0.00  0.00    +0.000 A 
ATOM     30  C   UNL     1       6.470  11.880  24.477  0.00  0.00    +0.000 A 
ATOM     31  N   UNL     1       7.270  12.291  25.482  0.00  0.00    +0.000 NA
ATOM     32  C   UNL     1       8.531  12.643  25.149  0.00  0.00    +0.000 A 
ATOM     33  C   UNL     1       9.037  12.587  23.863  0.00  0.00    +0.000 A 
ENDBRANCH  21  28
ENDBRANCH  18  19
ENDBRANCH   1  18
TORSDOF 6
ENDMDL
