MODEL 1
REMARK VINA RESULT:      -8.3      0.000      0.000
REMARK  Name = 
REMARK  5 active torsions:
REMARK  status: ('A' for Active; 'I' for Inactive)
REMARK    1  A    between atoms: C_1  and  C_2
REMARK    2  A    between atoms: C_4  and  S_5
REMARK    3  A    between atoms: S_5  and  C_6
REMARK    4  A    between atoms: C_6  and  C_7
REMARK    5  A    between atoms: N_9  and  C_10
REMARK                            x       y       z     vdW  Elec       q    Type
REMARK                         _______ _______ _______ _____ _____    ______ ____
ROOT
ATOM      1  C   UNL     1       6.434   4.120  14.058  0.00  0.00    +0.000 C 
ATOM      2  C   UNL     1       6.054   4.557  15.439  0.00  0.00    +0.000 A 
ATOM      3  N   UNL     1       6.935   5.348  16.110  0.00  0.00    +0.000 NA
ATOM      4  C   UNL     1       6.617   5.746  17.372  0.00  0.00    +0.000 A 
ATOM      5  C   UNL     1       5.408   5.330  17.890  0.00  0.00    +0.000 A 
ATOM      6  O   UNL     1       4.866   5.585  19.114  0.00  0.00    +0.000 OA
ATOM      7  C   UNL     1       3.658   4.958  19.145  0.00  0.00    +0.000 A 
ATOM      8  C   UNL     1       2.775   4.972  20.223  0.00  0.00    +0.000 A 
ATOM      9  C   UNL     1       1.580   4.263  20.060  0.00  0.00    +0.000 A 
ATOM     10  C   UNL     1       1.296   3.583  18.872  0.00  0.00    +0.000 A 
ATOM     11  C   UNL     1       2.206   3.587  17.804  0.00  0.00    +0.000 A 
ATOM     12  C   UNL     1       3.414   4.295  17.946  0.00  0.00    +0.000 A 
ATOM     13  C   UNL     1       4.558   4.539  17.137  0.00  0.00    +0.000 A 
ATOM     14  N   UNL     1       4.856   4.131  15.886  0.00  0.00    +0.000 NA
ENDROOT
BRANCH   4  15
ATOM     15  S   UNL     1       7.734   6.709  18.344  0.00  0.00    +0.000 S 
BRANCH  15  16
ATOM     16  C   UNL     1       7.714   8.302  17.478  0.00  0.00    +0.000 C 
BRANCH  16  17
ATOM     17  C   UNL     1       8.493   9.363  18.239  0.00  0.00    +0.000 C 
ATOM     18  O   UNL     1       9.082   9.121  19.284  0.00  0.00    +0.000 OA
ATOM     19  N   UNL     1       8.490  10.607  17.636  0.00  0.00    +0.000 N 
ATOM     20  H   UNL     1       7.863  10.750  16.849  0.00  0.00    +0.000 HD
BRANCH  19  21
ATOM     21  C   UNL     1       9.165  11.737  18.225  0.00  0.00    +0.000 C 
ATOM     22  C   UNL     1      10.613  11.868  17.772  0.00  0.00    +0.000 C 
ATOM     23  C   UNL     1      10.992  13.275  18.217  0.00  0.00    +0.000 C 
ATOM     24  C   UNL     1       9.698  14.089  18.151  0.00  0.00    +0.000 C 
ATOM     25  C   UNL     1       8.586  13.093  17.822  0.00  0.00    +0.000 C 
ENDBRANCH  19  21
ENDBRANCH  16  17
ENDBRANCH  15  16
ENDBRANCH   4  15
TORSDOF 4
ENDMDL
MODEL 2
REMARK VINA RESULT:      -8.2      3.566      6.782
REMARK  Name = 
REMARK  5 active torsions:
REMARK  status: ('A' for Active; 'I' for Inactive)
REMARK    1  A    between atoms: C_1  and  C_2
REMARK    2  A    between atoms: C_4  and  S_5
REMARK    3  A    between atoms: S_5  and  C_6
REMARK    4  A    between atoms: C_6  and  C_7
REMARK    5  A    between atoms: N_9  and  C_10
REMARK                            x       y       z     vdW  Elec       q    Type
REMARK                         _______ _______ _______ _____ _____    ______ ____
ROOT
ATOM      1  C   UNL     1       8.054   7.675  18.277  0.00  0.00    +0.000 C 
ATOM      2  C   UNL     1       7.322   6.582  17.561  0.00  0.00    +0.000 A 
ATOM      3  N   UNL     1       6.427   5.852  18.280  0.00  0.00    +0.000 NA
ATOM      4  C   UNL     1       5.761   4.844  17.652  0.00  0.00    +0.000 A 
ATOM      5  C   UNL     1       6.028   4.634  16.314  0.00  0.00    +0.000 A 
ATOM      6  O   UNL     1       5.504   3.701  15.472  0.00  0.00    +0.000 OA
ATOM      7  C   UNL     1       6.079   3.904  14.255  0.00  0.00    +0.000 A 
ATOM      8  C   UNL     1       5.814   3.160  13.108  0.00  0.00    +0.000 A 
ATOM      9  C   UNL     1       6.512   3.525  11.952  0.00  0.00    +0.000 A 
ATOM     10  C   UNL     1       7.423   4.585  11.959  0.00  0.00    +0.000 A 
ATOM     11  C   UNL     1       7.670   5.316  13.132  0.00  0.00    +0.000 A 
ATOM     12  C   UNL     1       6.977   4.967  14.306  0.00  0.00    +0.000 A 
ATOM     13  C   UNL     1       6.940   5.433  15.649  0.00  0.00    +0.000 A 
ATOM     14  N   UNL     1       7.614   6.434  16.253  0.00  0.00    +0.000 NA
ENDROOT
BRANCH   4  15
ATOM     15  S   UNL     1       4.640   3.795  18.526  0.00  0.00    +0.000 S 
BRANCH  15  16
ATOM     16  C   UNL     1       3.932   4.934  19.748  0.00  0.00    +0.000 C 
BRANCH  16  17
ATOM     17  C   UNL     1       2.812   5.771  19.150  0.00  0.00    +0.000 C 
ATOM     18  O   UNL     1       2.108   5.366  18.234  0.00  0.00    +0.000 OA
ATOM     19  N   UNL     1       2.653   7.008  19.745  0.00  0.00    +0.000 N 
ATOM     20  H   UNL     1       3.367   7.313  20.400  0.00  0.00    +0.000 HD
BRANCH  19  21
ATOM     21  C   UNL     1       1.649   7.942  19.297  0.00  0.00    +0.000 C 
ATOM     22  C   UNL     1       1.219   8.920  20.382  0.00  0.00    +0.000 C 
ATOM     23  C   UNL     1       0.459   9.989  19.606  0.00  0.00    +0.000 C 
ATOM     24  C   UNL     1       1.112  10.035  18.223  0.00  0.00    +0.000 C 
ATOM     25  C   UNL     1       2.120   8.887  18.192  0.00  0.00    +0.000 C 
ENDBRANCH  19  21
ENDBRANCH  16  17
ENDBRANCH  15  16
ENDBRANCH   4  15
TORSDOF 4
ENDMDL
MODEL 3
REMARK VINA RESULT:      -8.1      1.436      4.059
REMARK  Name = 
REMARK  5 active torsions:
REMARK  status: ('A' for Active; 'I' for Inactive)
REMARK    1  A    between atoms: C_1  and  C_2
REMARK    2  A    between atoms: C_4  and  S_5
REMARK    3  A    between atoms: S_5  and  C_6
REMARK    4  A    between atoms: C_6  and  C_7
REMARK    5  A    between atoms: N_9  and  C_10
REMARK                            x       y       z     vdW  Elec       q    Type
REMARK                         _______ _______ _______ _____ _____    ______ ____
ROOT
ATOM      1  C   UNL     1       3.410   4.162  18.773  0.00  0.00    +0.000 C 
ATOM      2  C   UNL     1       4.578   4.556  17.922  0.00  0.00    +0.000 A 
ATOM      3  N   UNL     1       5.573   5.270  18.516  0.00  0.00    +0.000 NA
ATOM      4  C   UNL     1       6.637   5.651  17.758  0.00  0.00    +0.000 A 
ATOM      5  C   UNL     1       6.646   5.275  16.430  0.00  0.00    +0.000 A 
ATOM      6  O   UNL     1       7.581   5.531  15.473  0.00  0.00    +0.000 OA
ATOM      7  C   UNL     1       7.139   4.945  14.327  0.00  0.00    +0.000 A 
ATOM      8  C   UNL     1       7.807   4.967  13.105  0.00  0.00    +0.000 A 
ATOM      9  C   UNL     1       7.185   4.306  12.041  0.00  0.00    +0.000 A 
ATOM     10  C   UNL     1       5.959   3.657  12.208  0.00  0.00    +0.000 A 
ATOM     11  C   UNL     1       5.309   3.652  13.451  0.00  0.00    +0.000 A 
ATOM     12  C   UNL     1       5.918   4.310  14.536  0.00  0.00    +0.000 A 
ATOM     13  C   UNL     1       5.603   4.533  15.905  0.00  0.00    +0.000 A 
ATOM     14  N   UNL     1       4.537   4.149  16.638  0.00  0.00    +0.000 NA
ENDROOT
BRANCH   4  15
ATOM     15  S   UNL     1       7.935   6.645  18.425  0.00  0.00    +0.000 S 
BRANCH  15  16
ATOM     16  C   UNL     1       7.632   8.247  17.630  0.00  0.00    +0.000 C 
BRANCH  16  17
ATOM     17  C   UNL     1       8.431   9.360  18.291  0.00  0.00    +0.000 C 
ATOM     18  O   UNL     1       9.072   9.186  19.319  0.00  0.00    +0.000 OA
ATOM     19  N   UNL     1       8.382  10.566  17.618  0.00  0.00    +0.000 N 
ATOM     20  H   UNL     1       7.717  10.655  16.854  0.00  0.00    +0.000 HD
BRANCH  19  21
ATOM     21  C   UNL     1       9.068  11.737  18.107  0.00  0.00    +0.000 C 
ATOM     22  C   UNL     1      10.462  11.901  17.514  0.00  0.00    +0.000 C 
ATOM     23  C   UNL     1      10.829  13.334  17.882  0.00  0.00    +0.000 C 
ATOM     24  C   UNL     1       9.506  14.102  17.916  0.00  0.00    +0.000 C 
ATOM     25  C   UNL     1       8.405  13.059  17.723  0.00  0.00    +0.000 C 
ENDBRANCH  19  21
ENDBRANCH  16  17
ENDBRANCH  15  16
ENDBRANCH   4  15
TORSDOF 4
ENDMDL
MODEL 4
REMARK VINA RESULT:      -8.1      4.324      6.883
REMARK  Name = 
REMARK  5 active torsions:
REMARK  status: ('A' for Active; 'I' for Inactive)
REMARK    1  A    between atoms: C_1  and  C_2
REMARK    2  A    between atoms: C_4  and  S_5
REMARK    3  A    between atoms: S_5  and  C_6
REMARK    4  A    between atoms: C_6  and  C_7
REMARK    5  A    between atoms: N_9  and  C_10
REMARK                            x       y       z     vdW  Elec       q    Type
REMARK                         _______ _______ _______ _____ _____    ______ ____
ROOT
ATOM      1  C   UNL     1       7.942   6.040  19.326  0.00  0.00    +0.000 C 
ATOM      2  C   UNL     1       7.168   5.310  18.272  0.00  0.00    +0.000 A 
ATOM      3  N   UNL     1       6.122   4.542  18.681  0.00  0.00    +0.000 NA
ATOM      4  C   UNL     1       5.414   3.859  17.741  0.00  0.00    +0.000 A 
ATOM      5  C   UNL     1       5.796   3.999  16.422  0.00  0.00    +0.000 A 
ATOM      6  O   UNL     1       5.260   3.426  15.309  0.00  0.00    +0.000 OA
ATOM      7  C   UNL     1       5.983   3.879  14.248  0.00  0.00    +0.000 A 
ATOM      8  C   UNL     1       5.757   3.535  12.917  0.00  0.00    +0.000 A 
ATOM      9  C   UNL     1       6.613   4.108  11.971  0.00  0.00    +0.000 A 
ATOM     10  C   UNL     1       7.636   4.981  12.352  0.00  0.00    +0.000 A 
ATOM     11  C   UNL     1       7.839   5.308  13.701  0.00  0.00    +0.000 A 
ATOM     12  C   UNL     1       6.989   4.745  14.670  0.00  0.00    +0.000 A 
ATOM     13  C   UNL     1       6.863   4.813  16.085  0.00  0.00    +0.000 A 
ATOM     14  N   UNL     1       7.580   5.497  17.002  0.00  0.00    +0.000 NA
ENDROOT
BRANCH   4  15
ATOM     15  S   UNL     1       4.091   2.778  18.189  0.00  0.00    +0.000 S 
BRANCH  15  16
ATOM     16  C   UNL     1       3.454   3.563  19.695  0.00  0.00    +0.000 C 
BRANCH  16  17
ATOM     17  C   UNL     1       2.428   4.639  19.374  0.00  0.00    +0.000 C 
ATOM     18  O   UNL     1       1.225   4.411  19.350  0.00  0.00    +0.000 OA
ATOM     19  N   UNL     1       2.973   5.886  19.137  0.00  0.00    +0.000 N 
ATOM     20  H   UNL     1       3.983   5.951  19.042  0.00  0.00    +0.000 HD
BRANCH  19  21
ATOM     21  C   UNL     1       2.150   7.023  18.803  0.00  0.00    +0.000 C 
ATOM     22  C   UNL     1       1.922   7.960  19.982  0.00  0.00    +0.000 C 
ATOM     23  C   UNL     1       1.359   9.214  19.326  0.00  0.00    +0.000 C 
ATOM     24  C   UNL     1       1.988   9.267  17.932  0.00  0.00    +0.000 C 
ATOM     25  C   UNL     1       2.769   7.963  17.770  0.00  0.00    +0.000 C 
ENDBRANCH  19  21
ENDBRANCH  16  17
ENDBRANCH  15  16
ENDBRANCH   4  15
TORSDOF 4
ENDMDL
MODEL 5
REMARK VINA RESULT:      -7.9      0.819      1.162
REMARK  Name = 
REMARK  5 active torsions:
REMARK  status: ('A' for Active; 'I' for Inactive)
REMARK    1  A    between atoms: C_1  and  C_2
REMARK    2  A    between atoms: C_4  and  S_5
REMARK    3  A    between atoms: S_5  and  C_6
REMARK    4  A    between atoms: C_6  and  C_7
REMARK    5  A    between atoms: N_9  and  C_10
REMARK                            x       y       z     vdW  Elec       q    Type
REMARK                         _______ _______ _______ _____ _____    ______ ____
ROOT
ATOM      1  C   UNL     1       6.843   4.683  13.929  0.00  0.00    +0.000 C 
ATOM      2  C   UNL     1       6.394   5.042  15.312  0.00  0.00    +0.000 A 
ATOM      3  N   UNL     1       7.232   5.804  16.065  0.00  0.00    +0.000 NA
ATOM      4  C   UNL     1       6.851   6.130  17.330  0.00  0.00    +0.000 A 
ATOM      5  C   UNL     1       5.624   5.673  17.768  0.00  0.00    +0.000 A 
ATOM      6  O   UNL     1       5.023   5.856  18.977  0.00  0.00    +0.000 OA
ATOM      7  C   UNL     1       3.823   5.216  18.918  0.00  0.00    +0.000 A 
ATOM      8  C   UNL     1       2.891   5.163  19.952  0.00  0.00    +0.000 A 
ATOM      9  C   UNL     1       1.715   4.451  19.695  0.00  0.00    +0.000 A 
ATOM     10  C   UNL     1       1.495   3.834  18.461  0.00  0.00    +0.000 A 
ATOM     11  C   UNL     1       2.453   3.905  17.438  0.00  0.00    +0.000 A 
ATOM     12  C   UNL     1       3.644   4.617  17.674  0.00  0.00    +0.000 A 
ATOM     13  C   UNL     1       4.821   4.916  16.934  0.00  0.00    +0.000 A 
ATOM     14  N   UNL     1       5.182   4.579  15.678  0.00  0.00    +0.000 NA
ENDROOT
BRANCH   4  15
ATOM     15  S   UNL     1       7.909   7.050  18.404  0.00  0.00    +0.000 S 
BRANCH  15  16
ATOM     16  C   UNL     1       7.825   8.713  17.684  0.00  0.00    +0.000 C 
BRANCH  16  17
ATOM     17  C   UNL     1       8.720   9.691  18.430  0.00  0.00    +0.000 C 
ATOM     18  O   UNL     1       9.340   9.376  19.437  0.00  0.00    +0.000 OA
ATOM     19  N   UNL     1       8.783  10.947  17.857  0.00  0.00    +0.000 N 
ATOM     20  H   UNL     1       8.131  11.158  17.107  0.00  0.00    +0.000 HD
BRANCH  19  21
ATOM     21  C   UNL     1       9.571  12.007  18.437  0.00  0.00    +0.000 C 
ATOM     22  C   UNL     1       9.242  12.260  19.903  0.00  0.00    +0.000 C 
ATOM     23  C   UNL     1      10.401  13.130  20.374  0.00  0.00    +0.000 C 
ATOM     24  C   UNL     1      11.605  12.701  19.533  0.00  0.00    +0.000 C 
ATOM     25  C   UNL     1      11.069  11.713  18.499  0.00  0.00    +0.000 C 
ENDBRANCH  19  21
ENDBRANCH  16  17
ENDBRANCH  15  16
ENDBRANCH   4  15
TORSDOF 4
ENDMDL
MODEL 6
REMARK VINA RESULT:      -7.8      4.137      6.349
REMARK  Name = 
REMARK  5 active torsions:
REMARK  status: ('A' for Active; 'I' for Inactive)
REMARK    1  A    between atoms: C_1  and  C_2
REMARK    2  A    between atoms: C_4  and  S_5
REMARK    3  A    between atoms: S_5  and  C_6
REMARK    4  A    between atoms: C_6  and  C_7
REMARK    5  A    between atoms: N_9  and  C_10
REMARK                            x       y       z     vdW  Elec       q    Type
REMARK                         _______ _______ _______ _____ _____    ______ ____
ROOT
ATOM      1  C   UNL     1       1.126   9.334  19.518  0.00  0.00    +0.000 C 
ATOM      2  C   UNL     1       1.987   8.146  19.218  0.00  0.00    +0.000 A 
ATOM      3  N   UNL     1       2.876   8.259  18.195  0.00  0.00    +0.000 NA
ATOM      4  C   UNL     1       3.659   7.187  17.896  0.00  0.00    +0.000 A 
ATOM      5  C   UNL     1       3.510   6.050  18.664  0.00  0.00    +0.000 A 
ATOM      6  O   UNL     1       4.163   4.858  18.566  0.00  0.00    +0.000 OA
ATOM      7  C   UNL     1       3.668   4.059  19.551  0.00  0.00    +0.000 A 
ATOM      8  C   UNL     1       4.072   2.750  19.801  0.00  0.00    +0.000 A 
ATOM      9  C   UNL     1       3.439   2.092  20.860  0.00  0.00    +0.000 A 
ATOM     10  C   UNL     1       2.456   2.727  21.624  0.00  0.00    +0.000 A 
ATOM     11  C   UNL     1       2.068   4.047  21.347  0.00  0.00    +0.000 A 
ATOM     12  C   UNL     1       2.694   4.728  20.286  0.00  0.00    +0.000 A 
ATOM     13  C   UNL     1       2.595   6.020  19.700  0.00  0.00    +0.000 A 
ATOM     14  N   UNL     1       1.807   7.071  20.011  0.00  0.00    +0.000 NA
ENDROOT
BRANCH   4  15
ATOM     15  S   UNL     1       4.784   7.218  16.534  0.00  0.00    +0.000 S 
BRANCH  15  16
ATOM     16  C   UNL     1       6.259   6.436  17.244  0.00  0.00    +0.000 C 
BRANCH  16  17
ATOM     17  C   UNL     1       6.829   5.372  16.319  0.00  0.00    +0.000 C 
ATOM     18  O   UNL     1       7.690   4.581  16.682  0.00  0.00    +0.000 OA
ATOM     19  N   UNL     1       6.274   5.368  15.053  0.00  0.00    +0.000 N 
ATOM     20  H   UNL     1       5.670   6.145  14.800  0.00  0.00    +0.000 HD
BRANCH  19  21
ATOM     21  C   UNL     1       6.704   4.437  14.039  0.00  0.00    +0.000 C 
ATOM     22  C   UNL     1       5.546   3.703  13.376  0.00  0.00    +0.000 C 
ATOM     23  C   UNL     1       6.190   3.076  12.146  0.00  0.00    +0.000 C 
ATOM     24  C   UNL     1       7.318   4.028  11.743  0.00  0.00    +0.000 C 
ATOM     25  C   UNL     1       7.391   5.089  12.840  0.00  0.00    +0.000 C 
ENDBRANCH  19  21
ENDBRANCH  16  17
ENDBRANCH  15  16
ENDBRANCH   4  15
TORSDOF 4
ENDMDL
MODEL 7
REMARK VINA RESULT:      -7.7      3.563      6.805
REMARK  Name = 
REMARK  5 active torsions:
REMARK  status: ('A' for Active; 'I' for Inactive)
REMARK    1  A    between atoms: C_1  and  C_2
REMARK    2  A    between atoms: C_4  and  S_5
REMARK    3  A    between atoms: S_5  and  C_6
REMARK    4  A    between atoms: C_6  and  C_7
REMARK    5  A    between atoms: N_9  and  C_10
REMARK                            x       y       z     vdW  Elec       q    Type
REMARK                         _______ _______ _______ _____ _____    ______ ____
ROOT
ATOM      1  C   UNL     1       8.219   7.432  18.491  0.00  0.00    +0.000 C 
ATOM      2  C   UNL     1       7.321   6.505  17.731  0.00  0.00    +0.000 A 
ATOM      3  N   UNL     1       6.247   5.993  18.390  0.00  0.00    +0.000 NA
ATOM      4  C   UNL     1       5.425   5.137  17.723  0.00  0.00    +0.000 A 
ATOM      5  C   UNL     1       5.728   4.851  16.408  0.00  0.00    +0.000 A 
ATOM      6  O   UNL     1       5.075   4.034  15.536  0.00  0.00    +0.000 OA
ATOM      7  C   UNL     1       5.759   4.089  14.360  0.00  0.00    +0.000 A 
ATOM      8  C   UNL     1       5.418   3.397  13.200  0.00  0.00    +0.000 A 
ATOM      9  C   UNL     1       6.251   3.585  12.093  0.00  0.00    +0.000 A 
ATOM     10  C   UNL     1       7.363   4.429  12.157  0.00  0.00    +0.000 A 
ATOM     11  C   UNL     1       7.682   5.112  13.341  0.00  0.00    +0.000 A 
ATOM     12  C   UNL     1       6.856   4.939  14.466  0.00  0.00    +0.000 A 
ATOM     13  C   UNL     1       6.831   5.427  15.802  0.00  0.00    +0.000 A 
ATOM     14  N   UNL     1       7.660   6.275  16.447  0.00  0.00    +0.000 NA
ENDROOT
BRANCH   4  15
ATOM     15  S   UNL     1       4.053   4.365  18.524  0.00  0.00    +0.000 S 
BRANCH  15  16
ATOM     16  C   UNL     1       2.649   5.292  17.846  0.00  0.00    +0.000 C 
BRANCH  16  17
ATOM     17  C   UNL     1       2.640   6.732  18.338  0.00  0.00    +0.000 C 
ATOM     18  O   UNL     1       3.177   7.640  17.718  0.00  0.00    +0.000 OA
ATOM     19  N   UNL     1       1.957   6.918  19.525  0.00  0.00    +0.000 N 
ATOM     20  H   UNL     1       1.664   6.090  20.037  0.00  0.00    +0.000 HD
BRANCH  19  21
ATOM     21  C   UNL     1       1.858   8.215  20.148  0.00  0.00    +0.000 C 
ATOM     22  C   UNL     1       1.010   9.196  19.348  0.00  0.00    +0.000 C 
ATOM     23  C   UNL     1       0.760  10.327  20.338  0.00  0.00    +0.000 C 
ATOM     24  C   UNL     1       0.745   9.669  21.720  0.00  0.00    +0.000 C 
ATOM     25  C   UNL     1       1.142   8.210  21.498  0.00  0.00    +0.000 C 
ENDBRANCH  19  21
ENDBRANCH  16  17
ENDBRANCH  15  16
ENDBRANCH   4  15
TORSDOF 4
ENDMDL
MODEL 8
REMARK VINA RESULT:      -7.7      5.187      8.015
REMARK  Name = 
REMARK  5 active torsions:
REMARK  status: ('A' for Active; 'I' for Inactive)
REMARK    1  A    between atoms: C_1  and  C_2
REMARK    2  A    between atoms: C_4  and  S_5
REMARK    3  A    between atoms: S_5  and  C_6
REMARK    4  A    between atoms: C_6  and  C_7
REMARK    5  A    between atoms: N_9  and  C_10
REMARK                            x       y       z     vdW  Elec       q    Type
REMARK                         _______ _______ _______ _____ _____    ______ ____
ROOT
ATOM      1  C   UNL     1       1.115   3.327  20.865  0.00  0.00    +0.000 C 
ATOM      2  C   UNL     1       1.817   4.368  20.048  0.00  0.00    +0.000 A 
ATOM      3  N   UNL     1       1.569   5.672  20.349  0.00  0.00    +0.000 NA
ATOM      4  C   UNL     1       2.184   6.635  19.609  0.00  0.00    +0.000 A 
ATOM      5  C   UNL     1       3.037   6.225  18.605  0.00  0.00    +0.000 A 
ATOM      6  O   UNL     1       3.761   6.982  17.734  0.00  0.00    +0.000 OA
ATOM      7  C   UNL     1       4.448   6.115  16.940  0.00  0.00    +0.000 A 
ATOM      8  C   UNL     1       5.315   6.482  15.914  0.00  0.00    +0.000 A 
ATOM      9  C   UNL     1       5.927   5.440  15.210  0.00  0.00    +0.000 A 
ATOM     10  C   UNL     1       5.676   4.103  15.531  0.00  0.00    +0.000 A 
ATOM     11  C   UNL     1       4.796   3.764  16.570  0.00  0.00    +0.000 A 
ATOM     12  C   UNL     1       4.172   4.797  17.293  0.00  0.00    +0.000 A 
ATOM     13  C   UNL     1       3.250   4.878  18.373  0.00  0.00    +0.000 A 
ATOM     14  N   UNL     1       2.647   3.908  19.092  0.00  0.00    +0.000 NA
ENDROOT
BRANCH   4  15
ATOM     15  S   UNL     1       1.861   8.350  19.878  0.00  0.00    +0.000 S 
BRANCH  15  16
ATOM     16  C   UNL     1       1.380   8.909  18.221  0.00  0.00    +0.000 C 
BRANCH  16  17
ATOM     17  C   UNL     1       0.227   9.899  18.276  0.00  0.00    +0.000 C 
ATOM     18  O   UNL     1       0.186  10.813  19.089  0.00  0.00    +0.000 OA
ATOM     19  N   UNL     1      -0.748   9.684  17.320  0.00  0.00    +0.000 N 
ATOM     20  H   UNL     1      -0.700   8.824  16.781  0.00  0.00    +0.000 HD
BRANCH  19  21
ATOM     21  C   UNL     1      -1.922  10.517  17.233  0.00  0.00    +0.000 C 
ATOM     22  C   UNL     1      -2.551  10.517  15.846  0.00  0.00    +0.000 C 
ATOM     23  C   UNL     1      -3.919  11.144  16.084  0.00  0.00    +0.000 C 
ATOM     24  C   UNL     1      -4.307  10.754  17.513  0.00  0.00    +0.000 C 
ATOM     25  C   UNL     1      -3.087  10.051  18.106  0.00  0.00    +0.000 C 
ENDBRANCH  19  21
ENDBRANCH  16  17
ENDBRANCH  15  16
ENDBRANCH   4  15
TORSDOF 4
ENDMDL
MODEL 9
REMARK VINA RESULT:      -7.6      2.216      2.910
REMARK  Name = 
REMARK  5 active torsions:
REMARK  status: ('A' for Active; 'I' for Inactive)
REMARK    1  A    between atoms: C_1  and  C_2
REMARK    2  A    between atoms: C_4  and  S_5
REMARK    3  A    between atoms: S_5  and  C_6
REMARK    4  A    between atoms: C_6  and  C_7
REMARK    5  A    between atoms: N_9  and  C_10
REMARK                            x       y       z     vdW  Elec       q    Type
REMARK                         _______ _______ _______ _____ _____    ______ ____
ROOT
ATOM      1  C   UNL     1       2.110   9.131  17.791  0.00  0.00    +0.000 C 
ATOM      2  C   UNL     1       2.831   7.818  17.816  0.00  0.00    +0.000 A 
ATOM      3  N   UNL     1       4.167   7.832  17.560  0.00  0.00    +0.000 NA
ATOM      4  C   UNL     1       4.839   6.648  17.563  0.00  0.00    +0.000 A 
ATOM      5  C   UNL     1       4.120   5.503  17.841  0.00  0.00    +0.000 A 
ATOM      6  O   UNL     1       4.553   4.213  17.900  0.00  0.00    +0.000 OA
ATOM      7  C   UNL     1       3.469   3.451  18.214  0.00  0.00    +0.000 A 
ATOM      8  C   UNL     1       3.481   2.067  18.375  0.00  0.00    +0.000 A 
ATOM      9  C   UNL     1       2.260   1.465  18.696  0.00  0.00    +0.000 A 
ATOM     10  C   UNL     1       1.096   2.223  18.848  0.00  0.00    +0.000 A 
ATOM     11  C   UNL     1       1.115   3.616  18.678  0.00  0.00    +0.000 A 
ATOM     12  C   UNL     1       2.334   4.242  18.357  0.00  0.00    +0.000 A 
ATOM     13  C   UNL     1       2.765   5.575  18.108  0.00  0.00    +0.000 A 
ATOM     14  N   UNL     1       2.079   6.737  18.107  0.00  0.00    +0.000 NA
ENDROOT
BRANCH   4  15
ATOM     15  S   UNL     1       6.557   6.563  17.165  0.00  0.00    +0.000 S 
BRANCH  15  16
ATOM     16  C   UNL     1       7.037   8.312  17.183  0.00  0.00    +0.000 C 
BRANCH  16  17
ATOM     17  C   UNL     1       8.172   8.571  18.163  0.00  0.00    +0.000 C 
ATOM     18  O   UNL     1       8.653   7.685  18.858  0.00  0.00    +0.000 OA
ATOM     19  N   UNL     1       8.617   9.879  18.178  0.00  0.00    +0.000 N 
ATOM     20  H   UNL     1       8.070  10.571  17.673  0.00  0.00    +0.000 HD
BRANCH  19  21
ATOM     21  C   UNL     1       9.677  10.310  19.057  0.00  0.00    +0.000 C 
ATOM     22  C   UNL     1      10.620  11.313  18.405  0.00  0.00    +0.000 C 
ATOM     23  C   UNL     1      11.402  11.873  19.586  0.00  0.00    +0.000 C 
ATOM     24  C   UNL     1      10.444  11.815  20.779  0.00  0.00    +0.000 C 
ATOM     25  C   UNL     1       9.198  11.081  20.286  0.00  0.00    +0.000 C 
ENDBRANCH  19  21
ENDBRANCH  16  17
ENDBRANCH  15  16
ENDBRANCH   4  15
TORSDOF 4
ENDMDL
