MODEL 1
REMARK VINA RESULT:      -7.0      0.000      0.000
REMARK  Name = 
REMARK  4 active torsions:
REMARK  status: ('A' for Active; 'I' for Inactive)
REMARK    1  A    between atoms: N_1  and  C_2
REMARK    2  A    between atoms: N_10  and  C_11
REMARK    3  A    between atoms: C_13  and  C_14
REMARK    4  A    between atoms: C_14  and  O_15
REMARK                            x       y       z     vdW  Elec       q    Type
REMARK                         _______ _______ _______ _____ _____    ______ ____
ROOT
ATOM      1  C   UNL     1       7.047   6.042  16.635  0.00  0.00    +0.000 A 
ATOM      2  N   UNL     1       7.195   5.447  15.430  0.00  0.00    +0.000 NA
ATOM      3  C   UNL     1       6.484   4.326  15.179  0.00  0.00    +0.000 A 
ATOM      4  N   UNL     1       5.604   3.691  15.981  0.00  0.00    +0.000 NA
ATOM      5  C   UNL     1       5.489   4.324  17.159  0.00  0.00    +0.000 A 
ATOM      6  C   UNL     1       6.146   5.479  17.554  0.00  0.00    +0.000 A 
ATOM      7  N   UNL     1       5.758   5.860  18.821  0.00  0.00    +0.000 NA
ATOM      8  C   UNL     1       4.891   4.943  19.193  0.00  0.00    +0.000 A 
ATOM      9  N   UNL     1       4.721   3.972  18.238  0.00  0.00    +0.000 N 
ENDROOT
BRANCH   9  10
ATOM     10  C   UNL     1       3.854   2.809  18.322  0.00  0.00    +0.000 C 
ATOM     11  C   UNL     1       3.377   2.458  19.727  0.00  0.00    +0.000 C 
ATOM     12  C   UNL     1       2.139   3.322  19.880  0.00  0.00    +0.000 C 
ATOM     13  C   UNL     1       1.564   3.307  18.476  0.00  0.00    +0.000 C 
ATOM     14  O   UNL     1       2.649   3.069  17.566  0.00  0.00    +0.000 OA
BRANCH  12  15
ATOM     15  C   UNL     1       1.158   2.826  20.930  0.00  0.00    +0.000 C 
BRANCH  15  16
ATOM     16  O   UNL     1       1.817   2.632  22.172  0.00  0.00    +0.000 OA
ATOM     17  H   UNL     1       1.578   1.750  22.506  0.00  0.00    +0.000 HD
ENDBRANCH  15  16
ENDBRANCH  12  15
ENDBRANCH   9  10
BRANCH   1  18
ATOM     18  N   UNL     1       7.784   7.189  16.905  0.00  0.00    +0.000 N 
ATOM     19  H   UNL     1       7.239   8.031  16.780  0.00  0.00    +0.000 HD
ATOM     20  H   UNL     1       8.348   7.111  17.744  0.00  0.00    +0.000 HD
ENDBRANCH   1  18
TORSDOF 4
ENDMDL
MODEL 2
REMARK VINA RESULT:      -6.7      1.571      2.220
REMARK  Name = 
REMARK  4 active torsions:
REMARK  status: ('A' for Active; 'I' for Inactive)
REMARK    1  A    between atoms: N_1  and  C_2
REMARK    2  A    between atoms: N_10  and  C_11
REMARK    3  A    between atoms: C_13  and  C_14
REMARK    4  A    between atoms: C_14  and  O_15
REMARK                            x       y       z     vdW  Elec       q    Type
REMARK                         _______ _______ _______ _____ _____    ______ ____
ROOT
ATOM      1  C   UNL     1       7.410   7.092  17.823  0.00  0.00    +0.000 A 
ATOM      2  N   UNL     1       8.170   6.686  18.865  0.00  0.00    +0.000 NA
ATOM      3  C   UNL     1       7.777   5.594  19.555  0.00  0.00    +0.000 A 
ATOM      4  N   UNL     1       6.699   4.809  19.346  0.00  0.00    +0.000 NA
ATOM      5  C   UNL     1       5.984   5.250  18.298  0.00  0.00    +0.000 A 
ATOM      6  C   UNL     1       6.265   6.345  17.497  0.00  0.00    +0.000 A 
ATOM      7  N   UNL     1       5.327   6.480  16.496  0.00  0.00    +0.000 NA
ATOM      8  C   UNL     1       4.484   5.490  16.696  0.00  0.00    +0.000 A 
ATOM      9  N   UNL     1       4.815   4.740  17.796  0.00  0.00    +0.000 N 
ENDROOT
BRANCH   9  10
ATOM     10  C   UNL     1       4.099   3.586  18.313  0.00  0.00    +0.000 C 
ATOM     11  C   UNL     1       3.471   3.778  19.688  0.00  0.00    +0.000 C 
ATOM     12  C   UNL     1       2.125   4.392  19.353  0.00  0.00    +0.000 C 
ATOM     13  C   UNL     1       1.767   3.689  18.057  0.00  0.00    +0.000 C 
ATOM     14  O   UNL     1       2.994   3.288  17.429  0.00  0.00    +0.000 OA
BRANCH  12  15
ATOM     15  C   UNL     1       1.071   4.217  20.436  0.00  0.00    +0.000 C 
BRANCH  15  16
ATOM     16  O   UNL     1       0.314   3.040  20.204  0.00  0.00    +0.000 OA
ATOM     17  H   UNL     1       0.699   2.323  20.739  0.00  0.00    +0.000 HD
ENDBRANCH  15  16
ENDBRANCH  12  15
ENDBRANCH   9  10
BRANCH   1  18
ATOM     18  N   UNL     1       7.802   8.222  17.114  0.00  0.00    +0.000 N 
ATOM     19  H   UNL     1       8.735   8.130  16.736  0.00  0.00    +0.000 HD
ATOM     20  H   UNL     1       7.077   8.579  16.503  0.00  0.00    +0.000 HD
ENDBRANCH   1  18
TORSDOF 4
ENDMDL
MODEL 3
REMARK VINA RESULT:      -6.7      1.232      2.114
REMARK  Name = 
REMARK  4 active torsions:
REMARK  status: ('A' for Active; 'I' for Inactive)
REMARK    1  A    between atoms: N_1  and  C_2
REMARK    2  A    between atoms: N_10  and  C_11
REMARK    3  A    between atoms: C_13  and  C_14
REMARK    4  A    between atoms: C_14  and  O_15
REMARK                            x       y       z     vdW  Elec       q    Type
REMARK                         _______ _______ _______ _____ _____    ______ ____
ROOT
ATOM      1  C   UNL     1       7.248   6.212  17.373  0.00  0.00    +0.000 A 
ATOM      2  N   UNL     1       7.835   6.394  18.577  0.00  0.00    +0.000 NA
ATOM      3  C   UNL     1       7.398   5.656  19.621  0.00  0.00    +0.000 A 
ATOM      4  N   UNL     1       6.428   4.717  19.639  0.00  0.00    +0.000 NA
ATOM      5  C   UNL     1       5.884   4.569  18.420  0.00  0.00    +0.000 A 
ATOM      6  C   UNL     1       6.230   5.248  17.263  0.00  0.00    +0.000 A 
ATOM      7  N   UNL     1       5.479   4.815  16.192  0.00  0.00    +0.000 NA
ATOM      8  C   UNL     1       4.680   3.899  16.695  0.00  0.00    +0.000 A 
ATOM      9  N   UNL     1       4.859   3.740  18.046  0.00  0.00    +0.000 N 
ENDROOT
BRANCH   9  10
ATOM     10  C   UNL     1       4.140   2.828  18.919  0.00  0.00    +0.000 C 
ATOM     11  C   UNL     1       3.277   3.497  19.982  0.00  0.00    +0.000 C 
ATOM     12  C   UNL     1       1.971   3.732  19.246  0.00  0.00    +0.000 C 
ATOM     13  C   UNL     1       1.883   2.509  18.353  0.00  0.00    +0.000 C 
ATOM     14  O   UNL     1       3.222   2.044  18.123  0.00  0.00    +0.000 OA
BRANCH  12  15
ATOM     15  C   UNL     1       0.762   3.893  20.155  0.00  0.00    +0.000 C 
BRANCH  15  16
ATOM     16  O   UNL     1       0.754   2.885  21.153  0.00  0.00    +0.000 OA
ATOM     17  H   UNL     1       1.499   2.283  20.979  0.00  0.00    +0.000 HD
ENDBRANCH  15  16
ENDBRANCH  12  15
ENDBRANCH   9  10
BRANCH   1  18
ATOM     18  N   UNL     1       7.684   6.976  16.297  0.00  0.00    +0.000 N 
ATOM     19  H   UNL     1       7.065   6.903  15.502  0.00  0.00    +0.000 HD
ATOM     20  H   UNL     1       8.000   7.900  16.568  0.00  0.00    +0.000 HD
ENDBRANCH   1  18
TORSDOF 4
ENDMDL
MODEL 4
REMARK VINA RESULT:      -6.6      1.085      1.174
REMARK  Name = 
REMARK  4 active torsions:
REMARK  status: ('A' for Active; 'I' for Inactive)
REMARK    1  A    between atoms: N_1  and  C_2
REMARK    2  A    between atoms: N_10  and  C_11
REMARK    3  A    between atoms: C_13  and  C_14
REMARK    4  A    between atoms: C_14  and  O_15
REMARK                            x       y       z     vdW  Elec       q    Type
REMARK                         _______ _______ _______ _____ _____    ______ ____
ROOT
ATOM      1  C   UNL     1       7.473   6.364  17.878  0.00  0.00    +0.000 A 
ATOM      2  N   UNL     1       7.600   6.458  16.535  0.00  0.00    +0.000 NA
ATOM      3  C   UNL     1       6.799   5.695  15.761  0.00  0.00    +0.000 A 
ATOM      4  N   UNL     1       5.842   4.823  16.144  0.00  0.00    +0.000 NA
ATOM      5  C   UNL     1       5.750   4.773  17.483  0.00  0.00    +0.000 A 
ATOM      6  C   UNL     1       6.498   5.496  18.399  0.00  0.00    +0.000 A 
ATOM      7  N   UNL     1       6.110   5.210  19.690  0.00  0.00    +0.000 NA
ATOM      8  C   UNL     1       5.153   4.316  19.559  0.00  0.00    +0.000 A 
ATOM      9  N   UNL     1       4.924   3.990  18.246  0.00  0.00    +0.000 N 
ENDROOT
BRANCH   9  10
ATOM     10  C   UNL     1       3.952   3.034  17.742  0.00  0.00    +0.000 C 
ATOM     11  C   UNL     1       3.113   2.342  18.810  0.00  0.00    +0.000 C 
ATOM     12  C   UNL     1       1.967   3.315  19.010  0.00  0.00    +0.000 C 
ATOM     13  C   UNL     1       1.755   3.853  17.607  0.00  0.00    +0.000 C 
ATOM     14  O   UNL     1       3.002   3.731  16.905  0.00  0.00    +0.000 OA
BRANCH  12  15
ATOM     15  C   UNL     1       0.714   2.690  19.603  0.00  0.00    +0.000 C 
BRANCH  15  16
ATOM     16  O   UNL     1       0.665   2.910  21.004  0.00  0.00    +0.000 OA
ATOM     17  H   UNL     1       0.936   2.088  21.448  0.00  0.00    +0.000 HD
ENDBRANCH  15  16
ENDBRANCH  12  15
ENDBRANCH   9  10
BRANCH   1  18
ATOM     18  N   UNL     1       8.303   7.138  18.681  0.00  0.00    +0.000 N 
ATOM     19  H   UNL     1       7.812   7.918  19.096  0.00  0.00    +0.000 HD
ATOM     20  H   UNL     1       8.905   6.585  19.280  0.00  0.00    +0.000 HD
ENDBRANCH   1  18
TORSDOF 4
ENDMDL
MODEL 5
REMARK VINA RESULT:      -6.5      2.860      5.632
REMARK  Name = 
REMARK  4 active torsions:
REMARK  status: ('A' for Active; 'I' for Inactive)
REMARK    1  A    between atoms: N_1  and  C_2
REMARK    2  A    between atoms: N_10  and  C_11
REMARK    3  A    between atoms: C_13  and  C_14
REMARK    4  A    between atoms: C_14  and  O_15
REMARK                            x       y       z     vdW  Elec       q    Type
REMARK                         _______ _______ _______ _____ _____    ______ ____
ROOT
ATOM      1  C   UNL     1       1.713   3.107  19.557  0.00  0.00    +0.000 A 
ATOM      2  N   UNL     1       2.103   1.857  19.223  0.00  0.00    +0.000 NA
ATOM      3  C   UNL     1       3.097   1.716  18.319  0.00  0.00    +0.000 A 
ATOM      4  N   UNL     1       3.795   2.678  17.681  0.00  0.00    +0.000 NA
ATOM      5  C   UNL     1       3.376   3.899  18.052  0.00  0.00    +0.000 A 
ATOM      6  C   UNL     1       2.377   4.196  18.966  0.00  0.00    +0.000 A 
ATOM      7  N   UNL     1       2.238   5.559  19.121  0.00  0.00    +0.000 NA
ATOM      8  C   UNL     1       3.128   6.078  18.303  0.00  0.00    +0.000 A 
ATOM      9  N   UNL     1       3.816   5.117  17.606  0.00  0.00    +0.000 N 
ENDROOT
BRANCH   9  10
ATOM     10  C   UNL     1       4.856   5.336  16.615  0.00  0.00    +0.000 C 
ATOM     11  C   UNL     1       5.496   6.719  16.644  0.00  0.00    +0.000 C 
ATOM     12  C   UNL     1       6.594   6.554  17.677  0.00  0.00    +0.000 C 
ATOM     13  C   UNL     1       7.047   5.126  17.436  0.00  0.00    +0.000 C 
ATOM     14  O   UNL     1       5.940   4.412  16.864  0.00  0.00    +0.000 OA
BRANCH  12  15
ATOM     15  C   UNL     1       7.723   7.565  17.556  0.00  0.00    +0.000 C 
BRANCH  15  16
ATOM     16  O   UNL     1       8.468   7.624  18.762  0.00  0.00    +0.000 OA
ATOM     17  H   UNL     1       8.149   6.916  19.348  0.00  0.00    +0.000 HD
ENDBRANCH  15  16
ENDBRANCH  12  15
ENDBRANCH   9  10
BRANCH   1  18
ATOM     18  N   UNL     1       0.683   3.260  20.477  0.00  0.00    +0.000 N 
ATOM     19  H   UNL     1      -0.176   3.566  20.041  0.00  0.00    +0.000 HD
ATOM     20  H   UNL     1       0.630   2.499  21.144  0.00  0.00    +0.000 HD
ENDBRANCH   1  18
TORSDOF 4
ENDMDL
MODEL 6
REMARK VINA RESULT:      -6.5      2.810      6.050
REMARK  Name = 
REMARK  4 active torsions:
REMARK  status: ('A' for Active; 'I' for Inactive)
REMARK    1  A    between atoms: N_1  and  C_2
REMARK    2  A    between atoms: N_10  and  C_11
REMARK    3  A    between atoms: C_13  and  C_14
REMARK    4  A    between atoms: C_14  and  O_15
REMARK                            x       y       z     vdW  Elec       q    Type
REMARK                         _______ _______ _______ _____ _____    ______ ____
ROOT
ATOM      1  C   UNL     1       1.303   3.721  19.797  0.00  0.00    +0.000 A 
ATOM      2  N   UNL     1       1.220   4.834  20.559  0.00  0.00    +0.000 NA
ATOM      3  C   UNL     1       2.191   5.765  20.439  0.00  0.00    +0.000 A 
ATOM      4  N   UNL     1       3.272   5.754  19.631  0.00  0.00    +0.000 NA
ATOM      5  C   UNL     1       3.303   4.633  18.891  0.00  0.00    +0.000 A 
ATOM      6  C   UNL     1       2.380   3.600  18.903  0.00  0.00    +0.000 A 
ATOM      7  N   UNL     1       2.718   2.624  17.989  0.00  0.00    +0.000 NA
ATOM      8  C   UNL     1       3.835   3.054  17.444  0.00  0.00    +0.000 A 
ATOM      9  N   UNL     1       4.251   4.246  17.981  0.00  0.00    +0.000 N 
ENDROOT
BRANCH   9  10
ATOM     10  C   UNL     1       5.444   4.994  17.624  0.00  0.00    +0.000 C 
ATOM     11  C   UNL     1       6.372   4.298  16.635  0.00  0.00    +0.000 C 
ATOM     12  C   UNL     1       5.787   4.702  15.295  0.00  0.00    +0.000 C 
ATOM     13  C   UNL     1       5.314   6.118  15.566  0.00  0.00    +0.000 C 
ATOM     14  O   UNL     1       5.048   6.223  16.974  0.00  0.00    +0.000 OA
BRANCH  12  15
ATOM     15  C   UNL     1       6.766   4.614  14.134  0.00  0.00    +0.000 C 
BRANCH  15  16
ATOM     16  O   UNL     1       7.825   5.542  14.307  0.00  0.00    +0.000 OA
ATOM     17  H   UNL     1       8.231   5.377  15.176  0.00  0.00    +0.000 HD
ENDBRANCH  15  16
ENDBRANCH  12  15
ENDBRANCH   9  10
BRANCH   1  18
ATOM     18  N   UNL     1       0.313   2.753  19.924  0.00  0.00    +0.000 N 
ATOM     19  H   UNL     1       0.569   1.885  19.474  0.00  0.00    +0.000 HD
ATOM     20  H   UNL     1      -0.079   2.704  20.857  0.00  0.00    +0.000 HD
ENDBRANCH   1  18
TORSDOF 4
ENDMDL
MODEL 7
REMARK VINA RESULT:      -6.5      1.208      1.208
REMARK  Name = 
REMARK  4 active torsions:
REMARK  status: ('A' for Active; 'I' for Inactive)
REMARK    1  A    between atoms: N_1  and  C_2
REMARK    2  A    between atoms: N_10  and  C_11
REMARK    3  A    between atoms: C_13  and  C_14
REMARK    4  A    between atoms: C_14  and  O_15
REMARK                            x       y       z     vdW  Elec       q    Type
REMARK                         _______ _______ _______ _____ _____    ______ ____
ROOT
ATOM      1  C   UNL     1       6.587   6.734  16.904  0.00  0.00    +0.000 A 
ATOM      2  N   UNL     1       7.471   5.833  16.420  0.00  0.00    +0.000 NA
ATOM      3  C   UNL     1       7.089   4.541  16.342  0.00  0.00    +0.000 A 
ATOM      4  N   UNL     1       5.903   3.992  16.680  0.00  0.00    +0.000 NA
ATOM      5  C   UNL     1       5.060   4.928  17.147  0.00  0.00    +0.000 A 
ATOM      6  C   UNL     1       5.309   6.285  17.279  0.00  0.00    +0.000 A 
ATOM      7  N   UNL     1       4.201   6.946  17.764  0.00  0.00    +0.000 NA
ATOM      8  C   UNL     1       3.301   6.003  17.937  0.00  0.00    +0.000 A 
ATOM      9  N   UNL     1       3.783   4.759  17.614  0.00  0.00    +0.000 N 
ENDROOT
BRANCH   9  10
ATOM     10  C   UNL     1       3.066   3.498  17.698  0.00  0.00    +0.000 C 
ATOM     11  C   UNL     1       3.204   2.764  19.026  0.00  0.00    +0.000 C 
ATOM     12  C   UNL     1       2.098   3.382  19.861  0.00  0.00    +0.000 C 
ATOM     13  C   UNL     1       1.011   3.615  18.828  0.00  0.00    +0.000 C 
ATOM     14  O   UNL     1       1.651   3.754  17.550  0.00  0.00    +0.000 OA
BRANCH  12  15
ATOM     15  C   UNL     1       1.637   2.519  21.025  0.00  0.00    +0.000 C 
BRANCH  15  16
ATOM     16  O   UNL     1       2.650   2.442  22.016  0.00  0.00    +0.000 OA
ATOM     17  H   UNL     1       2.216   2.386  22.886  0.00  0.00    +0.000 HD
ENDBRANCH  15  16
ENDBRANCH  12  15
ENDBRANCH   9  10
BRANCH   1  18
ATOM     18  N   UNL     1       6.977   8.065  16.998  0.00  0.00    +0.000 N 
ATOM     19  H   UNL     1       6.503   8.549  17.748  0.00  0.00    +0.000 HD
ATOM     20  H   UNL     1       7.979   8.193  16.911  0.00  0.00    +0.000 HD
ENDBRANCH   1  18
TORSDOF 4
ENDMDL
MODEL 8
REMARK VINA RESULT:      -6.5      2.903      5.658
REMARK  Name = 
REMARK  4 active torsions:
REMARK  status: ('A' for Active; 'I' for Inactive)
REMARK    1  A    between atoms: N_1  and  C_2
REMARK    2  A    between atoms: N_10  and  C_11
REMARK    3  A    between atoms: C_13  and  C_14
REMARK    4  A    between atoms: C_14  and  O_15
REMARK                            x       y       z     vdW  Elec       q    Type
REMARK                         _______ _______ _______ _____ _____    ______ ____
ROOT
ATOM      1  C   UNL     1       1.235   3.730  19.746  0.00  0.00    +0.000 A 
ATOM      2  N   UNL     1       1.148   4.814  20.549  0.00  0.00    +0.000 NA
ATOM      3  C   UNL     1       1.994   5.843  20.329  0.00  0.00    +0.000 A 
ATOM      4  N   UNL     1       2.948   5.959  19.381  0.00  0.00    +0.000 NA
ATOM      5  C   UNL     1       2.988   4.863  18.607  0.00  0.00    +0.000 A 
ATOM      6  C   UNL     1       2.184   3.739  18.710  0.00  0.00    +0.000 A 
ATOM      7  N   UNL     1       2.488   2.822  17.726  0.00  0.00    +0.000 NA
ATOM      8  C   UNL     1       3.470   3.375  17.048  0.00  0.00    +0.000 A 
ATOM      9  N   UNL     1       3.834   4.594  17.564  0.00  0.00    +0.000 N 
ENDROOT
BRANCH   9  10
ATOM     10  C   UNL     1       4.885   5.469  17.073  0.00  0.00    +0.000 C 
ATOM     11  C   UNL     1       5.668   6.207  18.152  0.00  0.00    +0.000 C 
ATOM     12  C   UNL     1       6.749   5.208  18.518  0.00  0.00    +0.000 C 
ATOM     13  C   UNL     1       7.046   4.555  17.180  0.00  0.00    +0.000 C 
ATOM     14  O   UNL     1       5.866   4.672  16.370  0.00  0.00    +0.000 OA
BRANCH  12  15
ATOM     15  C   UNL     1       7.979   5.826  19.164  0.00  0.00    +0.000 C 
BRANCH  15  16
ATOM     16  O   UNL     1       8.070   5.438  20.526  0.00  0.00    +0.000 OA
ATOM     17  H   UNL     1       8.171   4.471  20.558  0.00  0.00    +0.000 HD
ENDBRANCH  15  16
ENDBRANCH  12  15
ENDBRANCH   9  10
BRANCH   1  18
ATOM     18  N   UNL     1       0.374   2.662  19.974  0.00  0.00    +0.000 N 
ATOM     19  H   UNL     1      -0.484   2.953  20.422  0.00  0.00    +0.000 HD
ATOM     20  H   UNL     1       0.305   2.032  19.183  0.00  0.00    +0.000 HD
ENDBRANCH   1  18
TORSDOF 4
ENDMDL
MODEL 9
REMARK VINA RESULT:      -6.5      2.982      5.829
REMARK  Name = 
REMARK  4 active torsions:
REMARK  status: ('A' for Active; 'I' for Inactive)
REMARK    1  A    between atoms: N_1  and  C_2
REMARK    2  A    between atoms: N_10  and  C_11
REMARK    3  A    between atoms: C_13  and  C_14
REMARK    4  A    between atoms: C_14  and  O_15
REMARK                            x       y       z     vdW  Elec       q    Type
REMARK                         _______ _______ _______ _____ _____    ______ ____
ROOT
ATOM      1  C   UNL     1       2.101   3.475  20.073  0.00  0.00    +0.000 A 
ATOM      2  N   UNL     1       2.733   2.525  20.798  0.00  0.00    +0.000 NA
ATOM      3  C   UNL     1       4.044   2.305  20.561  0.00  0.00    +0.000 A 
ATOM      4  N   UNL     1       4.854   2.926  19.677  0.00  0.00    +0.000 NA
ATOM      5  C   UNL     1       4.182   3.863  18.990  0.00  0.00    +0.000 A 
ATOM      6  C   UNL     1       2.845   4.201  19.127  0.00  0.00    +0.000 A 
ATOM      7  N   UNL     1       2.505   5.231  18.276  0.00  0.00    +0.000 NA
ATOM      8  C   UNL     1       3.615   5.502  17.624  0.00  0.00    +0.000 A 
ATOM      9  N   UNL     1       4.648   4.678  17.992  0.00  0.00    +0.000 N 
ENDROOT
BRANCH   9  10
ATOM     10  C   UNL     1       6.003   4.691  17.466  0.00  0.00    +0.000 C 
ATOM     11  C   UNL     1       6.439   6.008  16.836  0.00  0.00    +0.000 C 
ATOM     12  C   UNL     1       6.956   6.790  18.029  0.00  0.00    +0.000 C 
ATOM     13  C   UNL     1       7.588   5.700  18.875  0.00  0.00    +0.000 C 
ATOM     14  O   UNL     1       6.928   4.466  18.554  0.00  0.00    +0.000 OA
BRANCH  12  15
ATOM     15  C   UNL     1       7.926   7.905  17.673  0.00  0.00    +0.000 C 
BRANCH  15  16
ATOM     16  O   UNL     1       8.688   8.281  18.809  0.00  0.00    +0.000 OA
ATOM     17  H   UNL     1       8.158   8.092  19.603  0.00  0.00    +0.000 HD
ENDBRANCH  15  16
ENDBRANCH  12  15
ENDBRANCH   9  10
BRANCH   1  18
ATOM     18  N   UNL     1       0.748   3.699  20.303  0.00  0.00    +0.000 N 
ATOM     19  H   UNL     1       0.161   3.110  19.728  0.00  0.00    +0.000 HD
ATOM     20  H   UNL     1       0.520   3.777  21.288  0.00  0.00    +0.000 HD
ENDBRANCH   1  18
TORSDOF 4
ENDMDL
