MODEL 1
REMARK VINA RESULT:      -6.7      0.000      0.000
REMARK  Name = 
REMARK  7 active torsions:
REMARK  status: ('A' for Active; 'I' for Inactive)
REMARK    1  A    between atoms: C_2  and  C_3
REMARK    2  A    between atoms: C_3  and  C_4
REMARK    3  A    between atoms: C_5  and  C_6
REMARK    4  A    between atoms: C_6  and  N_7
REMARK    5  A    between atoms: N_7  and  N_8
REMARK    6  A    between atoms: C_9  and  C_10
REMARK    7  A    between atoms: C_10  and  C_11
REMARK                            x       y       z     vdW  Elec       q    Type
REMARK                         _______ _______ _______ _____ _____    ______ ____
ROOT
ATOM      1  N   UNL     1       5.070   5.323  16.454  0.00  0.00    +0.000 NA
ATOM      2  C   UNL     1       4.427   4.820  17.451  0.00  0.00    +0.000 C 
ENDROOT
BRANCH   1   3
ATOM      3  N   UNL     1       6.213   4.696  16.107  0.00  0.00    +0.000 N 
ATOM      4  H   UNL     1       6.589   3.922  16.647  0.00  0.00    +0.000 HD
BRANCH   3   5
ATOM      5  C   UNL     1       6.861   4.992  14.838  0.00  0.00    +0.000 C 
BRANCH   5   7
ATOM      6  C   UNL     1       5.864   3.365  12.756  0.00  0.00    +0.000 C 
ATOM      7  C   UNL     1       6.324   4.116  13.717  0.00  0.00    +0.000 C 
BRANCH   6   8
ATOM      8  C   UNL     1       5.329   2.489  11.635  0.00  0.00    +0.000 C 
BRANCH   8  10
ATOM      9  C   UNL     1       3.203   3.816  10.335  0.00  0.00    +0.000 C 
ATOM     10  C   UNL     1       4.184   3.203  10.935  0.00  0.00    +0.000 C 
ENDBRANCH   8  10
ENDBRANCH   6   8
ENDBRANCH   5   7
ENDBRANCH   3   5
ENDBRANCH   1   3
BRANCH   2  11
ATOM     11  C   UNL     1       3.149   5.476  17.937  0.00  0.00    +0.000 C 
BRANCH  11  12
ATOM     12  C   UNL     1       2.419   4.642  18.964  0.00  0.00    +0.000 A 
ATOM     13  C   UNL     1       2.713   4.776  20.329  0.00  0.00    +0.000 A 
ATOM     14  C   UNL     1       2.075   3.964  21.274  0.00  0.00    +0.000 A 
ATOM     15  C   UNL     1       1.103   3.053  20.871  0.00  0.00    +0.000 A 
ATOM     16  C   UNL     1       0.779   2.938  19.518  0.00  0.00    +0.000 A 
ATOM     17  C   UNL     1       1.440   3.720  18.570  0.00  0.00    +0.000 A 
ENDBRANCH  11  12
ENDBRANCH   2  11
TORSDOF 7
ENDMDL
MODEL 2
REMARK VINA RESULT:      -6.6      1.108      1.425
REMARK  Name = 
REMARK  7 active torsions:
REMARK  status: ('A' for Active; 'I' for Inactive)
REMARK    1  A    between atoms: C_2  and  C_3
REMARK    2  A    between atoms: C_3  and  C_4
REMARK    3  A    between atoms: C_5  and  C_6
REMARK    4  A    between atoms: C_6  and  N_7
REMARK    5  A    between atoms: N_7  and  N_8
REMARK    6  A    between atoms: C_9  and  C_10
REMARK    7  A    between atoms: C_10  and  C_11
REMARK                            x       y       z     vdW  Elec       q    Type
REMARK                         _______ _______ _______ _____ _____    ______ ____
ROOT
ATOM      1  N   UNL     1       5.249   3.494  16.757  0.00  0.00    +0.000 NA
ATOM      2  C   UNL     1       4.176   4.160  17.020  0.00  0.00    +0.000 C 
ENDROOT
BRANCH   1   3
ATOM      3  N   UNL     1       6.363   4.223  16.547  0.00  0.00    +0.000 N 
ATOM      4  H   UNL     1       7.177   4.155  17.153  0.00  0.00    +0.000 HD
BRANCH   3   5
ATOM      5  C   UNL     1       6.510   5.011  15.332  0.00  0.00    +0.000 C 
BRANCH   5   7
ATOM      6  C   UNL     1       6.033   3.459  13.021  0.00  0.00    +0.000 C 
ATOM      7  C   UNL     1       6.253   4.176  14.088  0.00  0.00    +0.000 C 
BRANCH   6   8
ATOM      8  C   UNL     1       5.776   2.625  11.776  0.00  0.00    +0.000 C 
BRANCH   8  10
ATOM      9  C   UNL     1       3.320   3.395  10.616  0.00  0.00    +0.000 C 
ATOM     10  C   UNL     1       4.454   3.040  11.151  0.00  0.00    +0.000 C 
ENDBRANCH   8  10
ENDBRANCH   6   8
ENDBRANCH   5   7
ENDBRANCH   3   5
ENDBRANCH   1   3
BRANCH   2  11
ATOM     11  C   UNL     1       2.865   3.430  17.237  0.00  0.00    +0.000 C 
BRANCH  11  12
ATOM     12  C   UNL     1       2.486   3.332  18.696  0.00  0.00    +0.000 A 
ATOM     13  C   UNL     1       1.254   3.832  19.146  0.00  0.00    +0.000 A 
ATOM     14  C   UNL     1       0.928   3.792  20.506  0.00  0.00    +0.000 A 
ATOM     15  C   UNL     1       1.801   3.205  21.418  0.00  0.00    +0.000 A 
ATOM     16  C   UNL     1       3.013   2.673  20.974  0.00  0.00    +0.000 A 
ATOM     17  C   UNL     1       3.358   2.746  19.624  0.00  0.00    +0.000 A 
ENDBRANCH  11  12
ENDBRANCH   2  11
TORSDOF 7
ENDMDL
MODEL 3
REMARK VINA RESULT:      -6.6      0.913      1.495
REMARK  Name = 
REMARK  7 active torsions:
REMARK  status: ('A' for Active; 'I' for Inactive)
REMARK    1  A    between atoms: C_2  and  C_3
REMARK    2  A    between atoms: C_3  and  C_4
REMARK    3  A    between atoms: C_5  and  C_6
REMARK    4  A    between atoms: C_6  and  N_7
REMARK    5  A    between atoms: N_7  and  N_8
REMARK    6  A    between atoms: C_9  and  C_10
REMARK    7  A    between atoms: C_10  and  C_11
REMARK                            x       y       z     vdW  Elec       q    Type
REMARK                         _______ _______ _______ _____ _____    ______ ____
ROOT
ATOM      1  N   UNL     1       6.459   4.666  17.744  0.00  0.00    +0.000 NA
ATOM      2  C   UNL     1       5.176   4.627  17.856  0.00  0.00    +0.000 C 
ENDROOT
BRANCH   1   3
ATOM      3  N   UNL     1       6.966   4.226  16.574  0.00  0.00    +0.000 N 
ATOM      4  H   UNL     1       7.319   3.280  16.460  0.00  0.00    +0.000 HD
BRANCH   3   5
ATOM      5  C   UNL     1       6.863   5.040  15.373  0.00  0.00    +0.000 C 
BRANCH   5   7
ATOM      6  C   UNL     1       6.166   3.487  13.119  0.00  0.00    +0.000 C 
ATOM      7  C   UNL     1       6.487   4.205  14.159  0.00  0.00    +0.000 C 
BRANCH   6   8
ATOM      8  C   UNL     1       5.792   2.652  11.905  0.00  0.00    +0.000 C 
BRANCH   8  10
ATOM      9  C   UNL     1       3.406   3.650  10.773  0.00  0.00    +0.000 C 
ATOM     10  C   UNL     1       4.507   3.189  11.296  0.00  0.00    +0.000 C 
ENDBRANCH   8  10
ENDBRANCH   6   8
ENDBRANCH   5   7
ENDBRANCH   3   5
ENDBRANCH   1   3
BRANCH   2  11
ATOM     11  C   UNL     1       4.514   5.069  19.147  0.00  0.00    +0.000 C 
BRANCH  11  12
ATOM     12  C   UNL     1       3.196   4.373  19.396  0.00  0.00    +0.000 A 
ATOM     13  C   UNL     1       2.443   3.871  18.325  0.00  0.00    +0.000 A 
ATOM     14  C   UNL     1       1.197   3.277  18.553  0.00  0.00    +0.000 A 
ATOM     15  C   UNL     1       0.718   3.131  19.852  0.00  0.00    +0.000 A 
ATOM     16  C   UNL     1       1.478   3.596  20.926  0.00  0.00    +0.000 A 
ATOM     17  C   UNL     1       2.703   4.223  20.699  0.00  0.00    +0.000 A 
ENDBRANCH  11  12
ENDBRANCH   2  11
TORSDOF 7
ENDMDL
MODEL 4
REMARK VINA RESULT:      -6.6      1.036      1.360
REMARK  Name = 
REMARK  7 active torsions:
REMARK  status: ('A' for Active; 'I' for Inactive)
REMARK    1  A    between atoms: C_2  and  C_3
REMARK    2  A    between atoms: C_3  and  C_4
REMARK    3  A    between atoms: C_5  and  C_6
REMARK    4  A    between atoms: C_6  and  N_7
REMARK    5  A    between atoms: N_7  and  N_8
REMARK    6  A    between atoms: C_9  and  C_10
REMARK    7  A    between atoms: C_10  and  C_11
REMARK                            x       y       z     vdW  Elec       q    Type
REMARK                         _______ _______ _______ _____ _____    ______ ____
ROOT
ATOM      1  N   UNL     1       4.776   6.377  16.770  0.00  0.00    +0.000 NA
ATOM      2  C   UNL     1       4.901   5.423  17.628  0.00  0.00    +0.000 C 
ENDROOT
BRANCH   1   3
ATOM      3  N   UNL     1       5.380   6.187  15.580  0.00  0.00    +0.000 N 
ATOM      4  H   UNL     1       5.245   6.822  14.798  0.00  0.00    +0.000 HD
BRANCH   3   5
ATOM      5  C   UNL     1       6.395   5.156  15.425  0.00  0.00    +0.000 C 
BRANCH   5   7
ATOM      6  C   UNL     1       5.951   3.596  13.112  0.00  0.00    +0.000 C 
ATOM      7  C   UNL     1       6.156   4.316  14.180  0.00  0.00    +0.000 C 
BRANCH   6   8
ATOM      8  C   UNL     1       5.713   2.756  11.868  0.00  0.00    +0.000 C 
BRANCH   8  10
ATOM      9  C   UNL     1       3.283   3.533  10.658  0.00  0.00    +0.000 C 
ATOM     10  C   UNL     1       4.405   3.174  11.216  0.00  0.00    +0.000 C 
ENDBRANCH   8  10
ENDBRANCH   6   8
ENDBRANCH   5   7
ENDBRANCH   3   5
ENDBRANCH   1   3
BRANCH   2  11
ATOM     11  C   UNL     1       4.286   5.558  19.008  0.00  0.00    +0.000 C 
BRANCH  11  12
ATOM     12  C   UNL     1       3.163   4.576  19.246  0.00  0.00    +0.000 A 
ATOM     13  C   UNL     1       3.273   3.248  18.809  0.00  0.00    +0.000 A 
ATOM     14  C   UNL     1       2.210   2.355  18.981  0.00  0.00    +0.000 A 
ATOM     15  C   UNL     1       1.052   2.763  19.637  0.00  0.00    +0.000 A 
ATOM     16  C   UNL     1       0.947   4.074  20.106  0.00  0.00    +0.000 A 
ATOM     17  C   UNL     1       1.991   4.977  19.903  0.00  0.00    +0.000 A 
ENDBRANCH  11  12
ENDBRANCH   2  11
TORSDOF 7
ENDMDL
MODEL 5
REMARK VINA RESULT:      -6.5      1.072      1.478
REMARK  Name = 
REMARK  7 active torsions:
REMARK  status: ('A' for Active; 'I' for Inactive)
REMARK    1  A    between atoms: C_2  and  C_3
REMARK    2  A    between atoms: C_3  and  C_4
REMARK    3  A    between atoms: C_5  and  C_6
REMARK    4  A    between atoms: C_6  and  N_7
REMARK    5  A    between atoms: N_7  and  N_8
REMARK    6  A    between atoms: C_9  and  C_10
REMARK    7  A    between atoms: C_10  and  C_11
REMARK                            x       y       z     vdW  Elec       q    Type
REMARK                         _______ _______ _______ _____ _____    ______ ____
ROOT
ATOM      1  N   UNL     1       4.617   3.700  17.032  0.00  0.00    +0.000 NA
ATOM      2  C   UNL     1       4.106   4.782  17.513  0.00  0.00    +0.000 C 
ENDROOT
BRANCH   1   3
ATOM      3  N   UNL     1       5.954   3.701  16.860  0.00  0.00    +0.000 N 
ATOM      4  H   UNL     1       6.567   3.078  17.380  0.00  0.00    +0.000 HD
BRANCH   3   5
ATOM      5  C   UNL     1       6.559   4.477  15.788  0.00  0.00    +0.000 C 
BRANCH   5   7
ATOM      6  C   UNL     1       5.625   3.654  13.253  0.00  0.00    +0.000 C 
ATOM      7  C   UNL     1       6.056   4.034  14.423  0.00  0.00    +0.000 C 
BRANCH   6   8
ATOM      8  C   UNL     1       5.122   3.210  11.889  0.00  0.00    +0.000 C 
BRANCH   8  10
ATOM      9  C   UNL     1       6.609   0.974  11.018  0.00  0.00    +0.000 C 
ATOM     10  C   UNL     1       5.923   2.006  11.420  0.00  0.00    +0.000 C 
ENDBRANCH   8  10
ENDBRANCH   6   8
ENDBRANCH   5   7
ENDBRANCH   3   5
ENDBRANCH   1   3
BRANCH   2  11
ATOM     11  C   UNL     1       2.607   4.890  17.710  0.00  0.00    +0.000 C 
BRANCH  11  12
ATOM     12  C   UNL     1       2.129   4.189  18.960  0.00  0.00    +0.000 A 
ATOM     13  C   UNL     1       2.761   4.420  20.191  0.00  0.00    +0.000 A 
ATOM     14  C   UNL     1       2.354   3.728  21.337  0.00  0.00    +0.000 A 
ATOM     15  C   UNL     1       1.281   2.844  21.276  0.00  0.00    +0.000 A 
ATOM     16  C   UNL     1       0.623   2.635  20.063  0.00  0.00    +0.000 A 
ATOM     17  C   UNL     1       1.051   3.295  18.911  0.00  0.00    +0.000 A 
ENDBRANCH  11  12
ENDBRANCH   2  11
TORSDOF 7
ENDMDL
MODEL 6
REMARK VINA RESULT:      -6.5      1.494      1.825
REMARK  Name = 
REMARK  7 active torsions:
REMARK  status: ('A' for Active; 'I' for Inactive)
REMARK    1  A    between atoms: C_2  and  C_3
REMARK    2  A    between atoms: C_3  and  C_4
REMARK    3  A    between atoms: C_5  and  C_6
REMARK    4  A    between atoms: C_6  and  N_7
REMARK    5  A    between atoms: N_7  and  N_8
REMARK    6  A    between atoms: C_9  and  C_10
REMARK    7  A    between atoms: C_10  and  C_11
REMARK                            x       y       z     vdW  Elec       q    Type
REMARK                         _______ _______ _______ _____ _____    ______ ____
ROOT
ATOM      1  N   UNL     1       6.196   4.919  16.337  0.00  0.00    +0.000 NA
ATOM      2  C   UNL     1       6.402   4.867  17.609  0.00  0.00    +0.000 C 
ENDROOT
BRANCH   1   3
ATOM      3  N   UNL     1       7.244   4.599  15.552  0.00  0.00    +0.000 N 
ATOM      4  H   UNL     1       7.958   3.939  15.847  0.00  0.00    +0.000 HD
BRANCH   3   5
ATOM      5  C   UNL     1       7.299   5.058  14.172  0.00  0.00    +0.000 C 
BRANCH   5   7
ATOM      6  C   UNL     1       5.793   3.391  12.461  0.00  0.00    +0.000 C 
ATOM      7  C   UNL     1       6.489   4.160  13.251  0.00  0.00    +0.000 C 
BRANCH   6   8
ATOM      8  C   UNL     1       4.981   2.494  11.540  0.00  0.00    +0.000 C 
BRANCH   8  10
ATOM      9  C   UNL     1       3.133   4.058  10.089  0.00  0.00    +0.000 C 
ATOM     10  C   UNL     1       3.986   3.336  10.759  0.00  0.00    +0.000 C 
ENDBRANCH   8  10
ENDBRANCH   6   8
ENDBRANCH   5   7
ENDBRANCH   3   5
ENDBRANCH   1   3
BRANCH   2  11
ATOM     11  C   UNL     1       5.293   5.243  18.573  0.00  0.00    +0.000 C 
BRANCH  11  12
ATOM     12  C   UNL     1       4.058   4.390  18.404  0.00  0.00    +0.000 A 
ATOM     13  C   UNL     1       4.094   3.019  18.703  0.00  0.00    +0.000 A 
ATOM     14  C   UNL     1       2.965   2.220  18.493  0.00  0.00    +0.000 A 
ATOM     15  C   UNL     1       1.779   2.789  18.037  0.00  0.00    +0.000 A 
ATOM     16  C   UNL     1       1.724   4.158  17.772  0.00  0.00    +0.000 A 
ATOM     17  C   UNL     1       2.859   4.951  17.943  0.00  0.00    +0.000 A 
ENDBRANCH  11  12
ENDBRANCH   2  11
TORSDOF 7
ENDMDL
MODEL 7
REMARK VINA RESULT:      -6.4      1.115      1.463
REMARK  Name = 
REMARK  7 active torsions:
REMARK  status: ('A' for Active; 'I' for Inactive)
REMARK    1  A    between atoms: C_2  and  C_3
REMARK    2  A    between atoms: C_3  and  C_4
REMARK    3  A    between atoms: C_5  and  C_6
REMARK    4  A    between atoms: C_6  and  N_7
REMARK    5  A    between atoms: N_7  and  N_8
REMARK    6  A    between atoms: C_9  and  C_10
REMARK    7  A    between atoms: C_10  and  C_11
REMARK                            x       y       z     vdW  Elec       q    Type
REMARK                         _______ _______ _______ _____ _____    ______ ____
ROOT
ATOM      1  N   UNL     1       5.674   5.986  16.469  0.00  0.00    +0.000 NA
ATOM      2  C   UNL     1       4.470   5.591  16.710  0.00  0.00    +0.000 C 
ENDROOT
BRANCH   1   3
ATOM      3  N   UNL     1       6.059   5.958  15.177  0.00  0.00    +0.000 N 
ATOM      4  H   UNL     1       5.819   6.700  14.525  0.00  0.00    +0.000 HD
BRANCH   3   5
ATOM      5  C   UNL     1       6.990   4.943  14.707  0.00  0.00    +0.000 C 
BRANCH   5   7
ATOM      6  C   UNL     1       5.851   3.343  12.678  0.00  0.00    +0.000 C 
ATOM      7  C   UNL     1       6.377   4.082  13.615  0.00  0.00    +0.000 C 
BRANCH   6   8
ATOM      8  C   UNL     1       5.238   2.480  11.587  0.00  0.00    +0.000 C 
BRANCH   8  10
ATOM      9  C   UNL     1       3.181   3.918  10.293  0.00  0.00    +0.000 C 
ATOM     10  C   UNL     1       4.130   3.254  10.890  0.00  0.00    +0.000 C 
ENDBRANCH   8  10
ENDBRANCH   6   8
ENDBRANCH   5   7
ENDBRANCH   3   5
ENDBRANCH   1   3
BRANCH   2  11
ATOM     11  C   UNL     1       3.956   5.553  18.136  0.00  0.00    +0.000 C 
BRANCH  11  12
ATOM     12  C   UNL     1       3.182   4.293  18.445  0.00  0.00    +0.000 A 
ATOM     13  C   UNL     1       1.808   4.353  18.722  0.00  0.00    +0.000 A 
ATOM     14  C   UNL     1       1.104   3.193  19.064  0.00  0.00    +0.000 A 
ATOM     15  C   UNL     1       1.750   1.960  19.077  0.00  0.00    +0.000 A 
ATOM     16  C   UNL     1       3.109   1.887  18.768  0.00  0.00    +0.000 A 
ATOM     17  C   UNL     1       3.823   3.047  18.465  0.00  0.00    +0.000 A 
ENDBRANCH  11  12
ENDBRANCH   2  11
TORSDOF 7
ENDMDL
MODEL 8
REMARK VINA RESULT:      -6.4      1.776      1.852
REMARK  Name = 
REMARK  7 active torsions:
REMARK  status: ('A' for Active; 'I' for Inactive)
REMARK    1  A    between atoms: C_2  and  C_3
REMARK    2  A    between atoms: C_3  and  C_4
REMARK    3  A    between atoms: C_5  and  C_6
REMARK    4  A    between atoms: C_6  and  N_7
REMARK    5  A    between atoms: N_7  and  N_8
REMARK    6  A    between atoms: C_9  and  C_10
REMARK    7  A    between atoms: C_10  and  C_11
REMARK                            x       y       z     vdW  Elec       q    Type
REMARK                         _______ _______ _______ _____ _____    ______ ____
ROOT
ATOM      1  N   UNL     1       6.070   4.642  15.808  0.00  0.00    +0.000 NA
ATOM      2  C   UNL     1       5.721   5.626  16.565  0.00  0.00    +0.000 C 
ENDROOT
BRANCH   1   3
ATOM      3  N   UNL     1       7.295   4.726  15.252  0.00  0.00    +0.000 N 
ATOM      4  H   UNL     1       8.141   4.505  15.771  0.00  0.00    +0.000 HD
BRANCH   3   5
ATOM      5  C   UNL     1       7.443   4.968  13.825  0.00  0.00    +0.000 C 
BRANCH   5   7
ATOM      6  C   UNL     1       5.660   3.383  12.312  0.00  0.00    +0.000 C 
ATOM      7  C   UNL     1       6.483   4.115  13.010  0.00  0.00    +0.000 C 
BRANCH   6   8
ATOM      8  C   UNL     1       4.701   2.530  11.497  0.00  0.00    +0.000 C 
BRANCH   8  10
ATOM      9  C   UNL     1       3.050   4.201   9.932  0.00  0.00    +0.000 C 
ATOM     10  C   UNL     1       3.812   3.430  10.654  0.00  0.00    +0.000 C 
ENDBRANCH   8  10
ENDBRANCH   6   8
ENDBRANCH   5   7
ENDBRANCH   3   5
ENDBRANCH   1   3
BRANCH   2  11
ATOM     11  C   UNL     1       4.348   5.639  17.207  0.00  0.00    +0.000 C 
BRANCH  11  12
ATOM     12  C   UNL     1       3.954   4.294  17.772  0.00  0.00    +0.000 A 
ATOM     13  C   UNL     1       4.574   3.799  18.929  0.00  0.00    +0.000 A 
ATOM     14  C   UNL     1       4.248   2.529  19.418  0.00  0.00    +0.000 A 
ATOM     15  C   UNL     1       3.265   1.769  18.792  0.00  0.00    +0.000 A 
ATOM     16  C   UNL     1       2.617   2.269  17.661  0.00  0.00    +0.000 A 
ATOM     17  C   UNL     1       2.967   3.518  17.148  0.00  0.00    +0.000 A 
ENDBRANCH  11  12
ENDBRANCH   2  11
TORSDOF 7
ENDMDL
MODEL 9
REMARK VINA RESULT:      -6.4      1.010      1.560
REMARK  Name = 
REMARK  7 active torsions:
REMARK  status: ('A' for Active; 'I' for Inactive)
REMARK    1  A    between atoms: C_2  and  C_3
REMARK    2  A    between atoms: C_3  and  C_4
REMARK    3  A    between atoms: C_5  and  C_6
REMARK    4  A    between atoms: C_6  and  N_7
REMARK    5  A    between atoms: N_7  and  N_8
REMARK    6  A    between atoms: C_9  and  C_10
REMARK    7  A    between atoms: C_10  and  C_11
REMARK                            x       y       z     vdW  Elec       q    Type
REMARK                         _______ _______ _______ _____ _____    ______ ____
ROOT
ATOM      1  N   UNL     1       4.909   4.908  16.237  0.00  0.00    +0.000 NA
ATOM      2  C   UNL     1       4.559   3.897  16.956  0.00  0.00    +0.000 C 
ENDROOT
BRANCH   1   3
ATOM      3  N   UNL     1       6.206   5.269  16.313  0.00  0.00    +0.000 N 
ATOM      4  H   UNL     1       6.598   5.708  17.142  0.00  0.00    +0.000 HD
BRANCH   3   5
ATOM      5  C   UNL     1       7.142   4.878  15.269  0.00  0.00    +0.000 C 
BRANCH   5   7
ATOM      6  C   UNL     1       5.810   3.782  13.033  0.00  0.00    +0.000 C 
ATOM      7  C   UNL     1       6.425   4.288  14.066  0.00  0.00    +0.000 C 
BRANCH   6   8
ATOM      8  C   UNL     1       5.093   3.193  11.829  0.00  0.00    +0.000 C 
BRANCH   8  10
ATOM      9  C   UNL     1       6.340   0.772  11.081  0.00  0.00    +0.000 C 
ATOM     10  C   UNL     1       5.764   1.889  11.426  0.00  0.00    +0.000 C 
ENDBRANCH   8  10
ENDBRANCH   6   8
ENDBRANCH   5   7
ENDBRANCH   3   5
ENDBRANCH   1   3
BRANCH   2  11
ATOM     11  C   UNL     1       3.114   3.437  16.965  0.00  0.00    +0.000 C 
BRANCH  11  12
ATOM     12  C   UNL     1       2.429   3.685  18.288  0.00  0.00    +0.000 A 
ATOM     13  C   UNL     1       2.848   4.734  19.121  0.00  0.00    +0.000 A 
ATOM     14  C   UNL     1       2.251   4.927  20.371  0.00  0.00    +0.000 A 
ATOM     15  C   UNL     1       1.197   4.113  20.776  0.00  0.00    +0.000 A 
ATOM     16  C   UNL     1       0.750   3.090  19.939  0.00  0.00    +0.000 A 
ATOM     17  C   UNL     1       1.369   2.870  18.708  0.00  0.00    +0.000 A 
ENDBRANCH  11  12
ENDBRANCH   2  11
TORSDOF 7
ENDMDL
