MODEL 1
REMARK VINA RESULT:      -8.6      0.000      0.000
REMARK  Name = 
REMARK  6 active torsions:
REMARK  status: ('A' for Active; 'I' for Inactive)
REMARK    1  A    between atoms: C_1  and  C_2
REMARK    2  A    between atoms: C_2  and  S_3
REMARK    3  A    between atoms: S_3  and  N_6
REMARK    4  A    between atoms: C_9  and  O_10
REMARK    5  A    between atoms: O_10  and  C_11
REMARK    6  A    between atoms: C_14  and  N_15
REMARK                            x       y       z     vdW  Elec       q    Type
REMARK                         _______ _______ _______ _____ _____    ______ ____
ROOT
ATOM      1  C   UNL     1       2.247   7.716  18.866  0.00  0.00    +0.000 A 
ATOM      2  C   UNL     1       1.793   8.803  18.125  0.00  0.00    +0.000 A 
ATOM      3  C   UNL     1       1.027   9.814  18.729  0.00  0.00    +0.000 A 
ATOM      4  C   UNL     1       0.702   9.739  20.083  0.00  0.00    +0.000 A 
ATOM      5  C   UNL     1       1.157   8.642  20.823  0.00  0.00    +0.000 A 
ATOM      6  C   UNL     1       1.902   7.625  20.213  0.00  0.00    +0.000 A 
ENDROOT
BRANCH   4   7
ATOM      7  N   UNL     1      -0.056  10.714  20.766  0.00  0.00    +0.000 N 
ATOM      8  C   UNL     1       0.403  11.929  21.235  0.00  0.00    +0.000 C 
ATOM      9  O   UNL     1       1.526  12.381  21.036  0.00  0.00    +0.000 OA
ATOM     10  N   UNL     1      -0.534  12.650  21.943  0.00  0.00    +0.000 N 
ATOM     11  C   UNL     1      -0.208  14.003  22.407  0.00  0.00    +0.000 C 
ATOM     12  C   UNL     1      -1.387  14.376  23.247  0.00  0.00    +0.000 A 
ATOM     13  C   UNL     1      -1.664  15.560  23.900  0.00  0.00    +0.000 A 
ATOM     14  C   UNL     1      -2.844  15.600  24.631  0.00  0.00    +0.000 A 
ATOM     15  N   UNL     1      -3.720  14.564  24.738  0.00  0.00    +0.000 NA
ATOM     16  C   UNL     1      -3.413  13.422  24.084  0.00  0.00    +0.000 A 
ATOM     17  C   UNL     1      -2.269  13.298  23.335  0.00  0.00    +0.000 A 
ATOM     18  C   UNL     1      -1.763  12.139  22.553  0.00  0.00    +0.000 C 
ATOM     19  H   UNL     1      -1.055  10.640  20.672  0.00  0.00    +0.000 HD
ENDBRANCH   4   7
BRANCH   1  20
ATOM     20  O   UNL     1       3.031   6.815  18.191  0.00  0.00    +0.000 OA
BRANCH  20  24
ATOM     21  N   UNL     1       5.718   4.626  17.515  0.00  0.00    +0.000 NA
ATOM     22  C   UNL     1       5.691   5.634  18.623  0.00  0.00    +0.000 C 
ATOM     23  C   UNL     1       4.510   5.369  19.541  0.00  0.00    +0.000 C 
ATOM     24  C   UNL     1       3.198   5.507  18.764  0.00  0.00    +0.000 C 
ATOM     25  C   UNL     1       3.224   4.477  17.630  0.00  0.00    +0.000 C 
ATOM     26  C   UNL     1       4.446   4.646  16.727  0.00  0.00    +0.000 C 
BRANCH  21  27
ATOM     27  S   UNL     1       7.147   4.822  16.574  0.00  0.00    +0.000 S 
ATOM     28  O   UNL     1       8.209   4.114  17.260  0.00  0.00    +0.000 OA
ATOM     29  O   UNL     1       7.268   6.230  16.261  0.00  0.00    +0.000 OA
BRANCH  27  31
ATOM     30  C   UNL     1       6.827   4.852  13.868  0.00  0.00    +0.000 C 
ATOM     31  C   UNL     1       6.764   3.927  15.071  0.00  0.00    +0.000 C 
ENDBRANCH  27  31
ENDBRANCH  21  27
ENDBRANCH  20  24
ENDBRANCH   1  20
TORSDOF 5
ENDMDL
MODEL 2
REMARK VINA RESULT:      -8.3      1.064      1.384
REMARK  Name = 
REMARK  6 active torsions:
REMARK  status: ('A' for Active; 'I' for Inactive)
REMARK    1  A    between atoms: C_1  and  C_2
REMARK    2  A    between atoms: C_2  and  S_3
REMARK    3  A    between atoms: S_3  and  N_6
REMARK    4  A    between atoms: C_9  and  O_10
REMARK    5  A    between atoms: O_10  and  C_11
REMARK    6  A    between atoms: C_14  and  N_15
REMARK                            x       y       z     vdW  Elec       q    Type
REMARK                         _______ _______ _______ _____ _____    ______ ____
ROOT
ATOM      1  C   UNL     1       2.126   7.874  18.790  0.00  0.00    +0.000 A 
ATOM      2  C   UNL     1       1.596   8.893  18.003  0.00  0.00    +0.000 A 
ATOM      3  C   UNL     1       0.785   9.889  18.570  0.00  0.00    +0.000 A 
ATOM      4  C   UNL     1       0.490   9.869  19.933  0.00  0.00    +0.000 A 
ATOM      5  C   UNL     1       1.022   8.841  20.719  0.00  0.00    +0.000 A 
ATOM      6  C   UNL     1       1.813   7.836  20.147  0.00  0.00    +0.000 A 
ENDROOT
BRANCH   4   7
ATOM      7  N   UNL     1      -0.309  10.835  20.581  0.00  0.00    +0.000 N 
ATOM      8  C   UNL     1       0.141  11.937  21.280  0.00  0.00    +0.000 C 
ATOM      9  O   UNL     1       1.314  12.291  21.356  0.00  0.00    +0.000 OA
ATOM     10  N   UNL     1      -0.858  12.668  21.885  0.00  0.00    +0.000 N 
ATOM     11  C   UNL     1      -0.526  13.921  22.572  0.00  0.00    +0.000 C 
ATOM     12  C   UNL     1      -1.816  14.317  23.216  0.00  0.00    +0.000 A 
ATOM     13  C   UNL     1      -2.123  15.444  23.951  0.00  0.00    +0.000 A 
ATOM     14  C   UNL     1      -3.418  15.523  24.446  0.00  0.00    +0.000 A 
ATOM     15  N   UNL     1      -4.377  14.577  24.251  0.00  0.00    +0.000 NA
ATOM     16  C   UNL     1      -4.037  13.489  23.526  0.00  0.00    +0.000 A 
ATOM     17  C   UNL     1      -2.779  13.332  22.997  0.00  0.00    +0.000 A 
ATOM     18  C   UNL     1      -2.221  12.221  22.182  0.00  0.00    +0.000 C 
ATOM     19  H   UNL     1      -1.272  10.875  20.291  0.00  0.00    +0.000 HD
ENDBRANCH   4   7
BRANCH   1  20
ATOM     20  O   UNL     1       2.948   6.984  18.146  0.00  0.00    +0.000 OA
BRANCH  20  24
ATOM     21  N   UNL     1       5.621   4.690  17.914  0.00  0.00    +0.000 NA
ATOM     22  C   UNL     1       5.329   5.548  19.107  0.00  0.00    +0.000 C 
ATOM     23  C   UNL     1       3.928   5.265  19.623  0.00  0.00    +0.000 C 
ATOM     24  C   UNL     1       2.892   5.605  18.548  0.00  0.00    +0.000 C 
ATOM     25  C   UNL     1       3.191   4.729  17.327  0.00  0.00    +0.000 C 
ATOM     26  C   UNL     1       4.622   4.912  16.824  0.00  0.00    +0.000 C 
BRANCH  21  27
ATOM     27  S   UNL     1       7.263   4.887  17.434  0.00  0.00    +0.000 S 
ATOM     28  O   UNL     1       7.406   4.261  16.136  0.00  0.00    +0.000 OA
ATOM     29  O   UNL     1       8.091   4.484  18.552  0.00  0.00    +0.000 OA
BRANCH  27  31
ATOM     30  C   UNL     1       8.130   7.284  18.396  0.00  0.00    +0.000 C 
ATOM     31  C   UNL     1       7.408   6.658  17.216  0.00  0.00    +0.000 C 
ENDBRANCH  27  31
ENDBRANCH  21  27
ENDBRANCH  20  24
ENDBRANCH   1  20
TORSDOF 5
ENDMDL
MODEL 3
REMARK VINA RESULT:      -8.2      1.055      1.198
REMARK  Name = 
REMARK  6 active torsions:
REMARK  status: ('A' for Active; 'I' for Inactive)
REMARK    1  A    between atoms: C_1  and  C_2
REMARK    2  A    between atoms: C_2  and  S_3
REMARK    3  A    between atoms: S_3  and  N_6
REMARK    4  A    between atoms: C_9  and  O_10
REMARK    5  A    between atoms: O_10  and  C_11
REMARK    6  A    between atoms: C_14  and  N_15
REMARK                            x       y       z     vdW  Elec       q    Type
REMARK                         _______ _______ _______ _____ _____    ______ ____
ROOT
ATOM      1  C   UNL     1       2.230   7.937  18.777  0.00  0.00    +0.000 A 
ATOM      2  C   UNL     1       1.765   8.951  17.945  0.00  0.00    +0.000 A 
ATOM      3  C   UNL     1       0.892   9.936  18.432  0.00  0.00    +0.000 A 
ATOM      4  C   UNL     1       0.469   9.910  19.760  0.00  0.00    +0.000 A 
ATOM      5  C   UNL     1       0.936   8.887  20.593  0.00  0.00    +0.000 A 
ATOM      6  C   UNL     1       1.790   7.893  20.099  0.00  0.00    +0.000 A 
ENDROOT
BRANCH   4   7
ATOM      7  N   UNL     1      -0.400  10.865  20.330  0.00  0.00    +0.000 N 
ATOM      8  C   UNL     1      -0.414  11.279  21.646  0.00  0.00    +0.000 C 
ATOM      9  O   UNL     1       0.402  10.943  22.499  0.00  0.00    +0.000 OA
ATOM     10  N   UNL     1      -1.427  12.163  21.948  0.00  0.00    +0.000 N 
ATOM     11  C   UNL     1      -1.493  12.761  23.286  0.00  0.00    +0.000 C 
ATOM     12  C   UNL     1      -2.785  13.513  23.268  0.00  0.00    +0.000 A 
ATOM     13  C   UNL     1      -3.349  14.318  24.238  0.00  0.00    +0.000 A 
ATOM     14  C   UNL     1      -4.587  14.871  23.936  0.00  0.00    +0.000 A 
ATOM     15  N   UNL     1      -5.258  14.668  22.770  0.00  0.00    +0.000 NA
ATOM     16  C   UNL     1      -4.674  13.874  21.847  0.00  0.00    +0.000 A 
ATOM     17  C   UNL     1      -3.449  13.290  22.061  0.00  0.00    +0.000 A 
ATOM     18  C   UNL     1      -2.652  12.397  21.179  0.00  0.00    +0.000 C 
ATOM     19  H   UNL     1      -0.862  11.480  19.681  0.00  0.00    +0.000 HD
ENDBRANCH   4   7
BRANCH   1  20
ATOM     20  O   UNL     1       3.121   7.058  18.214  0.00  0.00    +0.000 OA
BRANCH  20  24
ATOM     21  N   UNL     1       5.667   4.713  17.520  0.00  0.00    +0.000 NA
ATOM     22  C   UNL     1       5.697   5.703  18.644  0.00  0.00    +0.000 C 
ATOM     23  C   UNL     1       4.494   5.500  19.550  0.00  0.00    +0.000 C 
ATOM     24  C   UNL     1       3.200   5.734  18.768  0.00  0.00    +0.000 C 
ATOM     25  C   UNL     1       3.168   4.722  17.617  0.00  0.00    +0.000 C 
ATOM     26  C   UNL     1       4.405   4.826  16.725  0.00  0.00    +0.000 C 
BRANCH  21  27
ATOM     27  S   UNL     1       7.112   4.831  16.591  0.00  0.00    +0.000 S 
ATOM     28  O   UNL     1       8.140   4.104  17.308  0.00  0.00    +0.000 OA
ATOM     29  O   UNL     1       7.288   6.224  16.242  0.00  0.00    +0.000 OA
BRANCH  27  31
ATOM     30  C   UNL     1       6.843   4.793  13.880  0.00  0.00    +0.000 C 
ATOM     31  C   UNL     1       6.713   3.909  15.108  0.00  0.00    +0.000 C 
ENDBRANCH  27  31
ENDBRANCH  21  27
ENDBRANCH  20  24
ENDBRANCH   1  20
TORSDOF 5
ENDMDL
MODEL 4
REMARK VINA RESULT:      -7.9      1.527      1.962
REMARK  Name = 
REMARK  6 active torsions:
REMARK  status: ('A' for Active; 'I' for Inactive)
REMARK    1  A    between atoms: C_1  and  C_2
REMARK    2  A    between atoms: C_2  and  S_3
REMARK    3  A    between atoms: S_3  and  N_6
REMARK    4  A    between atoms: C_9  and  O_10
REMARK    5  A    between atoms: O_10  and  C_11
REMARK    6  A    between atoms: C_14  and  N_15
REMARK                            x       y       z     vdW  Elec       q    Type
REMARK                         _______ _______ _______ _____ _____    ______ ____
ROOT
ATOM      1  C   UNL     1       2.239   7.544  18.520  0.00  0.00    +0.000 A 
ATOM      2  C   UNL     1       1.789   8.634  17.781  0.00  0.00    +0.000 A 
ATOM      3  C   UNL     1       1.101   9.689  18.403  0.00  0.00    +0.000 A 
ATOM      4  C   UNL     1       0.850   9.656  19.774  0.00  0.00    +0.000 A 
ATOM      5  C   UNL     1       1.301   8.556  20.513  0.00  0.00    +0.000 A 
ATOM      6  C   UNL     1       1.968   7.496  19.886  0.00  0.00    +0.000 A 
ENDROOT
BRANCH   4   7
ATOM      7  N   UNL     1       0.174  10.677  20.476  0.00  0.00    +0.000 N 
ATOM      8  C   UNL     1      -0.567  10.526  21.631  0.00  0.00    +0.000 C 
ATOM      9  O   UNL     1      -0.665   9.485  22.273  0.00  0.00    +0.000 OA
ATOM     10  N   UNL     1      -1.191  11.679  22.055  0.00  0.00    +0.000 N 
ATOM     11  C   UNL     1      -1.924  11.681  23.326  0.00  0.00    +0.000 C 
ATOM     12  C   UNL     1      -2.572  13.029  23.351  0.00  0.00    +0.000 A 
ATOM     13  C   UNL     1      -3.346  13.615  24.332  0.00  0.00    +0.000 A 
ATOM     14  C   UNL     1      -3.833  14.886  24.055  0.00  0.00    +0.000 A 
ATOM     15  N   UNL     1      -3.597  15.567  22.901  0.00  0.00    +0.000 NA
ATOM     16  C   UNL     1      -2.836  14.959  21.965  0.00  0.00    +0.000 A 
ATOM     17  C   UNL     1      -2.311  13.704  22.159  0.00  0.00    +0.000 A 
ATOM     18  C   UNL     1      -1.461  12.879  21.260  0.00  0.00    +0.000 C 
ATOM     19  H   UNL     1       0.469  11.617  20.275  0.00  0.00    +0.000 HD
ENDBRANCH   4   7
BRANCH   1  20
ATOM     20  O   UNL     1       2.946   6.596  17.823  0.00  0.00    +0.000 OA
BRANCH  20  24
ATOM     21  N   UNL     1       5.877   4.675  18.244  0.00  0.00    +0.000 NA
ATOM     22  C   UNL     1       5.293   5.586  19.280  0.00  0.00    +0.000 C 
ATOM     23  C   UNL     1       3.871   5.162  19.607  0.00  0.00    +0.000 C 
ATOM     24  C   UNL     1       2.992   5.263  18.359  0.00  0.00    +0.000 C 
ATOM     25  C   UNL     1       3.588   4.332  17.298  0.00  0.00    +0.000 C 
ATOM     26  C   UNL     1       5.050   4.663  16.998  0.00  0.00    +0.000 C 
BRANCH  21  27
ATOM     27  S   UNL     1       7.540   5.051  17.998  0.00  0.00    +0.000 S 
ATOM     28  O   UNL     1       8.030   4.160  16.967  0.00  0.00    +0.000 OA
ATOM     29  O   UNL     1       8.168   5.102  19.301  0.00  0.00    +0.000 OA
BRANCH  27  31
ATOM     30  C   UNL     1       8.149   7.694  18.260  0.00  0.00    +0.000 C 
ATOM     31  C   UNL     1       7.481   6.707  17.319  0.00  0.00    +0.000 C 
ENDBRANCH  27  31
ENDBRANCH  21  27
ENDBRANCH  20  24
ENDBRANCH   1  20
TORSDOF 5
ENDMDL
MODEL 5
REMARK VINA RESULT:      -7.9      1.546      2.147
REMARK  Name = 
REMARK  6 active torsions:
REMARK  status: ('A' for Active; 'I' for Inactive)
REMARK    1  A    between atoms: C_1  and  C_2
REMARK    2  A    between atoms: C_2  and  S_3
REMARK    3  A    between atoms: S_3  and  N_6
REMARK    4  A    between atoms: C_9  and  O_10
REMARK    5  A    between atoms: O_10  and  C_11
REMARK    6  A    between atoms: C_14  and  N_15
REMARK                            x       y       z     vdW  Elec       q    Type
REMARK                         _______ _______ _______ _____ _____    ______ ____
ROOT
ATOM      1  C   UNL     1       2.287   6.213  19.047  0.00  0.00    +0.000 A 
ATOM      2  C   UNL     1       1.910   6.184  20.387  0.00  0.00    +0.000 A 
ATOM      3  C   UNL     1       1.468   7.349  21.034  0.00  0.00    +0.000 A 
ATOM      4  C   UNL     1       1.407   8.560  20.343  0.00  0.00    +0.000 A 
ATOM      5  C   UNL     1       1.790   8.585  18.998  0.00  0.00    +0.000 A 
ATOM      6  C   UNL     1       2.251   7.425  18.362  0.00  0.00    +0.000 A 
ENDROOT
BRANCH   4   7
ATOM      7  N   UNL     1       0.968   9.773  20.916  0.00  0.00    +0.000 N 
ATOM      8  C   UNL     1      -0.092   9.933  21.786  0.00  0.00    +0.000 C 
ATOM      9  O   UNL     1      -0.752   9.017  22.267  0.00  0.00    +0.000 OA
ATOM     10  N   UNL     1      -0.352  11.243  22.123  0.00  0.00    +0.000 N 
ATOM     11  C   UNL     1      -1.385  11.545  23.119  0.00  0.00    +0.000 C 
ATOM     12  C   UNL     1      -1.474  13.037  23.088  0.00  0.00    +0.000 A 
ATOM     13  C   UNL     1      -2.242  13.890  23.856  0.00  0.00    +0.000 A 
ATOM     14  C   UNL     1      -2.125  15.245  23.576  0.00  0.00    +0.000 A 
ATOM     15  N   UNL     1      -1.317  15.766  22.612  0.00  0.00    +0.000 NA
ATOM     16  C   UNL     1      -0.583  14.899  21.882  0.00  0.00    +0.000 A 
ATOM     17  C   UNL     1      -0.635  13.543  22.095  0.00  0.00    +0.000 A 
ATOM     18  C   UNL     1       0.088  12.442  21.405  0.00  0.00    +0.000 C 
ATOM     19  H   UNL     1       1.631  10.529  20.903  0.00  0.00    +0.000 HD
ENDBRANCH   4   7
BRANCH   1  20
ATOM     20  O   UNL     1       2.651   5.008  18.500  0.00  0.00    +0.000 OA
BRANCH  20  24
ATOM     21  N   UNL     1       5.737   4.522  16.856  0.00  0.00    +0.000 NA
ATOM     22  C   UNL     1       5.404   5.696  17.724  0.00  0.00    +0.000 C 
ATOM     23  C   UNL     1       5.031   5.225  19.120  0.00  0.00    +0.000 C 
ATOM     24  C   UNL     1       3.789   4.333  19.060  0.00  0.00    +0.000 C 
ATOM     25  C   UNL     1       4.129   3.131  18.172  0.00  0.00    +0.000 C 
ATOM     26  C   UNL     1       4.596   3.557  16.781  0.00  0.00    +0.000 C 
BRANCH  21  27
ATOM     27  S   UNL     1       6.321   5.064  15.329  0.00  0.00    +0.000 S 
ATOM     28  O   UNL     1       7.762   4.917  15.347  0.00  0.00    +0.000 OA
ATOM     29  O   UNL     1       5.703   6.345  15.061  0.00  0.00    +0.000 OA
BRANCH  27  31
ATOM     30  C   UNL     1       6.462   3.826  12.905  0.00  0.00    +0.000 C 
ATOM     31  C   UNL     1       5.654   3.852  14.191  0.00  0.00    +0.000 C 
ENDBRANCH  27  31
ENDBRANCH  21  27
ENDBRANCH  20  24
ENDBRANCH   1  20
TORSDOF 5
ENDMDL
MODEL 6
REMARK VINA RESULT:      -7.9      1.526      1.812
REMARK  Name = 
REMARK  6 active torsions:
REMARK  status: ('A' for Active; 'I' for Inactive)
REMARK    1  A    between atoms: C_1  and  C_2
REMARK    2  A    between atoms: C_2  and  S_3
REMARK    3  A    between atoms: S_3  and  N_6
REMARK    4  A    between atoms: C_9  and  O_10
REMARK    5  A    between atoms: O_10  and  C_11
REMARK    6  A    between atoms: C_14  and  N_15
REMARK                            x       y       z     vdW  Elec       q    Type
REMARK                         _______ _______ _______ _____ _____    ______ ____
ROOT
ATOM      1  C   UNL     1       1.792   8.139  19.912  0.00  0.00    +0.000 A 
ATOM      2  C   UNL     1       1.412   9.127  19.008  0.00  0.00    +0.000 A 
ATOM      3  C   UNL     1       0.487  10.118  19.372  0.00  0.00    +0.000 A 
ATOM      4  C   UNL     1      -0.076  10.122  20.648  0.00  0.00    +0.000 A 
ATOM      5  C   UNL     1       0.305   9.126  21.554  0.00  0.00    +0.000 A 
ATOM      6  C   UNL     1       1.213   8.126  21.180  0.00  0.00    +0.000 A 
ENDROOT
BRANCH   4   7
ATOM      7  N   UNL     1      -1.006  11.085  21.096  0.00  0.00    +0.000 N 
ATOM      8  C   UNL     1      -0.714  12.273  21.735  0.00  0.00    +0.000 C 
ATOM      9  O   UNL     1       0.417  12.712  21.921  0.00  0.00    +0.000 OA
ATOM     10  N   UNL     1      -1.823  12.984  22.139  0.00  0.00    +0.000 N 
ATOM     11  C   UNL     1      -1.655  14.313  22.737  0.00  0.00    +0.000 C 
ATOM     12  C   UNL     1      -3.038  14.675  23.175  0.00  0.00    +0.000 A 
ATOM     13  C   UNL     1      -3.501  15.839  23.755  0.00  0.00    +0.000 A 
ATOM     14  C   UNL     1      -4.852  15.873  24.075  0.00  0.00    +0.000 A 
ATOM     15  N   UNL     1      -5.722  14.849  23.856  0.00  0.00    +0.000 NA
ATOM     16  C   UNL     1      -5.229  13.727  23.287  0.00  0.00    +0.000 A 
ATOM     17  C   UNL     1      -3.907  13.611  22.935  0.00  0.00    +0.000 A 
ATOM     18  C   UNL     1      -3.185  12.473  22.307  0.00  0.00    +0.000 C 
ATOM     19  H   UNL     1      -1.924  11.032  20.687  0.00  0.00    +0.000 HD
ENDBRANCH   4   7
BRANCH   1  20
ATOM     20  O   UNL     1       2.742   7.254  19.471  0.00  0.00    +0.000 OA
BRANCH  20  24
ATOM     21  N   UNL     1       4.739   4.716  18.044  0.00  0.00    +0.000 NA
ATOM     22  C   UNL     1       4.757   5.110  19.490  0.00  0.00    +0.000 C 
ATOM     23  C   UNL     1       3.371   4.948  20.092  0.00  0.00    +0.000 C 
ATOM     24  C   UNL     1       2.376   5.867  19.378  0.00  0.00    +0.000 C 
ATOM     25  C   UNL     1       2.358   5.465  17.899  0.00  0.00    +0.000 C 
ATOM     26  C   UNL     1       3.749   5.526  17.269  0.00  0.00    +0.000 C 
BRANCH  21  27
ATOM     27  S   UNL     1       6.339   4.738  17.407  0.00  0.00    +0.000 S 
ATOM     28  O   UNL     1       6.323   3.960  16.186  0.00  0.00    +0.000 OA
ATOM     29  O   UNL     1       7.240   4.407  18.492  0.00  0.00    +0.000 OA
BRANCH  27  31
ATOM     30  C   UNL     1       7.649   7.089  17.834  0.00  0.00    +0.000 C 
ATOM     31  C   UNL     1       6.573   6.458  16.968  0.00  0.00    +0.000 C 
ENDBRANCH  27  31
ENDBRANCH  21  27
ENDBRANCH  20  24
ENDBRANCH   1  20
TORSDOF 5
ENDMDL
MODEL 7
REMARK VINA RESULT:      -7.9      1.245      1.478
REMARK  Name = 
REMARK  6 active torsions:
REMARK  status: ('A' for Active; 'I' for Inactive)
REMARK    1  A    between atoms: C_1  and  C_2
REMARK    2  A    between atoms: C_2  and  S_3
REMARK    3  A    between atoms: S_3  and  N_6
REMARK    4  A    between atoms: C_9  and  O_10
REMARK    5  A    between atoms: O_10  and  C_11
REMARK    6  A    between atoms: C_14  and  N_15
REMARK                            x       y       z     vdW  Elec       q    Type
REMARK                         _______ _______ _______ _____ _____    ______ ____
ROOT
ATOM      1  C   UNL     1       2.214   7.608  18.690  0.00  0.00    +0.000 A 
ATOM      2  C   UNL     1       1.983   8.788  17.988  0.00  0.00    +0.000 A 
ATOM      3  C   UNL     1       1.381   9.891  18.614  0.00  0.00    +0.000 A 
ATOM      4  C   UNL     1       0.996   9.818  19.953  0.00  0.00    +0.000 A 
ATOM      5  C   UNL     1       1.227   8.630  20.654  0.00  0.00    +0.000 A 
ATOM      6  C   UNL     1       1.808   7.524  20.020  0.00  0.00    +0.000 A 
ENDROOT
BRANCH   4   7
ATOM      7  N   UNL     1       0.394  10.882  20.659  0.00  0.00    +0.000 N 
ATOM      8  C   UNL     1      -0.819  11.475  20.370  0.00  0.00    +0.000 C 
ATOM      9  O   UNL     1      -1.601  11.092  19.507  0.00  0.00    +0.000 OA
ATOM     10  N   UNL     1      -1.125  12.551  21.174  0.00  0.00    +0.000 N 
ATOM     11  C   UNL     1      -2.431  13.207  21.042  0.00  0.00    +0.000 C 
ATOM     12  C   UNL     1      -2.318  14.393  21.945  0.00  0.00    +0.000 A 
ATOM     13  C   UNL     1      -3.262  15.347  22.267  0.00  0.00    +0.000 A 
ATOM     14  C   UNL     1      -2.850  16.355  23.129  0.00  0.00    +0.000 A 
ATOM     15  N   UNL     1      -1.600  16.453  23.659  0.00  0.00    +0.000 NA
ATOM     16  C   UNL     1      -0.705  15.500  23.319  0.00  0.00    +0.000 A 
ATOM     17  C   UNL     1      -1.030  14.466  22.476  0.00  0.00    +0.000 A 
ATOM     18  C   UNL     1      -0.196  13.335  21.991  0.00  0.00    +0.000 C 
ATOM     19  H   UNL     1       0.740  11.043  21.589  0.00  0.00    +0.000 HD
ENDBRANCH   4   7
BRANCH   1  20
ATOM     20  O   UNL     1       2.855   6.613  17.997  0.00  0.00    +0.000 OA
BRANCH  20  24
ATOM     21  N   UNL     1       5.716   4.598  17.526  0.00  0.00    +0.000 NA
ATOM     22  C   UNL     1       5.597   5.694  18.539  0.00  0.00    +0.000 C 
ATOM     23  C   UNL     1       4.432   5.418  19.475  0.00  0.00    +0.000 C 
ATOM     24  C   UNL     1       3.121   5.379  18.685  0.00  0.00    +0.000 C 
ATOM     25  C   UNL     1       3.241   4.258  17.647  0.00  0.00    +0.000 C 
ATOM     26  C   UNL     1       4.454   4.445  16.736  0.00  0.00    +0.000 C 
BRANCH  21  27
ATOM     27  S   UNL     1       7.134   4.824  16.575  0.00  0.00    +0.000 S 
ATOM     28  O   UNL     1       8.204   4.099  17.227  0.00  0.00    +0.000 OA
ATOM     29  O   UNL     1       7.249   6.241  16.302  0.00  0.00    +0.000 OA
BRANCH  27  31
ATOM     30  C   UNL     1       6.976   4.877  13.855  0.00  0.00    +0.000 C 
ATOM     31  C   UNL     1       6.735   3.972  15.051  0.00  0.00    +0.000 C 
ENDBRANCH  27  31
ENDBRANCH  21  27
ENDBRANCH  20  24
ENDBRANCH   1  20
TORSDOF 5
ENDMDL
MODEL 8
REMARK VINA RESULT:      -7.9      2.607      3.575
REMARK  Name = 
REMARK  6 active torsions:
REMARK  status: ('A' for Active; 'I' for Inactive)
REMARK    1  A    between atoms: C_1  and  C_2
REMARK    2  A    between atoms: C_2  and  S_3
REMARK    3  A    between atoms: S_3  and  N_6
REMARK    4  A    between atoms: C_9  and  O_10
REMARK    5  A    between atoms: O_10  and  C_11
REMARK    6  A    between atoms: C_14  and  N_15
REMARK                            x       y       z     vdW  Elec       q    Type
REMARK                         _______ _______ _______ _____ _____    ______ ____
ROOT
ATOM      1  C   UNL     1       1.737   8.098  19.967  0.00  0.00    +0.000 A 
ATOM      2  C   UNL     1       1.093   8.032  21.200  0.00  0.00    +0.000 A 
ATOM      3  C   UNL     1       0.148   9.001  21.570  0.00  0.00    +0.000 A 
ATOM      4  C   UNL     1      -0.156  10.055  20.709  0.00  0.00    +0.000 A 
ATOM      5  C   UNL     1       0.495  10.121  19.472  0.00  0.00    +0.000 A 
ATOM      6  C   UNL     1       1.454   9.164  19.114  0.00  0.00    +0.000 A 
ENDROOT
BRANCH   4   7
ATOM      7  N   UNL     1      -1.098  11.065  21.001  0.00  0.00    +0.000 N 
ATOM      8  C   UNL     1      -1.243  11.729  22.203  0.00  0.00    +0.000 C 
ATOM      9  O   UNL     1      -0.500  11.601  23.171  0.00  0.00    +0.000 OA
ATOM     10  N   UNL     1      -2.302  12.609  22.236  0.00  0.00    +0.000 N 
ATOM     11  C   UNL     1      -2.506  13.455  23.417  0.00  0.00    +0.000 C 
ATOM     12  C   UNL     1      -3.810  14.132  23.140  0.00  0.00    +0.000 A 
ATOM     13  C   UNL     1      -4.481  15.086  23.878  0.00  0.00    +0.000 A 
ATOM     14  C   UNL     1      -5.699  15.515  23.369  0.00  0.00    +0.000 A 
ATOM     15  N   UNL     1      -6.255  15.059  22.214  0.00  0.00    +0.000 NA
ATOM     16  C   UNL     1      -5.568  14.125  21.520  0.00  0.00    +0.000 A 
ATOM     17  C   UNL     1      -4.353  13.648  21.950  0.00  0.00    +0.000 A 
ATOM     18  C   UNL     1      -3.456  12.635  21.334  0.00  0.00    +0.000 C 
ATOM     19  H   UNL     1      -1.514  11.521  20.206  0.00  0.00    +0.000 HD
ENDBRANCH   4   7
BRANCH   1  20
ATOM     20  O   UNL     1       2.601   7.071  19.684  0.00  0.00    +0.000 OA
BRANCH  20  24
ATOM     21  N   UNL     1       3.484   3.887  18.440  0.00  0.00    +0.000 NA
ATOM     22  C   UNL     1       2.082   4.397  18.572  0.00  0.00    +0.000 C 
ATOM     23  C   UNL     1       1.913   5.675  17.767  0.00  0.00    +0.000 C 
ATOM     24  C   UNL     1       2.848   6.762  18.302  0.00  0.00    +0.000 C 
ATOM     25  C   UNL     1       4.283   6.241  18.169  0.00  0.00    +0.000 C 
ATOM     26  C   UNL     1       4.481   4.908  18.889  0.00  0.00    +0.000 C 
BRANCH  21  27
ATOM     27  S   UNL     1       3.630   2.354  19.212  0.00  0.00    +0.000 S 
ATOM     28  O   UNL     1       4.776   2.428  20.093  0.00  0.00    +0.000 OA
ATOM     29  O   UNL     1       3.545   1.342  18.180  0.00  0.00    +0.000 OA
BRANCH  27  31
ATOM     30  C   UNL     1       2.455   2.724  21.643  0.00  0.00    +0.000 C 
ATOM     31  C   UNL     1       2.155   2.273  20.224  0.00  0.00    +0.000 C 
ENDBRANCH  27  31
ENDBRANCH  21  27
ENDBRANCH  20  24
ENDBRANCH   1  20
TORSDOF 5
ENDMDL
MODEL 9
REMARK VINA RESULT:      -7.8      1.101      1.544
REMARK  Name = 
REMARK  6 active torsions:
REMARK  status: ('A' for Active; 'I' for Inactive)
REMARK    1  A    between atoms: C_1  and  C_2
REMARK    2  A    between atoms: C_2  and  S_3
REMARK    3  A    between atoms: S_3  and  N_6
REMARK    4  A    between atoms: C_9  and  O_10
REMARK    5  A    between atoms: O_10  and  C_11
REMARK    6  A    between atoms: C_14  and  N_15
REMARK                            x       y       z     vdW  Elec       q    Type
REMARK                         _______ _______ _______ _____ _____    ______ ____
ROOT
ATOM      1  C   UNL     1       2.226   7.746  18.779  0.00  0.00    +0.000 A 
ATOM      2  C   UNL     1       1.906   7.449  20.101  0.00  0.00    +0.000 A 
ATOM      3  C   UNL     1       1.185   8.361  20.888  0.00  0.00    +0.000 A 
ATOM      4  C   UNL     1       0.783   9.587  20.357  0.00  0.00    +0.000 A 
ATOM      5  C   UNL     1       1.109   9.883  19.029  0.00  0.00    +0.000 A 
ATOM      6  C   UNL     1       1.848   8.980  18.254  0.00  0.00    +0.000 A 
ENDROOT
BRANCH   4   7
ATOM      7  N   UNL     1       0.050  10.555  21.077  0.00  0.00    +0.000 N 
ATOM      8  C   UNL     1      -1.015  11.295  20.605  0.00  0.00    +0.000 C 
ATOM      9  O   UNL     1      -1.545  11.145  19.508  0.00  0.00    +0.000 OA
ATOM     10  N   UNL     1      -1.490  12.232  21.497  0.00  0.00    +0.000 N 
ATOM     11  C   UNL     1      -2.686  13.013  21.160  0.00  0.00    +0.000 C 
ATOM     12  C   UNL     1      -2.781  14.002  22.278  0.00  0.00    +0.000 A 
ATOM     13  C   UNL     1      -3.741  14.962  22.524  0.00  0.00    +0.000 A 
ATOM     14  C   UNL     1      -3.545  15.757  23.645  0.00  0.00    +0.000 A 
ATOM     15  N   UNL     1      -2.485  15.647  24.492  0.00  0.00    +0.000 NA
ATOM     16  C   UNL     1      -1.566  14.696  24.216  0.00  0.00    +0.000 A 
ATOM     17  C   UNL     1      -1.686  13.863  23.131  0.00  0.00    +0.000 A 
ATOM     18  C   UNL     1      -0.792  12.769  22.666  0.00  0.00    +0.000 C 
ATOM     19  H   UNL     1       0.134  10.514  22.078  0.00  0.00    +0.000 HD
ENDBRANCH   4   7
BRANCH   1  20
ATOM     20  O   UNL     1       2.885   6.763  18.086  0.00  0.00    +0.000 OA
BRANCH  20  24
ATOM     21  N   UNL     1       5.598   4.618  17.375  0.00  0.00    +0.000 NA
ATOM     22  C   UNL     1       5.628   5.737  18.371  0.00  0.00    +0.000 C 
ATOM     23  C   UNL     1       4.553   5.528  19.424  0.00  0.00    +0.000 C 
ATOM     24  C   UNL     1       3.168   5.531  18.771  0.00  0.00    +0.000 C 
ATOM     25  C   UNL     1       3.137   4.388  17.751  0.00  0.00    +0.000 C 
ATOM     26  C   UNL     1       4.258   4.506  16.720  0.00  0.00    +0.000 C 
BRANCH  21  27
ATOM     27  S   UNL     1       6.921   4.766  16.282  0.00  0.00    +0.000 S 
ATOM     28  O   UNL     1       8.067   4.145  16.913  0.00  0.00    +0.000 OA
ATOM     29  O   UNL     1       6.966   6.145  15.844  0.00  0.00    +0.000 OA
BRANCH  27  31
ATOM     30  C   UNL     1       6.754   4.413  13.585  0.00  0.00    +0.000 C 
ATOM     31  C   UNL     1       6.421   3.738  14.904  0.00  0.00    +0.000 C 
ENDBRANCH  27  31
ENDBRANCH  21  27
ENDBRANCH  20  24
ENDBRANCH   1  20
TORSDOF 5
ENDMDL
