MODEL 1
REMARK VINA RESULT:      -7.4      0.000      0.000
REMARK  Name = 
REMARK  5 active torsions:
REMARK  status: ('A' for Active; 'I' for Inactive)
REMARK    1  A    between atoms: C_1  and  C_2
REMARK    2  A    between atoms: C_4  and  C_5
REMARK    3  A    between atoms: C_5  and  N_6
REMARK    4  A    between atoms: C_11  and  C_13
REMARK    5  A    between atoms: C_13  and  C_14
REMARK                            x       y       z     vdW  Elec       q    Type
REMARK                         _______ _______ _______ _____ _____    ______ ____
ROOT
ATOM      1  N   UNL     1       6.659   5.220  15.436  0.00  0.00    +0.000 N 
ATOM      2  C   UNL     1       7.196   4.379  16.483  0.00  0.00    +0.000 C 
ATOM      3  C   UNL     1       6.064   4.336  17.487  0.00  0.00    +0.000 C 
ATOM      4  C   UNL     1       4.921   3.391  17.104  0.00  0.00    +0.000 C 
ATOM      5  N   UNL     1       3.729   4.074  17.582  0.00  0.00    +0.000 N 
ATOM      6  C   UNL     1       2.544   3.401  17.756  0.00  0.00    +0.000 C 
ATOM      7  O   UNL     1       2.425   2.206  17.485  0.00  0.00    +0.000 OA
ATOM      8  C   UNL     1       3.962   5.508  17.723  0.00  0.00    +0.000 C 
ATOM      9  C   UNL     1       5.416   5.717  17.354  0.00  0.00    +0.000 C 
ATOM     10  C   UNL     1       5.636   6.042  15.888  0.00  0.00    +0.000 C 
ATOM     11  O   UNL     1       5.043   6.891  15.250  0.00  0.00    +0.000 OA
ENDROOT
BRANCH   1  12
ATOM     12  C   UNL     1       7.234   5.280  14.104  0.00  0.00    +0.000 C 
BRANCH  12  16
ATOM     13  C   UNL     1       6.992   1.579  10.813  0.00  0.00    +0.000 C 
ATOM     14  C   UNL     1       6.510   2.634  11.744  0.00  0.00    +0.000 A 
ATOM     15  N   UNL     1       7.295   3.411  12.460  0.00  0.00    +0.000 NA
ATOM     16  C   UNL     1       6.535   4.305  13.208  0.00  0.00    +0.000 A 
ATOM     17  C   UNL     1       5.168   4.168  13.047  0.00  0.00    +0.000 A 
ATOM     18  S   UNL     1       4.825   2.910  11.937  0.00  0.00    +0.000 S 
ENDBRANCH  12  16
ENDBRANCH   1  12
BRANCH   6  19
ATOM     19  C   UNL     1       1.382   4.164  18.321  0.00  0.00    +0.000 C 
BRANCH  19  20
ATOM     20  C   UNL     1       1.155   3.760  19.749  0.00  0.00    +0.000 C 
ATOM     21  F   UNL     1       2.267   3.362  20.400  0.00  0.00    +0.000 F 
ATOM     22  F   UNL     1       0.640   4.801  20.451  0.00  0.00    +0.000 F 
ATOM     23  F   UNL     1       0.256   2.752  19.827  0.00  0.00    +0.000 F 
ENDBRANCH  19  20
ENDBRANCH   6  19
TORSDOF 4
ENDMDL
MODEL 2
REMARK VINA RESULT:      -7.4      4.613      7.212
REMARK  Name = 
REMARK  5 active torsions:
REMARK  status: ('A' for Active; 'I' for Inactive)
REMARK    1  A    between atoms: C_1  and  C_2
REMARK    2  A    between atoms: C_4  and  C_5
REMARK    3  A    between atoms: C_5  and  N_6
REMARK    4  A    between atoms: C_11  and  C_13
REMARK    5  A    between atoms: C_13  and  C_14
REMARK                            x       y       z     vdW  Elec       q    Type
REMARK                         _______ _______ _______ _____ _____    ______ ____
ROOT
ATOM      1  N   UNL     1       5.865   4.900  17.436  0.00  0.00    +0.000 N 
ATOM      2  C   UNL     1       4.944   5.789  16.761  0.00  0.00    +0.000 C 
ATOM      3  C   UNL     1       5.431   5.746  15.329  0.00  0.00    +0.000 C 
ATOM      4  C   UNL     1       5.018   4.488  14.561  0.00  0.00    +0.000 C 
ATOM      5  N   UNL     1       6.158   4.214  13.701  0.00  0.00    +0.000 N 
ATOM      6  C   UNL     1       6.044   3.390  12.608  0.00  0.00    +0.000 C 
ATOM      7  O   UNL     1       4.989   2.821  12.325  0.00  0.00    +0.000 OA
ATOM      8  C   UNL     1       7.376   4.824  14.226  0.00  0.00    +0.000 C 
ATOM      9  C   UNL     1       6.945   5.570  15.472  0.00  0.00    +0.000 C 
ATOM     10  C   UNL     1       7.060   4.754  16.747  0.00  0.00    +0.000 C 
ATOM     11  O   UNL     1       8.038   4.122  17.101  0.00  0.00    +0.000 OA
ENDROOT
BRANCH   1  12
ATOM     12  C   UNL     1       5.602   4.347  18.752  0.00  0.00    +0.000 C 
BRANCH  12  16
ATOM     13  C   UNL     1       0.944   3.781  20.355  0.00  0.00    +0.000 C 
ATOM     14  C   UNL     1       2.163   3.540  19.537  0.00  0.00    +0.000 A 
ATOM     15  N   UNL     1       3.292   4.203  19.670  0.00  0.00    +0.000 NA
ATOM     16  C   UNL     1       4.241   3.722  18.773  0.00  0.00    +0.000 A 
ATOM     17  C   UNL     1       3.792   2.697  17.960  0.00  0.00    +0.000 A 
ATOM     18  S   UNL     1       2.162   2.321  18.327  0.00  0.00    +0.000 S 
ENDBRANCH  12  16
ENDBRANCH   1  12
BRANCH   6  19
ATOM     19  C   UNL     1       7.251   3.217  11.732  0.00  0.00    +0.000 C 
BRANCH  19  20
ATOM     20  C   UNL     1       7.183   1.890  11.032  0.00  0.00    +0.000 C 
ATOM     21  F   UNL     1       5.932   1.458  10.773  0.00  0.00    +0.000 F 
ATOM     22  F   UNL     1       7.830   1.958   9.841  0.00  0.00    +0.000 F 
ATOM     23  F   UNL     1       7.801   0.931  11.759  0.00  0.00    +0.000 F 
ENDBRANCH  19  20
ENDBRANCH   6  19
TORSDOF 4
ENDMDL
MODEL 3
REMARK VINA RESULT:      -7.2      1.004      1.244
REMARK  Name = 
REMARK  5 active torsions:
REMARK  status: ('A' for Active; 'I' for Inactive)
REMARK    1  A    between atoms: C_1  and  C_2
REMARK    2  A    between atoms: C_4  and  C_5
REMARK    3  A    between atoms: C_5  and  N_6
REMARK    4  A    between atoms: C_11  and  C_13
REMARK    5  A    between atoms: C_13  and  C_14
REMARK                            x       y       z     vdW  Elec       q    Type
REMARK                         _______ _______ _______ _____ _____    ______ ____
ROOT
ATOM      1  N   UNL     1       6.538   5.054  14.950  0.00  0.00    +0.000 N 
ATOM      2  C   UNL     1       7.090   4.133  15.920  0.00  0.00    +0.000 C 
ATOM      3  C   UNL     1       6.043   4.136  17.012  0.00  0.00    +0.000 C 
ATOM      4  C   UNL     1       4.801   3.298  16.695  0.00  0.00    +0.000 C 
ATOM      5  N   UNL     1       3.710   4.049  17.294  0.00  0.00    +0.000 N 
ATOM      6  C   UNL     1       2.493   3.462  17.543  0.00  0.00    +0.000 C 
ATOM      7  O   UNL     1       2.258   2.292  17.243  0.00  0.00    +0.000 OA
ATOM      8  C   UNL     1       4.066   5.455  17.464  0.00  0.00    +0.000 C 
ATOM      9  C   UNL     1       5.498   5.567  16.981  0.00  0.00    +0.000 C 
ATOM     10  C   UNL     1       5.624   5.933  15.514  0.00  0.00    +0.000 C 
ATOM     11  O   UNL     1       5.050   6.850  14.957  0.00  0.00    +0.000 OA
ENDROOT
BRANCH   1  12
ATOM     12  C   UNL     1       7.007   5.124  13.578  0.00  0.00    +0.000 C 
BRANCH  12  16
ATOM     13  C   UNL     1       3.281   3.016  11.074  0.00  0.00    +0.000 C 
ATOM     14  C   UNL     1       4.643   3.175  11.652  0.00  0.00    +0.000 A 
ATOM     15  N   UNL     1       5.037   4.216  12.354  0.00  0.00    +0.000 NA
ATOM     16  C   UNL     1       6.355   4.046  12.767  0.00  0.00    +0.000 A 
ATOM     17  C   UNL     1       6.939   2.865  12.347  0.00  0.00    +0.000 A 
ATOM     18  S   UNL     1       5.823   1.947  11.428  0.00  0.00    +0.000 S 
ENDBRANCH  12  16
ENDBRANCH   1  12
BRANCH   6  19
ATOM     19  C   UNL     1       1.444   4.288  18.229  0.00  0.00    +0.000 C 
BRANCH  19  20
ATOM     20  C   UNL     1       1.196   3.750  19.609  0.00  0.00    +0.000 C 
ATOM     21  F   UNL     1       2.296   3.280  20.231  0.00  0.00    +0.000 F 
ATOM     22  F   UNL     1       0.681   4.724  20.402  0.00  0.00    +0.000 F 
ATOM     23  F   UNL     1       0.287   2.749  19.578  0.00  0.00    +0.000 F 
ENDBRANCH  19  20
ENDBRANCH   6  19
TORSDOF 4
ENDMDL
MODEL 4
REMARK VINA RESULT:      -7.2      4.359      7.296
REMARK  Name = 
REMARK  5 active torsions:
REMARK  status: ('A' for Active; 'I' for Inactive)
REMARK    1  A    between atoms: C_1  and  C_2
REMARK    2  A    between atoms: C_4  and  C_5
REMARK    3  A    between atoms: C_5  and  N_6
REMARK    4  A    between atoms: C_11  and  C_13
REMARK    5  A    between atoms: C_13  and  C_14
REMARK                            x       y       z     vdW  Elec       q    Type
REMARK                         _______ _______ _______ _____ _____    ______ ____
ROOT
ATOM      1  N   UNL     1       2.678   4.514  19.844  0.00  0.00    +0.000 N 
ATOM      2  C   UNL     1       4.029   4.286  20.309  0.00  0.00    +0.000 C 
ATOM      3  C   UNL     1       4.788   4.050  19.022  0.00  0.00    +0.000 C 
ATOM      4  C   UNL     1       5.110   5.326  18.239  0.00  0.00    +0.000 C 
ATOM      5  N   UNL     1       4.993   4.921  16.847  0.00  0.00    +0.000 N 
ATOM      6  C   UNL     1       5.549   5.669  15.838  0.00  0.00    +0.000 C 
ATOM      7  O   UNL     1       6.138   6.727  16.058  0.00  0.00    +0.000 OA
ATOM      8  C   UNL     1       4.150   3.737  16.710  0.00  0.00    +0.000 C 
ATOM      9  C   UNL     1       3.760   3.356  18.124  0.00  0.00    +0.000 C 
ATOM     10  C   UNL     1       2.453   3.972  18.587  0.00  0.00    +0.000 C 
ATOM     11  O   UNL     1       1.401   3.955  17.974  0.00  0.00    +0.000 OA
ENDROOT
BRANCH   1  12
ATOM     12  C   UNL     1       1.653   5.121  20.673  0.00  0.00    +0.000 C 
BRANCH  12  16
ATOM     13  C   UNL     1       2.288   9.202  17.929  0.00  0.00    +0.000 C 
ATOM     14  C   UNL     1       1.882   8.368  19.093  0.00  0.00    +0.000 A 
ATOM     15  N   UNL     1       2.037   7.063  19.162  0.00  0.00    +0.000 NA
ATOM     16  C   UNL     1       1.577   6.589  20.388  0.00  0.00    +0.000 A 
ATOM     17  C   UNL     1       1.065   7.566  21.223  0.00  0.00    +0.000 A 
ATOM     18  S   UNL     1       1.166   9.101  20.471  0.00  0.00    +0.000 S 
ENDBRANCH  12  16
ENDBRANCH   1  12
BRANCH   6  19
ATOM     19  C   UNL     1       5.444   5.143  14.436  0.00  0.00    +0.000 C 
BRANCH  19  20
ATOM     20  C   UNL     1       6.720   4.448  14.058  0.00  0.00    +0.000 C 
ATOM     21  F   UNL     1       7.678   5.264  13.574  0.00  0.00    +0.000 F 
ATOM     22  F   UNL     1       7.247   3.821  15.140  0.00  0.00    +0.000 F 
ATOM     23  F   UNL     1       6.491   3.494  13.126  0.00  0.00    +0.000 F 
ENDBRANCH  19  20
ENDBRANCH   6  19
TORSDOF 4
ENDMDL
MODEL 5
REMARK VINA RESULT:      -7.1      4.440      7.692
REMARK  Name = 
REMARK  5 active torsions:
REMARK  status: ('A' for Active; 'I' for Inactive)
REMARK    1  A    between atoms: C_1  and  C_2
REMARK    2  A    between atoms: C_4  and  C_5
REMARK    3  A    between atoms: C_5  and  N_6
REMARK    4  A    between atoms: C_11  and  C_13
REMARK    5  A    between atoms: C_13  and  C_14
REMARK                            x       y       z     vdW  Elec       q    Type
REMARK                         _______ _______ _______ _____ _____    ______ ____
ROOT
ATOM      1  N   UNL     1       2.574   4.325  19.709  0.00  0.00    +0.000 N 
ATOM      2  C   UNL     1       3.895   4.004  20.204  0.00  0.00    +0.000 C 
ATOM      3  C   UNL     1       4.704   3.877  18.932  0.00  0.00    +0.000 C 
ATOM      4  C   UNL     1       5.099   5.215  18.302  0.00  0.00    +0.000 C 
ATOM      5  N   UNL     1       5.034   4.961  16.871  0.00  0.00    +0.000 N 
ATOM      6  C   UNL     1       5.657   5.791  15.971  0.00  0.00    +0.000 C 
ATOM      7  O   UNL     1       6.267   6.799  16.325  0.00  0.00    +0.000 OA
ATOM      8  C   UNL     1       4.163   3.828  16.575  0.00  0.00    +0.000 C 
ATOM      9  C   UNL     1       3.698   3.316  17.923  0.00  0.00    +0.000 C 
ATOM     10  C   UNL     1       2.390   3.924  18.393  0.00  0.00    +0.000 C 
ATOM     11  O   UNL     1       1.367   4.008  17.738  0.00  0.00    +0.000 OA
ENDROOT
BRANCH   1  12
ATOM     12  C   UNL     1       1.531   4.878  20.553  0.00  0.00    +0.000 C 
BRANCH  12  16
ATOM     13  C   UNL     1       0.434   9.500  21.973  0.00  0.00    +0.000 C 
ATOM     14  C   UNL     1       0.995   8.409  21.131  0.00  0.00    +0.000 A 
ATOM     15  N   UNL     1       0.907   7.128  21.418  0.00  0.00    +0.000 NA
ATOM     16  C   UNL     1       1.511   6.369  20.420  0.00  0.00    +0.000 A 
ATOM     17  C   UNL     1       2.063   7.112  19.392  0.00  0.00    +0.000 A 
ATOM     18  S   UNL     1       1.816   8.784  19.670  0.00  0.00    +0.000 S 
ENDBRANCH  12  16
ENDBRANCH   1  12
BRANCH   6  19
ATOM     19  C   UNL     1       5.600   5.417  14.518  0.00  0.00    +0.000 C 
BRANCH  19  20
ATOM     20  C   UNL     1       6.831   4.641  14.145  0.00  0.00    +0.000 C 
ATOM     21  F   UNL     1       7.646   5.272  13.275  0.00  0.00    +0.000 F 
ATOM     22  F   UNL     1       7.568   4.376  15.253  0.00  0.00    +0.000 F 
ATOM     23  F   UNL     1       6.501   3.448  13.600  0.00  0.00    +0.000 F 
ENDBRANCH  19  20
ENDBRANCH   6  19
TORSDOF 4
ENDMDL
MODEL 6
REMARK VINA RESULT:      -7.0      3.248      5.263
REMARK  Name = 
REMARK  5 active torsions:
REMARK  status: ('A' for Active; 'I' for Inactive)
REMARK    1  A    between atoms: C_1  and  C_2
REMARK    2  A    between atoms: C_4  and  C_5
REMARK    3  A    between atoms: C_5  and  N_6
REMARK    4  A    between atoms: C_11  and  C_13
REMARK    5  A    between atoms: C_13  and  C_14
REMARK                            x       y       z     vdW  Elec       q    Type
REMARK                         _______ _______ _______ _____ _____    ______ ____
ROOT
ATOM      1  N   UNL     1       3.416   3.340  18.181  0.00  0.00    +0.000 N 
ATOM      2  C   UNL     1       2.252   3.655  17.383  0.00  0.00    +0.000 C 
ATOM      3  C   UNL     1       1.489   4.613  18.271  0.00  0.00    +0.000 C 
ATOM      4  C   UNL     1       2.051   6.037  18.287  0.00  0.00    +0.000 C 
ATOM      5  N   UNL     1       1.843   6.479  19.657  0.00  0.00    +0.000 N 
ATOM      6  C   UNL     1       1.879   7.812  19.989  0.00  0.00    +0.000 C 
ATOM      7  O   UNL     1       2.122   8.686  19.158  0.00  0.00    +0.000 OA
ATOM      8  C   UNL     1       1.714   5.343  20.565  0.00  0.00    +0.000 C 
ATOM      9  C   UNL     1       1.799   4.114  19.684  0.00  0.00    +0.000 C 
ATOM     10  C   UNL     1       3.205   3.562  19.535  0.00  0.00    +0.000 C 
ATOM     11  O   UNL     1       3.980   3.330  20.445  0.00  0.00    +0.000 OA
ENDROOT
BRANCH   1  12
ATOM     12  C   UNL     1       4.611   2.731  17.625  0.00  0.00    +0.000 C 
BRANCH  12  16
ATOM     13  C   UNL     1       7.330   6.874  17.455  0.00  0.00    +0.000 C 
ATOM     14  C   UNL     1       6.663   5.638  16.966  0.00  0.00    +0.000 A 
ATOM     15  N   UNL     1       5.952   4.827  17.720  0.00  0.00    +0.000 NA
ATOM     16  C   UNL     1       5.446   3.779  16.957  0.00  0.00    +0.000 A 
ATOM     17  C   UNL     1       5.805   3.819  15.621  0.00  0.00    +0.000 A 
ATOM     18  S   UNL     1       6.783   5.190  15.312  0.00  0.00    +0.000 S 
ENDBRANCH  12  16
ENDBRANCH   1  12
BRANCH   6  19
ATOM     19  C   UNL     1       1.583   8.187  21.412  0.00  0.00    +0.000 C 
BRANCH  19  20
ATOM     20  C   UNL     1       0.159   8.650  21.529  0.00  0.00    +0.000 C 
ATOM     21  F   UNL     1      -0.187   9.616  20.654  0.00  0.00    +0.000 F 
ATOM     22  F   UNL     1      -0.687   7.610  21.324  0.00  0.00    +0.000 F 
ATOM     23  F   UNL     1      -0.093   9.120  22.773  0.00  0.00    +0.000 F 
ENDBRANCH  19  20
ENDBRANCH   6  19
TORSDOF 4
ENDMDL
MODEL 7
REMARK VINA RESULT:      -6.9      4.078      7.073
REMARK  Name = 
REMARK  5 active torsions:
REMARK  status: ('A' for Active; 'I' for Inactive)
REMARK    1  A    between atoms: C_1  and  C_2
REMARK    2  A    between atoms: C_4  and  C_5
REMARK    3  A    between atoms: C_5  and  N_6
REMARK    4  A    between atoms: C_11  and  C_13
REMARK    5  A    between atoms: C_13  and  C_14
REMARK                            x       y       z     vdW  Elec       q    Type
REMARK                         _______ _______ _______ _____ _____    ______ ____
ROOT
ATOM      1  N   UNL     1       2.186   3.704  20.008  0.00  0.00    +0.000 N 
ATOM      2  C   UNL     1       3.318   3.199  20.754  0.00  0.00    +0.000 C 
ATOM      3  C   UNL     1       4.276   2.782  19.660  0.00  0.00    +0.000 C 
ATOM      4  C   UNL     1       5.030   3.944  19.008  0.00  0.00    +0.000 C 
ATOM      5  N   UNL     1       5.143   3.548  17.613  0.00  0.00    +0.000 N 
ATOM      6  C   UNL     1       6.057   4.141  16.776  0.00  0.00    +0.000 C 
ATOM      7  O   UNL     1       6.795   5.051  17.153  0.00  0.00    +0.000 OA
ATOM      8  C   UNL     1       4.119   2.571  17.256  0.00  0.00    +0.000 C 
ATOM      9  C   UNL     1       3.351   2.309  18.536  0.00  0.00    +0.000 C 
ATOM     10  C   UNL     1       2.136   3.200  18.716  0.00  0.00    +0.000 C 
ATOM     11  O   UNL     1       1.269   3.399  17.885  0.00  0.00    +0.000 OA
ENDROOT
BRANCH   1  12
ATOM     12  C   UNL     1       1.156   4.532  20.607  0.00  0.00    +0.000 C 
BRANCH  12  16
ATOM     13  C   UNL     1       2.841   8.325  17.894  0.00  0.00    +0.000 C 
ATOM     14  C   UNL     1       2.203   7.620  19.039  0.00  0.00    +0.000 A 
ATOM     15  N   UNL     1       2.045   6.316  19.115  0.00  0.00    +0.000 NA
ATOM     16  C   UNL     1       1.437   5.974  20.319  0.00  0.00    +0.000 A 
ATOM     17  C   UNL     1       1.135   7.052  21.133  0.00  0.00    +0.000 A 
ATOM     18  S   UNL     1       1.623   8.514  20.387  0.00  0.00    +0.000 S 
ENDBRANCH  12  16
ENDBRANCH   1  12
BRANCH   6  19
ATOM     19  C   UNL     1       6.157   3.624  15.370  0.00  0.00    +0.000 C 
BRANCH  19  20
ATOM     20  C   UNL     1       5.778   4.709  14.403  0.00  0.00    +0.000 C 
ATOM     21  F   UNL     1       5.078   5.723  14.949  0.00  0.00    +0.000 F 
ATOM     22  F   UNL     1       6.893   5.251  13.851  0.00  0.00    +0.000 F 
ATOM     23  F   UNL     1       5.041   4.209  13.385  0.00  0.00    +0.000 F 
ENDBRANCH  19  20
ENDBRANCH   6  19
TORSDOF 4
ENDMDL
MODEL 8
REMARK VINA RESULT:      -6.9      1.707      2.010
REMARK  Name = 
REMARK  5 active torsions:
REMARK  status: ('A' for Active; 'I' for Inactive)
REMARK    1  A    between atoms: C_1  and  C_2
REMARK    2  A    between atoms: C_4  and  C_5
REMARK    3  A    between atoms: C_5  and  N_6
REMARK    4  A    between atoms: C_11  and  C_13
REMARK    5  A    between atoms: C_13  and  C_14
REMARK                            x       y       z     vdW  Elec       q    Type
REMARK                         _______ _______ _______ _____ _____    ______ ____
ROOT
ATOM      1  N   UNL     1       6.238   5.908  17.318  0.00  0.00    +0.000 N 
ATOM      2  C   UNL     1       7.028   5.054  18.178  0.00  0.00    +0.000 C 
ATOM      3  C   UNL     1       6.002   4.530  19.158  0.00  0.00    +0.000 C 
ATOM      4  C   UNL     1       5.118   3.409  18.604  0.00  0.00    +0.000 C 
ATOM      5  N   UNL     1       3.820   3.655  19.211  0.00  0.00    +0.000 N 
ATOM      6  C   UNL     1       2.857   2.676  19.255  0.00  0.00    +0.000 C 
ATOM      7  O   UNL     1       3.031   1.565  18.755  0.00  0.00    +0.000 OA
ATOM      8  C   UNL     1       3.686   5.047  19.629  0.00  0.00    +0.000 C 
ATOM      9  C   UNL     1       5.017   5.694  19.302  0.00  0.00    +0.000 C 
ATOM     10  C   UNL     1       5.066   6.334  17.927  0.00  0.00    +0.000 C 
ATOM     11  O   UNL     1       4.241   7.104  17.470  0.00  0.00    +0.000 OA
ENDROOT
BRANCH   1  12
ATOM     12  C   UNL     1       6.704   6.365  16.021  0.00  0.00    +0.000 C 
BRANCH  12  16
ATOM     13  C   UNL     1       7.338   3.900  11.766  0.00  0.00    +0.000 C 
ATOM     14  C   UNL     1       6.714   4.285  13.060  0.00  0.00    +0.000 A 
ATOM     15  N   UNL     1       7.176   5.223  13.859  0.00  0.00    +0.000 NA
ATOM     16  C   UNL     1       6.353   5.354  14.974  0.00  0.00    +0.000 A 
ATOM     17  C   UNL     1       5.276   4.486  14.994  0.00  0.00    +0.000 A 
ATOM     18  S   UNL     1       5.286   3.496  13.597  0.00  0.00    +0.000 S 
ENDBRANCH  12  16
ENDBRANCH   1  12
BRANCH   6  19
ATOM     19  C   UNL     1       1.571   2.990  19.963  0.00  0.00    +0.000 C 
BRANCH  19  20
ATOM     20  C   UNL     1       1.786   2.947  21.448  0.00  0.00    +0.000 C 
ATOM     21  F   UNL     1       2.868   2.241  21.835  0.00  0.00    +0.000 F 
ATOM     22  F   UNL     1       1.942   4.205  21.933  0.00  0.00    +0.000 F 
ATOM     23  F   UNL     1       0.710   2.417  22.075  0.00  0.00    +0.000 F 
ENDBRANCH  19  20
ENDBRANCH   6  19
TORSDOF 4
ENDMDL
MODEL 9
REMARK VINA RESULT:      -6.9      1.676      2.170
REMARK  Name = 
REMARK  5 active torsions:
REMARK  status: ('A' for Active; 'I' for Inactive)
REMARK    1  A    between atoms: C_1  and  C_2
REMARK    2  A    between atoms: C_4  and  C_5
REMARK    3  A    between atoms: C_5  and  N_6
REMARK    4  A    between atoms: C_11  and  C_13
REMARK    5  A    between atoms: C_13  and  C_14
REMARK                            x       y       z     vdW  Elec       q    Type
REMARK                         _______ _______ _______ _____ _____    ______ ____
ROOT
ATOM      1  N   UNL     1       5.236   5.151  16.316  0.00  0.00    +0.000 N 
ATOM      2  C   UNL     1       5.545   3.742  16.426  0.00  0.00    +0.000 C 
ATOM      3  C   UNL     1       4.801   3.336  17.679  0.00  0.00    +0.000 C 
ATOM      4  C   UNL     1       3.295   3.146  17.483  0.00  0.00    +0.000 C 
ATOM      5  N   UNL     1       2.717   3.622  18.729  0.00  0.00    +0.000 N 
ATOM      6  C   UNL     1       1.434   3.290  19.093  0.00  0.00    +0.000 C 
ATOM      7  O   UNL     1       0.706   2.608  18.372  0.00  0.00    +0.000 OA
ATOM      8  C   UNL     1       3.623   4.537  19.417  0.00  0.00    +0.000 C 
ATOM      9  C   UNL     1       4.869   4.588  18.557  0.00  0.00    +0.000 C 
ATOM     10  C   UNL     1       4.861   5.707  17.531  0.00  0.00    +0.000 C 
ATOM     11  O   UNL     1       4.605   6.876  17.754  0.00  0.00    +0.000 OA
ENDROOT
BRANCH   1  12
ATOM     12  C   UNL     1       5.436   5.907  15.093  0.00  0.00    +0.000 C 
BRANCH  12  16
ATOM     13  C   UNL     1       5.166   2.371  11.627  0.00  0.00    +0.000 C 
ATOM     14  C   UNL     1       5.776   3.424  12.482  0.00  0.00    +0.000 A 
ATOM     15  N   UNL     1       5.121   4.121  13.386  0.00  0.00    +0.000 NA
ATOM     16  C   UNL     1       5.982   5.007  14.028  0.00  0.00    +0.000 A 
ATOM     17  C   UNL     1       7.288   4.964  13.575  0.00  0.00    +0.000 A 
ATOM     18  S   UNL     1       7.447   3.795  12.333  0.00  0.00    +0.000 S 
ENDBRANCH  12  16
ENDBRANCH   1  12
BRANCH   6  19
ATOM     19  C   UNL     1       0.940   3.764  20.429  0.00  0.00    +0.000 C 
BRANCH  19  20
ATOM     20  C   UNL     1       1.554   2.936  21.521  0.00  0.00    +0.000 C 
ATOM     21  F   UNL     1       0.663   2.366  22.357  0.00  0.00    +0.000 F 
ATOM     22  F   UNL     1       2.290   1.930  20.984  0.00  0.00    +0.000 F 
ATOM     23  F   UNL     1       2.397   3.680  22.272  0.00  0.00    +0.000 F 
ENDBRANCH  19  20
ENDBRANCH   6  19
TORSDOF 4
ENDMDL
