MODEL 1
REMARK VINA RESULT:      -7.2      0.000      0.000
REMARK  Name = 
REMARK  10 active torsions:
REMARK  status: ('A' for Active; 'I' for Inactive)
REMARK    1  A    between atoms: C_1  and  N_2
REMARK    2  A    between atoms: C_3  and  C_5
REMARK    3  A    between atoms: C_5  and  C_7
REMARK    4  A    between atoms: C_8  and  C_9
REMARK    5  A    between atoms: C_9  and  C_10
REMARK    6  A    between atoms: C_10  and  C_11
REMARK    7  A    between atoms: C_11  and  C_12
REMARK    8  A    between atoms: C_12  and  O_13
REMARK    9  A    between atoms: O_13  and  C_14
REMARK   10  A    between atoms: C_17  and  C_18
REMARK                            x       y       z     vdW  Elec       q    Type
REMARK                         _______ _______ _______ _____ _____    ______ ____
ROOT
ATOM      1  C   UNL     1       0.764   2.312  18.959  0.00  0.00    +0.000 C 
ENDROOT
BRANCH   1   2
ATOM      2  C   UNL     1       1.218   2.834  20.316  0.00  0.00    +0.000 C 
BRANCH   2   3
ATOM      3  C   UNL     1       0.822   4.295  20.488  0.00  0.00    +0.000 C 
BRANCH   3   4
ATOM      4  C   UNL     1       2.036   5.162  20.799  0.00  0.00    +0.000 C 
BRANCH   4   6
ATOM      5  C   UNL     1       1.960   7.422  19.385  0.00  0.00    +0.000 C 
ATOM      6  C   UNL     1       1.993   6.401  20.016  0.00  0.00    +0.000 C 
BRANCH   5   7
ATOM      7  C   UNL     1       1.948   8.670  18.656  0.00  0.00    +0.000 C 
ATOM      8  O   UNL     1       2.554   8.771  17.593  0.00  0.00    +0.000 OA
BRANCH   7  11
ATOM      9  C   UNL     1       0.093  11.992  18.592  0.00  0.00    +0.000 C 
ATOM     10  N   UNL     1       0.805  10.795  18.239  0.00  0.00    +0.000 N 
ATOM     11  C   UNL     1       1.182   9.880  19.203  0.00  0.00    +0.000 C 
ATOM     12  O   UNL     1       0.949   9.987  20.398  0.00  0.00    +0.000 OA
ATOM     13  H   UNL     1       1.051  10.593  17.274  0.00  0.00    +0.000 HD
ENDBRANCH   7  11
ENDBRANCH   5   7
ENDBRANCH   4   6
ENDBRANCH   3   4
ENDBRANCH   2   3
ENDBRANCH   1   2
BRANCH   1  14
ATOM     14  O   UNL     1       1.924   1.898  18.242  0.00  0.00    +0.000 OA
BRANCH  14  15
ATOM     15  C   UNL     1       2.968   2.779  18.273  0.00  0.00    +0.000 A 
ATOM     16  C   UNL     1       2.866   3.853  17.396  0.00  0.00    +0.000 A 
ATOM     17  C   UNL     1       3.874   4.819  17.345  0.00  0.00    +0.000 A 
ATOM     18  C   UNL     1       4.995   4.760  18.193  0.00  0.00    +0.000 A 
ATOM     19  C   UNL     1       5.063   3.676  19.085  0.00  0.00    +0.000 A 
ATOM     20  C   UNL     1       4.066   2.694  19.123  0.00  0.00    +0.000 A 
BRANCH  18  21
ATOM     21  C   UNL     1       6.053   5.795  18.144  0.00  0.00    +0.000 A 
ATOM     22  C   UNL     1       5.957   6.895  17.270  0.00  0.00    +0.000 A 
ATOM     23  C   UNL     1       6.969   7.856  17.188  0.00  0.00    +0.000 A 
ATOM     24  C   UNL     1       8.094   7.753  17.997  0.00  0.00    +0.000 A 
ATOM     25  C   UNL     1       8.207   6.689  18.888  0.00  0.00    +0.000 A 
ATOM     26  C   UNL     1       7.200   5.721  18.955  0.00  0.00    +0.000 A 
ENDBRANCH  18  21
ENDBRANCH  14  15
ENDBRANCH   1  14
TORSDOF 9
ENDMDL
MODEL 2
REMARK VINA RESULT:      -7.0      3.062      6.911
REMARK  Name = 
REMARK  10 active torsions:
REMARK  status: ('A' for Active; 'I' for Inactive)
REMARK    1  A    between atoms: C_1  and  N_2
REMARK    2  A    between atoms: C_3  and  C_5
REMARK    3  A    between atoms: C_5  and  C_7
REMARK    4  A    between atoms: C_8  and  C_9
REMARK    5  A    between atoms: C_9  and  C_10
REMARK    6  A    between atoms: C_10  and  C_11
REMARK    7  A    between atoms: C_11  and  C_12
REMARK    8  A    between atoms: C_12  and  O_13
REMARK    9  A    between atoms: O_13  and  C_14
REMARK   10  A    between atoms: C_17  and  C_18
REMARK                            x       y       z     vdW  Elec       q    Type
REMARK                         _______ _______ _______ _____ _____    ______ ____
ROOT
ATOM      1  C   UNL     1       1.922   4.748  20.677  0.00  0.00    +0.000 C 
ENDROOT
BRANCH   1   2
ATOM      2  C   UNL     1       2.062   3.438  19.912  0.00  0.00    +0.000 C 
BRANCH   2   3
ATOM      3  C   UNL     1       1.532   3.588  18.492  0.00  0.00    +0.000 C 
BRANCH   3   4
ATOM      4  C   UNL     1       2.394   2.820  17.497  0.00  0.00    +0.000 C 
BRANCH   4   6
ATOM      5  C   UNL     1       4.734   4.049  17.143  0.00  0.00    +0.000 C 
ATOM      6  C   UNL     1       3.678   3.502  17.302  0.00  0.00    +0.000 C 
BRANCH   5   7
ATOM      7  C   UNL     1       6.023   4.670  16.935  0.00  0.00    +0.000 C 
ATOM      8  O   UNL     1       6.639   5.149  17.883  0.00  0.00    +0.000 OA
BRANCH   7  11
ATOM      9  C   UNL     1       6.452   3.891  13.235  0.00  0.00    +0.000 C 
ATOM     10  N   UNL     1       5.993   3.948  14.596  0.00  0.00    +0.000 N 
ATOM     11  C   UNL     1       6.632   4.740  15.530  0.00  0.00    +0.000 C 
ATOM     12  O   UNL     1       7.602   5.447  15.301  0.00  0.00    +0.000 OA
ATOM     13  H   UNL     1       5.191   3.407  14.905  0.00  0.00    +0.000 HD
ENDBRANCH   7  11
ENDBRANCH   5   7
ENDBRANCH   4   6
ENDBRANCH   3   4
ENDBRANCH   2   3
ENDBRANCH   1   2
BRANCH   1  14
ATOM     14  O   UNL     1       2.795   5.700  20.074  0.00  0.00    +0.000 OA
BRANCH  14  15
ATOM     15  C   UNL     1       2.255   6.939  19.881  0.00  0.00    +0.000 A 
ATOM     16  C   UNL     1       2.412   7.465  18.604  0.00  0.00    +0.000 A 
ATOM     17  C   UNL     1       1.896   8.726  18.291  0.00  0.00    +0.000 A 
ATOM     18  C   UNL     1       1.177   9.481  19.235  0.00  0.00    +0.000 A 
ATOM     19  C   UNL     1       1.012   8.918  20.512  0.00  0.00    +0.000 A 
ATOM     20  C   UNL     1       1.548   7.665  20.835  0.00  0.00    +0.000 A 
BRANCH  18  21
ATOM     21  C   UNL     1       0.619  10.810  18.893  0.00  0.00    +0.000 A 
ATOM     22  C   UNL     1      -0.746  10.972  18.587  0.00  0.00    +0.000 A 
ATOM     23  C   UNL     1      -1.274  12.214  18.225  0.00  0.00    +0.000 A 
ATOM     24  C   UNL     1      -0.451  13.333  18.181  0.00  0.00    +0.000 A 
ATOM     25  C   UNL     1       0.898  13.210  18.501  0.00  0.00    +0.000 A 
ATOM     26  C   UNL     1       1.425  11.962  18.847  0.00  0.00    +0.000 A 
ENDBRANCH  18  21
ENDBRANCH  14  15
ENDBRANCH   1  14
TORSDOF 9
ENDMDL
MODEL 3
REMARK VINA RESULT:      -7.0      3.455      7.300
REMARK  Name = 
REMARK  10 active torsions:
REMARK  status: ('A' for Active; 'I' for Inactive)
REMARK    1  A    between atoms: C_1  and  N_2
REMARK    2  A    between atoms: C_3  and  C_5
REMARK    3  A    between atoms: C_5  and  C_7
REMARK    4  A    between atoms: C_8  and  C_9
REMARK    5  A    between atoms: C_9  and  C_10
REMARK    6  A    between atoms: C_10  and  C_11
REMARK    7  A    between atoms: C_11  and  C_12
REMARK    8  A    between atoms: C_12  and  O_13
REMARK    9  A    between atoms: O_13  and  C_14
REMARK   10  A    between atoms: C_17  and  C_18
REMARK                            x       y       z     vdW  Elec       q    Type
REMARK                         _______ _______ _______ _____ _____    ______ ____
ROOT
ATOM      1  C   UNL     1       2.219   4.530  19.745  0.00  0.00    +0.000 C 
ENDROOT
BRANCH   1   2
ATOM      2  C   UNL     1       3.114   3.298  19.784  0.00  0.00    +0.000 C 
BRANCH   2   3
ATOM      3  C   UNL     1       3.064   2.556  18.454  0.00  0.00    +0.000 C 
BRANCH   3   4
ATOM      4  C   UNL     1       2.954   3.527  17.285  0.00  0.00    +0.000 C 
BRANCH   4   6
ATOM      5  C   UNL     1       5.384   4.153  16.382  0.00  0.00    +0.000 C 
ATOM      6  C   UNL     1       4.288   3.876  16.784  0.00  0.00    +0.000 C 
BRANCH   5   7
ATOM      7  C   UNL     1       6.719   4.444  15.908  0.00  0.00    +0.000 C 
ATOM      8  O   UNL     1       7.635   4.615  16.707  0.00  0.00    +0.000 OA
BRANCH   7  11
ATOM      9  C   UNL     1       6.540   3.541  12.216  0.00  0.00    +0.000 C 
ATOM     10  N   UNL     1       6.365   3.590  13.641  0.00  0.00    +0.000 N 
ATOM     11  C   UNL     1       7.002   4.548  14.405  0.00  0.00    +0.000 C 
ATOM     12  O   UNL     1       7.737   5.419  13.964  0.00  0.00    +0.000 OA
ATOM     13  H   UNL     1       5.772   2.919  14.123  0.00  0.00    +0.000 HD
ENDBRANCH   7  11
ENDBRANCH   5   7
ENDBRANCH   4   6
ENDBRANCH   3   4
ENDBRANCH   2   3
ENDBRANCH   1   2
BRANCH   1  14
ATOM     14  O   UNL     1       3.052   5.678  19.889  0.00  0.00    +0.000 OA
BRANCH  14  15
ATOM     15  C   UNL     1       2.438   6.872  19.642  0.00  0.00    +0.000 A 
ATOM     16  C   UNL     1       1.743   7.417  20.716  0.00  0.00    +0.000 A 
ATOM     17  C   UNL     1       1.078   8.640  20.579  0.00  0.00    +0.000 A 
ATOM     18  C   UNL     1       1.119   9.369  19.377  0.00  0.00    +0.000 A 
ATOM     19  C   UNL     1       1.847   8.807  18.313  0.00  0.00    +0.000 A 
ATOM     20  C   UNL     1       2.494   7.572  18.440  0.00  0.00    +0.000 A 
BRANCH  18  21
ATOM     21  C   UNL     1       0.426  10.671  19.242  0.00  0.00    +0.000 A 
ATOM     22  C   UNL     1      -0.662  10.830  18.361  0.00  0.00    +0.000 A 
ATOM     23  C   UNL     1      -1.297  12.064  18.198  0.00  0.00    +0.000 A 
ATOM     24  C   UNL     1      -0.875  13.167  18.930  0.00  0.00    +0.000 A 
ATOM     25  C   UNL     1       0.182  13.035  19.826  0.00  0.00    +0.000 A 
ATOM     26  C   UNL     1       0.826  11.803  19.975  0.00  0.00    +0.000 A 
ENDBRANCH  18  21
ENDBRANCH  14  15
ENDBRANCH   1  14
TORSDOF 9
ENDMDL
MODEL 4
REMARK VINA RESULT:      -6.8      2.752      7.014
REMARK  Name = 
REMARK  10 active torsions:
REMARK  status: ('A' for Active; 'I' for Inactive)
REMARK    1  A    between atoms: C_1  and  N_2
REMARK    2  A    between atoms: C_3  and  C_5
REMARK    3  A    between atoms: C_5  and  C_7
REMARK    4  A    between atoms: C_8  and  C_9
REMARK    5  A    between atoms: C_9  and  C_10
REMARK    6  A    between atoms: C_10  and  C_11
REMARK    7  A    between atoms: C_11  and  C_12
REMARK    8  A    between atoms: C_12  and  O_13
REMARK    9  A    between atoms: O_13  and  C_14
REMARK   10  A    between atoms: C_17  and  C_18
REMARK                            x       y       z     vdW  Elec       q    Type
REMARK                         _______ _______ _______ _____ _____    ______ ____
ROOT
ATOM      1  C   UNL     1       2.321   5.231  20.227  0.00  0.00    +0.000 C 
ENDROOT
BRANCH   1   2
ATOM      2  C   UNL     1       1.439   4.193  19.546  0.00  0.00    +0.000 C 
BRANCH   2   3
ATOM      3  C   UNL     1       1.653   4.215  18.037  0.00  0.00    +0.000 C 
BRANCH   3   4
ATOM      4  C   UNL     1       2.500   3.033  17.583  0.00  0.00    +0.000 C 
BRANCH   4   6
ATOM      5  C   UNL     1       4.838   3.884  16.621  0.00  0.00    +0.000 C 
ATOM      6  C   UNL     1       3.784   3.500  17.047  0.00  0.00    +0.000 C 
BRANCH   5   7
ATOM      7  C   UNL     1       6.128   4.329  16.144  0.00  0.00    +0.000 C 
ATOM      8  O   UNL     1       6.551   3.948  15.057  0.00  0.00    +0.000 OA
BRANCH   7  11
ATOM      9  C   UNL     1       7.851   5.701  19.247  0.00  0.00    +0.000 C 
ATOM     10  N   UNL     1       7.096   4.907  18.317  0.00  0.00    +0.000 N 
ATOM     11  C   UNL     1       6.982   5.279  16.992  0.00  0.00    +0.000 C 
ATOM     12  O   UNL     1       7.498   6.270  16.497  0.00  0.00    +0.000 OA
ATOM     13  H   UNL     1       6.625   4.056  18.611  0.00  0.00    +0.000 HD
ENDBRANCH   7  11
ENDBRANCH   5   7
ENDBRANCH   4   6
ENDBRANCH   3   4
ENDBRANCH   2   3
ENDBRANCH   1   2
BRANCH   1  14
ATOM     14  O   UNL     1       2.882   6.059  19.212  0.00  0.00    +0.000 OA
BRANCH  14  15
ATOM     15  C   UNL     1       2.328   7.303  19.108  0.00  0.00    +0.000 A 
ATOM     16  C   UNL     1       1.711   7.777  20.261  0.00  0.00    +0.000 A 
ATOM     17  C   UNL     1       1.112   9.040  20.272  0.00  0.00    +0.000 A 
ATOM     18  C   UNL     1       1.145   9.880  19.145  0.00  0.00    +0.000 A 
ATOM     19  C   UNL     1       1.793   9.387  18.000  0.00  0.00    +0.000 A 
ATOM     20  C   UNL     1       2.374   8.112  17.977  0.00  0.00    +0.000 A 
BRANCH  18  21
ATOM     21  C   UNL     1       0.522  11.223  19.168  0.00  0.00    +0.000 A 
ATOM     22  C   UNL     1       1.198  12.350  18.661  0.00  0.00    +0.000 A 
ATOM     23  C   UNL     1       0.635  13.628  18.714  0.00  0.00    +0.000 A 
ATOM     24  C   UNL     1      -0.632  13.808  19.258  0.00  0.00    +0.000 A 
ATOM     25  C   UNL     1      -1.335  12.711  19.746  0.00  0.00    +0.000 A 
ATOM     26  C   UNL     1      -0.761  11.436  19.706  0.00  0.00    +0.000 A 
ENDBRANCH  18  21
ENDBRANCH  14  15
ENDBRANCH   1  14
TORSDOF 9
ENDMDL
MODEL 5
REMARK VINA RESULT:      -6.7      2.728      6.669
REMARK  Name = 
REMARK  10 active torsions:
REMARK  status: ('A' for Active; 'I' for Inactive)
REMARK    1  A    between atoms: C_1  and  N_2
REMARK    2  A    between atoms: C_3  and  C_5
REMARK    3  A    between atoms: C_5  and  C_7
REMARK    4  A    between atoms: C_8  and  C_9
REMARK    5  A    between atoms: C_9  and  C_10
REMARK    6  A    between atoms: C_10  and  C_11
REMARK    7  A    between atoms: C_11  and  C_12
REMARK    8  A    between atoms: C_12  and  O_13
REMARK    9  A    between atoms: O_13  and  C_14
REMARK   10  A    between atoms: C_17  and  C_18
REMARK                            x       y       z     vdW  Elec       q    Type
REMARK                         _______ _______ _______ _____ _____    ______ ____
ROOT
ATOM      1  C   UNL     1       2.471   4.596  19.812  0.00  0.00    +0.000 C 
ENDROOT
BRANCH   1   2
ATOM      2  C   UNL     1       1.519   4.240  18.677  0.00  0.00    +0.000 C 
BRANCH   2   3
ATOM      3  C   UNL     1       2.291   4.002  17.385  0.00  0.00    +0.000 C 
BRANCH   3   4
ATOM      4  C   UNL     1       3.482   3.081  17.615  0.00  0.00    +0.000 C 
BRANCH   4   6
ATOM      5  C   UNL     1       5.754   4.364  17.064  0.00  0.00    +0.000 C 
ATOM      6  C   UNL     1       4.735   3.782  17.314  0.00  0.00    +0.000 C 
BRANCH   5   7
ATOM      7  C   UNL     1       6.959   5.106  16.767  0.00  0.00    +0.000 C 
ATOM      8  O   UNL     1       7.626   4.830  15.774  0.00  0.00    +0.000 OA
BRANCH   7  11
ATOM      9  C   UNL     1       7.942   8.635  17.798  0.00  0.00    +0.000 C 
ATOM     10  N   UNL     1       7.510   7.472  17.073  0.00  0.00    +0.000 N 
ATOM     11  C   UNL     1       7.419   6.240  17.691  0.00  0.00    +0.000 C 
ATOM     12  O   UNL     1       7.673   6.027  18.867  0.00  0.00    +0.000 OA
ATOM     13  H   UNL     1       7.266   7.525  16.088  0.00  0.00    +0.000 HD
ENDBRANCH   7  11
ENDBRANCH   5   7
ENDBRANCH   4   6
ENDBRANCH   3   4
ENDBRANCH   2   3
ENDBRANCH   1   2
BRANCH   1  14
ATOM     14  O   UNL     1       3.219   5.741  19.408  0.00  0.00    +0.000 OA
BRANCH  14  15
ATOM     15  C   UNL     1       2.524   6.916  19.412  0.00  0.00    +0.000 A 
ATOM     16  C   UNL     1       2.453   7.569  18.187  0.00  0.00    +0.000 A 
ATOM     17  C   UNL     1       1.763   8.779  18.071  0.00  0.00    +0.000 A 
ATOM     18  C   UNL     1       1.096   9.353  19.168  0.00  0.00    +0.000 A 
ATOM     19  C   UNL     1       1.165   8.663  20.390  0.00  0.00    +0.000 A 
ATOM     20  C   UNL     1       1.874   7.462  20.515  0.00  0.00    +0.000 A 
BRANCH  18  21
ATOM     21  C   UNL     1       0.354  10.629  19.035  0.00  0.00    +0.000 A 
ATOM     22  C   UNL     1      -0.832  10.708  18.281  0.00  0.00    +0.000 A 
ATOM     23  C   UNL     1      -1.518  11.915  18.117  0.00  0.00    +0.000 A 
ATOM     24  C   UNL     1      -1.044  13.072  18.725  0.00  0.00    +0.000 A 
ATOM     25  C   UNL     1       0.114  13.021  19.496  0.00  0.00    +0.000 A 
ATOM     26  C   UNL     1       0.805  11.815  19.644  0.00  0.00    +0.000 A 
ENDBRANCH  18  21
ENDBRANCH  14  15
ENDBRANCH   1  14
TORSDOF 9
ENDMDL
MODEL 6
REMARK VINA RESULT:      -6.7      2.895      3.632
REMARK  Name = 
REMARK  10 active torsions:
REMARK  status: ('A' for Active; 'I' for Inactive)
REMARK    1  A    between atoms: C_1  and  N_2
REMARK    2  A    between atoms: C_3  and  C_5
REMARK    3  A    between atoms: C_5  and  C_7
REMARK    4  A    between atoms: C_8  and  C_9
REMARK    5  A    between atoms: C_9  and  C_10
REMARK    6  A    between atoms: C_10  and  C_11
REMARK    7  A    between atoms: C_11  and  C_12
REMARK    8  A    between atoms: C_12  and  O_13
REMARK    9  A    between atoms: O_13  and  C_14
REMARK   10  A    between atoms: C_17  and  C_18
REMARK                            x       y       z     vdW  Elec       q    Type
REMARK                         _______ _______ _______ _____ _____    ______ ____
ROOT
ATOM      1  C   UNL     1       4.337   2.560  20.102  0.00  0.00    +0.000 C 
ENDROOT
BRANCH   1   2
ATOM      2  C   UNL     1       3.109   2.704  20.992  0.00  0.00    +0.000 C 
BRANCH   2   3
ATOM      3  C   UNL     1       1.833   2.546  20.174  0.00  0.00    +0.000 C 
BRANCH   3   4
ATOM      4  C   UNL     1       0.916   3.751  20.344  0.00  0.00    +0.000 C 
BRANCH   4   6
ATOM      5  C   UNL     1       1.980   5.887  19.153  0.00  0.00    +0.000 C 
ATOM      6  C   UNL     1       1.496   4.930  19.689  0.00  0.00    +0.000 C 
BRANCH   5   7
ATOM      7  C   UNL     1       2.591   7.014  18.483  0.00  0.00    +0.000 C 
ATOM      8  O   UNL     1       3.542   6.841  17.726  0.00  0.00    +0.000 OA
BRANCH   7  11
ATOM      9  C   UNL     1       0.853   9.879  20.285  0.00  0.00    +0.000 C 
ATOM     10  N   UNL     1       1.420   8.609  19.924  0.00  0.00    +0.000 N 
ATOM     11  C   UNL     1       2.061   8.434  18.714  0.00  0.00    +0.000 C 
ATOM     12  O   UNL     1       2.214   9.305  17.871  0.00  0.00    +0.000 OA
ATOM     13  H   UNL     1       1.360   7.808  20.547  0.00  0.00    +0.000 HD
ENDBRANCH   7  11
ENDBRANCH   5   7
ENDBRANCH   4   6
ENDBRANCH   3   4
ENDBRANCH   2   3
ENDBRANCH   1   2
BRANCH   1  14
ATOM     14  O   UNL     1       4.749   3.868  19.714  0.00  0.00    +0.000 OA
BRANCH  14  15
ATOM     15  C   UNL     1       5.114   3.995  18.404  0.00  0.00    +0.000 A 
ATOM     16  C   UNL     1       6.405   4.462  18.188  0.00  0.00    +0.000 A 
ATOM     17  C   UNL     1       6.887   4.628  16.886  0.00  0.00    +0.000 A 
ATOM     18  C   UNL     1       6.106   4.296  15.764  0.00  0.00    +0.000 A 
ATOM     19  C   UNL     1       4.812   3.805  16.010  0.00  0.00    +0.000 A 
ATOM     20  C   UNL     1       4.318   3.660  17.312  0.00  0.00    +0.000 A 
BRANCH  18  21
ATOM     21  C   UNL     1       6.628   4.460  14.388  0.00  0.00    +0.000 A 
ATOM     22  C   UNL     1       7.624   5.411  14.093  0.00  0.00    +0.000 A 
ATOM     23  C   UNL     1       8.094   5.600  12.791  0.00  0.00    +0.000 A 
ATOM     24  C   UNL     1       7.594   4.825  11.751  0.00  0.00    +0.000 A 
ATOM     25  C   UNL     1       6.626   3.861  12.014  0.00  0.00    +0.000 A 
ATOM     26  C   UNL     1       6.146   3.686  13.316  0.00  0.00    +0.000 A 
ENDBRANCH  18  21
ENDBRANCH  14  15
ENDBRANCH   1  14
TORSDOF 9
ENDMDL
MODEL 7
REMARK VINA RESULT:      -6.7      3.427      7.187
REMARK  Name = 
REMARK  10 active torsions:
REMARK  status: ('A' for Active; 'I' for Inactive)
REMARK    1  A    between atoms: C_1  and  N_2
REMARK    2  A    between atoms: C_3  and  C_5
REMARK    3  A    between atoms: C_5  and  C_7
REMARK    4  A    between atoms: C_8  and  C_9
REMARK    5  A    between atoms: C_9  and  C_10
REMARK    6  A    between atoms: C_10  and  C_11
REMARK    7  A    between atoms: C_11  and  C_12
REMARK    8  A    between atoms: C_12  and  O_13
REMARK    9  A    between atoms: O_13  and  C_14
REMARK   10  A    between atoms: C_17  and  C_18
REMARK                            x       y       z     vdW  Elec       q    Type
REMARK                         _______ _______ _______ _____ _____    ______ ____
ROOT
ATOM      1  C   UNL     1       2.626   4.264  19.803  0.00  0.00    +0.000 C 
ENDROOT
BRANCH   1   2
ATOM      2  C   UNL     1       1.569   4.105  18.717  0.00  0.00    +0.000 C 
BRANCH   2   3
ATOM      3  C   UNL     1       2.214   3.719  17.392  0.00  0.00    +0.000 C 
BRANCH   3   4
ATOM      4  C   UNL     1       3.496   2.926  17.613  0.00  0.00    +0.000 C 
BRANCH   4   6
ATOM      5  C   UNL     1       5.584   4.197  16.546  0.00  0.00    +0.000 C 
ATOM      6  C   UNL     1       4.641   3.630  17.024  0.00  0.00    +0.000 C 
BRANCH   5   7
ATOM      7  C   UNL     1       6.741   4.840  15.965  0.00  0.00    +0.000 C 
ATOM      8  O   UNL     1       7.508   5.489  16.671  0.00  0.00    +0.000 OA
BRANCH   7  11
ATOM      9  C   UNL     1       6.443   3.495  12.418  0.00  0.00    +0.000 C 
ATOM     10  N   UNL     1       6.285   3.742  13.824  0.00  0.00    +0.000 N 
ATOM     11  C   UNL     1       7.021   4.722  14.462  0.00  0.00    +0.000 C 
ATOM     12  O   UNL     1       7.835   5.451  13.916  0.00  0.00    +0.000 OA
ATOM     13  H   UNL     1       5.633   3.201  14.385  0.00  0.00    +0.000 HD
ENDBRANCH   7  11
ENDBRANCH   5   7
ENDBRANCH   4   6
ENDBRANCH   3   4
ENDBRANCH   2   3
ENDBRANCH   1   2
BRANCH   1  14
ATOM     14  O   UNL     1       3.332   5.476  19.548  0.00  0.00    +0.000 OA
BRANCH  14  15
ATOM     15  C   UNL     1       2.592   6.615  19.683  0.00  0.00    +0.000 A 
ATOM     16  C   UNL     1       2.517   7.414  18.548  0.00  0.00    +0.000 A 
ATOM     17  C   UNL     1       1.783   8.604  18.570  0.00  0.00    +0.000 A 
ATOM     18  C   UNL     1       1.074   9.011  19.714  0.00  0.00    +0.000 A 
ATOM     19  C   UNL     1       1.148   8.175  20.841  0.00  0.00    +0.000 A 
ATOM     20  C   UNL     1       1.901   6.994  20.831  0.00  0.00    +0.000 A 
BRANCH  18  21
ATOM     21  C   UNL     1       0.286  10.265  19.726  0.00  0.00    +0.000 A 
ATOM     22  C   UNL     1      -0.110  10.889  18.528  0.00  0.00    +0.000 A 
ATOM     23  C   UNL     1      -0.819  12.093  18.528  0.00  0.00    +0.000 A 
ATOM     24  C   UNL     1      -1.170  12.693  19.732  0.00  0.00    +0.000 A 
ATOM     25  C   UNL     1      -0.814  12.088  20.933  0.00  0.00    +0.000 A 
ATOM     26  C   UNL     1      -0.090  10.892  20.928  0.00  0.00    +0.000 A 
ENDBRANCH  18  21
ENDBRANCH  14  15
ENDBRANCH   1  14
TORSDOF 9
ENDMDL
MODEL 8
REMARK VINA RESULT:      -6.6      3.315      7.458
REMARK  Name = 
REMARK  10 active torsions:
REMARK  status: ('A' for Active; 'I' for Inactive)
REMARK    1  A    between atoms: C_1  and  N_2
REMARK    2  A    between atoms: C_3  and  C_5
REMARK    3  A    between atoms: C_5  and  C_7
REMARK    4  A    between atoms: C_8  and  C_9
REMARK    5  A    between atoms: C_9  and  C_10
REMARK    6  A    between atoms: C_10  and  C_11
REMARK    7  A    between atoms: C_11  and  C_12
REMARK    8  A    between atoms: C_12  and  O_13
REMARK    9  A    between atoms: O_13  and  C_14
REMARK   10  A    between atoms: C_17  and  C_18
REMARK                            x       y       z     vdW  Elec       q    Type
REMARK                         _______ _______ _______ _____ _____    ______ ____
ROOT
ATOM      1  C   UNL     1       2.673   5.010  20.186  0.00  0.00    +0.000 C 
ENDROOT
BRANCH   1   2
ATOM      2  C   UNL     1       1.671   4.124  19.456  0.00  0.00    +0.000 C 
BRANCH   2   3
ATOM      3  C   UNL     1       1.898   4.185  17.951  0.00  0.00    +0.000 C 
BRANCH   3   4
ATOM      4  C   UNL     1       3.022   3.250  17.524  0.00  0.00    +0.000 C 
BRANCH   4   6
ATOM      5  C   UNL     1       4.989   4.634  16.372  0.00  0.00    +0.000 C 
ATOM      6  C   UNL     1       4.108   4.010  16.896  0.00  0.00    +0.000 C 
BRANCH   5   7
ATOM      7  C   UNL     1       6.019   5.413  15.721  0.00  0.00    +0.000 C 
ATOM      8  O   UNL     1       6.371   6.490  16.193  0.00  0.00    +0.000 OA
BRANCH   7  11
ATOM      9  C   UNL     1       6.352   3.502  12.447  0.00  0.00    +0.000 C 
ATOM     10  N   UNL     1       5.875   4.075  13.676  0.00  0.00    +0.000 N 
ATOM     11  C   UNL     1       6.679   4.903  14.434  0.00  0.00    +0.000 C 
ATOM     12  O   UNL     1       7.821   5.227  14.144  0.00  0.00    +0.000 OA
ATOM     13  H   UNL     1       4.938   3.882  14.018  0.00  0.00    +0.000 HD
ENDBRANCH   7  11
ENDBRANCH   5   7
ENDBRANCH   4   6
ENDBRANCH   3   4
ENDBRANCH   2   3
ENDBRANCH   1   2
BRANCH   1  14
ATOM     14  O   UNL     1       2.952   6.131  19.350  0.00  0.00    +0.000 OA
BRANCH  14  15
ATOM     15  C   UNL     1       2.211   7.247  19.615  0.00  0.00    +0.000 A 
ATOM     16  C   UNL     1       2.074   8.136  18.555  0.00  0.00    +0.000 A 
ATOM     17  C   UNL     1       1.333   9.311  18.710  0.00  0.00    +0.000 A 
ATOM     18  C   UNL     1       0.678   9.614  19.917  0.00  0.00    +0.000 A 
ATOM     19  C   UNL     1       0.814   8.689  20.967  0.00  0.00    +0.000 A 
ATOM     20  C   UNL     1       1.575   7.522  20.822  0.00  0.00    +0.000 A 
BRANCH  18  21
ATOM     21  C   UNL     1      -0.117  10.854  20.071  0.00  0.00    +0.000 A 
ATOM     22  C   UNL     1       0.035  11.683  21.199  0.00  0.00    +0.000 A 
ATOM     23  C   UNL     1      -0.739  12.833  21.373  0.00  0.00    +0.000 A 
ATOM     24  C   UNL     1      -1.672  13.196  20.409  0.00  0.00    +0.000 A 
ATOM     25  C   UNL     1      -1.830  12.409  19.272  0.00  0.00    +0.000 A 
ATOM     26  C   UNL     1      -1.065  11.250  19.110  0.00  0.00    +0.000 A 
ENDBRANCH  18  21
ENDBRANCH  14  15
ENDBRANCH   1  14
TORSDOF 9
ENDMDL
MODEL 9
REMARK VINA RESULT:      -6.6      3.411      6.546
REMARK  Name = 
REMARK  10 active torsions:
REMARK  status: ('A' for Active; 'I' for Inactive)
REMARK    1  A    between atoms: C_1  and  N_2
REMARK    2  A    between atoms: C_3  and  C_5
REMARK    3  A    between atoms: C_5  and  C_7
REMARK    4  A    between atoms: C_8  and  C_9
REMARK    5  A    between atoms: C_9  and  C_10
REMARK    6  A    between atoms: C_10  and  C_11
REMARK    7  A    between atoms: C_11  and  C_12
REMARK    8  A    between atoms: C_12  and  O_13
REMARK    9  A    between atoms: O_13  and  C_14
REMARK   10  A    between atoms: C_17  and  C_18
REMARK                            x       y       z     vdW  Elec       q    Type
REMARK                         _______ _______ _______ _____ _____    ______ ____
ROOT
ATOM      1  C   UNL     1       2.621   2.532  20.435  0.00  0.00    +0.000 C 
ENDROOT
BRANCH   1   2
ATOM      2  C   UNL     1       2.239   1.874  19.115  0.00  0.00    +0.000 C 
BRANCH   2   3
ATOM      3  C   UNL     1       3.377   1.992  18.108  0.00  0.00    +0.000 C 
BRANCH   3   4
ATOM      4  C   UNL     1       3.062   3.032  17.040  0.00  0.00    +0.000 C 
BRANCH   4   6
ATOM      5  C   UNL     1       5.312   4.190  16.197  0.00  0.00    +0.000 C 
ATOM      6  C   UNL     1       4.296   3.674  16.573  0.00  0.00    +0.000 C 
BRANCH   5   7
ATOM      7  C   UNL     1       6.557   4.773  15.750  0.00  0.00    +0.000 C 
ATOM      8  O   UNL     1       7.293   5.346  16.548  0.00  0.00    +0.000 OA
BRANCH   7  11
ATOM      9  C   UNL     1       6.580   3.498  12.165  0.00  0.00    +0.000 C 
ATOM     10  N   UNL     1       6.297   3.717  13.557  0.00  0.00    +0.000 N 
ATOM     11  C   UNL     1       6.969   4.686  14.276  0.00  0.00    +0.000 C 
ATOM     12  O   UNL     1       7.826   5.428  13.819  0.00  0.00    +0.000 OA
ATOM     13  H   UNL     1       5.600   3.164  14.047  0.00  0.00    +0.000 HD
ENDBRANCH   7  11
ENDBRANCH   5   7
ENDBRANCH   4   6
ENDBRANCH   3   4
ENDBRANCH   2   3
ENDBRANCH   1   2
BRANCH   1  14
ATOM     14  O   UNL     1       3.497   3.617  20.142  0.00  0.00    +0.000 OA
BRANCH  14  15
ATOM     15  C   UNL     1       2.919   4.854  20.184  0.00  0.00    +0.000 A 
ATOM     16  C   UNL     1       3.467   5.796  19.320  0.00  0.00    +0.000 A 
ATOM     17  C   UNL     1       2.952   7.095  19.275  0.00  0.00    +0.000 A 
ATOM     18  C   UNL     1       1.854   7.479  20.065  0.00  0.00    +0.000 A 
ATOM     19  C   UNL     1       1.304   6.503  20.913  0.00  0.00    +0.000 A 
ATOM     20  C   UNL     1       1.832   5.207  20.978  0.00  0.00    +0.000 A 
BRANCH  18  21
ATOM     21  C   UNL     1       1.303   8.853  20.001  0.00  0.00    +0.000 A 
ATOM     22  C   UNL     1       1.292   9.580  18.795  0.00  0.00    +0.000 A 
ATOM     23  C   UNL     1       0.811  10.890  18.733  0.00  0.00    +0.000 A 
ATOM     24  C   UNL     1       0.309  11.502  19.876  0.00  0.00    +0.000 A 
ATOM     25  C   UNL     1       0.285  10.801  21.079  0.00  0.00    +0.000 A 
ATOM     26  C   UNL     1       0.782   9.496  21.140  0.00  0.00    +0.000 A 
ENDBRANCH  18  21
ENDBRANCH  14  15
ENDBRANCH   1  14
TORSDOF 9
ENDMDL
