MODEL 1
REMARK VINA RESULT:      -8.9      0.000      0.000
REMARK  Name = 
REMARK  5 active torsions:
REMARK  status: ('A' for Active; 'I' for Inactive)
REMARK    1  A    between atoms: C_2  and  C_3
REMARK    2  A    between atoms: C_3  and  N_4
REMARK    3  A    between atoms: C_7  and  O_8
REMARK    4  A    between atoms: O_8  and  C_9
REMARK    5  A    between atoms: N_21  and  C_22
REMARK                            x       y       z     vdW  Elec       q    Type
REMARK                         _______ _______ _______ _____ _____    ______ ____
ROOT
ATOM      1  N   UNL     1       6.894   5.897  18.399  0.00  0.00    +0.000 N 
ATOM      2  N   UNL     1       5.729   6.088  19.125  0.00  0.00    +0.000 NA
ATOM      3  C   UNL     1       4.896   5.272  18.545  0.00  0.00    +0.000 A 
ATOM      4  C   UNL     1       3.444   5.027  18.828  0.00  0.00    +0.000 A 
ATOM      5  N   UNL     1       2.725   4.191  18.129  0.00  0.00    +0.000 NA
ATOM      6  C   UNL     1       3.350   3.558  17.075  0.00  0.00    +0.000 A 
ATOM      7  C   UNL     1       4.641   3.721  16.749  0.00  0.00    +0.000 A 
ATOM      8  N   UNL     1       5.394   4.565  17.502  0.00  0.00    +0.000 N 
ATOM      9  C   UNL     1       6.705   4.934  17.391  0.00  0.00    +0.000 A 
ATOM     10  O   UNL     1       7.530   4.549  16.579  0.00  0.00    +0.000 OA
ENDROOT
BRANCH   1  11
ATOM     11  C   UNL     1       8.149   6.530  18.723  0.00  0.00    +0.000 C 
BRANCH  11  13
ATOM     12  O   UNL     1       7.677   8.399  17.316  0.00  0.00    +0.000 OA
ATOM     13  C   UNL     1       8.236   8.008  18.342  0.00  0.00    +0.000 C 
ATOM     14  N   UNL     1       8.989   8.803  19.187  0.00  0.00    +0.000 N 
ATOM     15  H   UNL     1       9.577   8.323  19.861  0.00  0.00    +0.000 HD
BRANCH  14  16
ATOM     16  C   UNL     1       9.182  10.199  19.081  0.00  0.00    +0.000 A 
ATOM     17  C   UNL     1       9.281  10.876  17.864  0.00  0.00    +0.000 A 
ATOM     18  C   UNL     1       9.560  12.247  17.837  0.00  0.00    +0.000 A 
ATOM     19  C   UNL     1       9.725  12.949  19.029  0.00  0.00    +0.000 A 
ATOM     20 BR   UNL     1      10.181  14.782  18.979  0.00  0.00    +0.000 Br
ATOM     21  C   UNL     1       9.570  12.305  20.252  0.00  0.00    +0.000 A 
ATOM     22  C   UNL     1       9.289  10.940  20.266  0.00  0.00    +0.000 A 
ATOM     23  F   UNL     1       9.152  10.318  21.449  0.00  0.00    +0.000 F 
ENDBRANCH  14  16
ENDBRANCH  11  13
ENDBRANCH   1  11
BRANCH   4  24
ATOM     24  O   UNL     1       2.999   5.827  19.850  0.00  0.00    +0.000 OA
BRANCH  24  25
ATOM     25  C   UNL     1       2.390   7.031  19.460  0.00  0.00    +0.000 A 
ATOM     26  C   UNL     1       1.719   7.772  20.432  0.00  0.00    +0.000 A 
ATOM     27  C   UNL     1       1.119   8.981  20.072  0.00  0.00    +0.000 A 
ATOM     28  C   UNL     1       1.196   9.440  18.754  0.00  0.00    +0.000 A 
ATOM     29  C   UNL     1       1.901   8.711  17.798  0.00  0.00    +0.000 A 
ATOM     30  C   UNL     1       2.521   7.519  18.157  0.00  0.00    +0.000 A 
ENDBRANCH  24  25
ENDBRANCH   4  24
TORSDOF 5
ENDMDL
MODEL 2
REMARK VINA RESULT:      -8.4      3.212      6.562
REMARK  Name = 
REMARK  5 active torsions:
REMARK  status: ('A' for Active; 'I' for Inactive)
REMARK    1  A    between atoms: C_2  and  C_3
REMARK    2  A    between atoms: C_3  and  N_4
REMARK    3  A    between atoms: C_7  and  O_8
REMARK    4  A    between atoms: O_8  and  C_9
REMARK    5  A    between atoms: N_21  and  C_22
REMARK                            x       y       z     vdW  Elec       q    Type
REMARK                         _______ _______ _______ _____ _____    ______ ____
ROOT
ATOM      1  N   UNL     1       4.087   4.081  19.133  0.00  0.00    +0.000 N 
ATOM      2  N   UNL     1       5.292   4.756  19.239  0.00  0.00    +0.000 NA
ATOM      3  C   UNL     1       5.796   4.629  18.045  0.00  0.00    +0.000 A 
ATOM      4  C   UNL     1       7.113   5.102  17.507  0.00  0.00    +0.000 A 
ATOM      5  N   UNL     1       7.496   4.865  16.282  0.00  0.00    +0.000 NA
ATOM      6  C   UNL     1       6.647   4.115  15.496  0.00  0.00    +0.000 A 
ATOM      7  C   UNL     1       5.455   3.648  15.896  0.00  0.00    +0.000 A 
ATOM      8  N   UNL     1       5.046   3.928  17.161  0.00  0.00    +0.000 N 
ATOM      9  C   UNL     1       3.911   3.572  17.833  0.00  0.00    +0.000 A 
ATOM     10  O   UNL     1       2.962   2.925  17.420  0.00  0.00    +0.000 OA
ENDROOT
BRANCH   1  11
ATOM     11  C   UNL     1       3.111   4.017  20.194  0.00  0.00    +0.000 C 
BRANCH  11  13
ATOM     12  O   UNL     1       0.913   4.932  20.347  0.00  0.00    +0.000 OA
ATOM     13  C   UNL     1       2.113   5.174  20.214  0.00  0.00    +0.000 C 
ATOM     14  N   UNL     1       2.652   6.436  20.039  0.00  0.00    +0.000 N 
ATOM     15  H   UNL     1       3.614   6.480  19.715  0.00  0.00    +0.000 HD
BRANCH  14  16
ATOM     16  C   UNL     1       1.953   7.663  20.066  0.00  0.00    +0.000 A 
ATOM     17  C   UNL     1       1.327   8.171  21.207  0.00  0.00    +0.000 A 
ATOM     18  C   UNL     1       0.579   9.351  21.139  0.00  0.00    +0.000 A 
ATOM     19  C   UNL     1       0.465  10.036  19.931  0.00  0.00    +0.000 A 
ATOM     20 BR   UNL     1      -0.615  11.583  19.830  0.00  0.00    +0.000 Br
ATOM     21  C   UNL     1       1.130   9.579  18.798  0.00  0.00    +0.000 A 
ATOM     22  C   UNL     1       1.876   8.404  18.879  0.00  0.00    +0.000 A 
ATOM     23  F   UNL     1       2.507   7.959  17.781  0.00  0.00    +0.000 F 
ENDBRANCH  14  16
ENDBRANCH  11  13
ENDBRANCH   1  11
BRANCH   4  24
ATOM     24  O   UNL     1       7.841   5.742  18.479  0.00  0.00    +0.000 OA
BRANCH  24  25
ATOM     25  C   UNL     1       7.937   7.137  18.350  0.00  0.00    +0.000 A 
ATOM     26  C   UNL     1       8.832   7.813  19.178  0.00  0.00    +0.000 A 
ATOM     27  C   UNL     1       8.957   9.199  19.056  0.00  0.00    +0.000 A 
ATOM     28  C   UNL     1       8.195   9.895  18.113  0.00  0.00    +0.000 A 
ATOM     29  C   UNL     1       7.332   9.205  17.264  0.00  0.00    +0.000 A 
ATOM     30  C   UNL     1       7.221   7.823  17.364  0.00  0.00    +0.000 A 
ENDBRANCH  24  25
ENDBRANCH   4  24
TORSDOF 5
ENDMDL
MODEL 3
REMARK VINA RESULT:      -8.2      1.650      2.066
REMARK  Name = 
REMARK  5 active torsions:
REMARK  status: ('A' for Active; 'I' for Inactive)
REMARK    1  A    between atoms: C_2  and  C_3
REMARK    2  A    between atoms: C_3  and  N_4
REMARK    3  A    between atoms: C_7  and  O_8
REMARK    4  A    between atoms: O_8  and  C_9
REMARK    5  A    between atoms: N_21  and  C_22
REMARK                            x       y       z     vdW  Elec       q    Type
REMARK                         _______ _______ _______ _____ _____    ______ ____
ROOT
ATOM      1  N   UNL     1       6.374   6.485  17.528  0.00  0.00    +0.000 N 
ATOM      2  N   UNL     1       5.066   6.942  17.549  0.00  0.00    +0.000 NA
ATOM      3  C   UNL     1       4.445   5.996  18.194  0.00  0.00    +0.000 A 
ATOM      4  C   UNL     1       2.989   5.859  18.522  0.00  0.00    +0.000 A 
ATOM      5  N   UNL     1       2.506   4.823  19.153  0.00  0.00    +0.000 NA
ATOM      6  C   UNL     1       3.395   3.820  19.478  0.00  0.00    +0.000 A 
ATOM      7  C   UNL     1       4.711   3.857  19.220  0.00  0.00    +0.000 A 
ATOM      8  N   UNL     1       5.213   4.954  18.595  0.00  0.00    +0.000 N 
ATOM      9  C   UNL     1       6.485   5.251  18.194  0.00  0.00    +0.000 A 
ATOM     10  O   UNL     1       7.496   4.585  18.342  0.00  0.00    +0.000 OA
ENDROOT
BRANCH   1  11
ATOM     11  C   UNL     1       7.476   7.244  16.988  0.00  0.00    +0.000 C 
BRANCH  11  13
ATOM     12  O   UNL     1       8.637   7.703  19.021  0.00  0.00    +0.000 OA
ATOM     13  C   UNL     1       8.162   8.175  17.988  0.00  0.00    +0.000 C 
ATOM     14  N   UNL     1       8.160   9.518  17.657  0.00  0.00    +0.000 N 
ATOM     15  H   UNL     1       7.544   9.800  16.900  0.00  0.00    +0.000 HD
BRANCH  14  16
ATOM     16  C   UNL     1       8.767  10.566  18.384  0.00  0.00    +0.000 A 
ATOM     17  C   UNL     1       9.592  10.363  19.492  0.00  0.00    +0.000 A 
ATOM     18  C   UNL     1      10.088  11.452  20.216  0.00  0.00    +0.000 A 
ATOM     19  C   UNL     1       9.771  12.751  19.825  0.00  0.00    +0.000 A 
ATOM     20 BR   UNL     1      10.378  14.212  20.857  0.00  0.00    +0.000 Br
ATOM     21  C   UNL     1       9.001  12.976  18.689  0.00  0.00    +0.000 A 
ATOM     22  C   UNL     1       8.516  11.883  17.974  0.00  0.00    +0.000 A 
ATOM     23  F   UNL     1       7.762  12.103  16.884  0.00  0.00    +0.000 F 
ENDBRANCH  14  16
ENDBRANCH  11  13
ENDBRANCH   1  11
BRANCH   4  24
ATOM     24  O   UNL     1       2.270   6.917  18.024  0.00  0.00    +0.000 OA
BRANCH  24  25
ATOM     25  C   UNL     1       1.837   7.859  18.972  0.00  0.00    +0.000 A 
ATOM     26  C   UNL     1       1.432   9.112  18.514  0.00  0.00    +0.000 A 
ATOM     27  C   UNL     1       0.982  10.060  19.437  0.00  0.00    +0.000 A 
ATOM     28  C   UNL     1       0.938   9.752  20.799  0.00  0.00    +0.000 A 
ATOM     29  C   UNL     1       1.310   8.483  21.243  0.00  0.00    +0.000 A 
ATOM     30  C   UNL     1       1.735   7.528  20.326  0.00  0.00    +0.000 A 
ENDBRANCH  24  25
ENDBRANCH   4  24
TORSDOF 5
ENDMDL
MODEL 4
REMARK VINA RESULT:      -8.1      4.712      8.064
REMARK  Name = 
REMARK  5 active torsions:
REMARK  status: ('A' for Active; 'I' for Inactive)
REMARK    1  A    between atoms: C_2  and  C_3
REMARK    2  A    between atoms: C_3  and  N_4
REMARK    3  A    between atoms: C_7  and  O_8
REMARK    4  A    between atoms: O_8  and  C_9
REMARK    5  A    between atoms: N_21  and  C_22
REMARK                            x       y       z     vdW  Elec       q    Type
REMARK                         _______ _______ _______ _____ _____    ______ ____
ROOT
ATOM      1  N   UNL     1       2.019   8.396  19.260  0.00  0.00    +0.000 N 
ATOM      2  N   UNL     1       2.843   7.612  18.469  0.00  0.00    +0.000 NA
ATOM      3  C   UNL     1       2.779   6.451  19.055  0.00  0.00    +0.000 A 
ATOM      4  C   UNL     1       3.480   5.169  18.719  0.00  0.00    +0.000 A 
ATOM      5  N   UNL     1       3.340   4.085  19.431  0.00  0.00    +0.000 NA
ATOM      6  C   UNL     1       2.539   4.172  20.551  0.00  0.00    +0.000 A 
ATOM      7  C   UNL     1       1.879   5.277  20.929  0.00  0.00    +0.000 A 
ATOM      8  N   UNL     1       2.001   6.393  20.163  0.00  0.00    +0.000 N 
ATOM      9  C   UNL     1       1.471   7.643  20.314  0.00  0.00    +0.000 A 
ATOM     10  O   UNL     1       0.717   8.041  21.186  0.00  0.00    +0.000 OA
ENDROOT
BRANCH   1  11
ATOM     11  C   UNL     1       1.695   9.769  18.958  0.00  0.00    +0.000 C 
BRANCH  11  13
ATOM     12  O   UNL     1      -0.679   9.902  18.763  0.00  0.00    +0.000 OA
ATOM     13  C   UNL     1       0.310  10.216  19.426  0.00  0.00    +0.000 C 
ATOM     14  N   UNL     1       0.283  10.991  20.571  0.00  0.00    +0.000 N 
ATOM     15  H   UNL     1       1.173  11.364  20.889  0.00  0.00    +0.000 HD
BRANCH  14  16
ATOM     16  C   UNL     1      -0.865  11.484  21.229  0.00  0.00    +0.000 A 
ATOM     17  C   UNL     1      -1.807  12.316  20.622  0.00  0.00    +0.000 A 
ATOM     18  C   UNL     1      -2.875  12.837  21.361  0.00  0.00    +0.000 A 
ATOM     19  C   UNL     1      -3.012  12.515  22.709  0.00  0.00    +0.000 A 
ATOM     20 BR   UNL     1      -4.409  13.288  23.718  0.00  0.00    +0.000 Br
ATOM     21  C   UNL     1      -2.118  11.640  23.318  0.00  0.00    +0.000 A 
ATOM     22  C   UNL     1      -1.061  11.125  22.570  0.00  0.00    +0.000 A 
ATOM     23  F   UNL     1      -0.193  10.289  23.163  0.00  0.00    +0.000 F 
ENDBRANCH  14  16
ENDBRANCH  11  13
ENDBRANCH   1  11
BRANCH   4  24
ATOM     24  O   UNL     1       4.300   5.327  17.629  0.00  0.00    +0.000 OA
BRANCH  24  25
ATOM     25  C   UNL     1       5.565   5.878  17.894  0.00  0.00    +0.000 A 
ATOM     26  C   UNL     1       6.327   5.310  18.914  0.00  0.00    +0.000 A 
ATOM     27  C   UNL     1       7.596   5.831  19.184  0.00  0.00    +0.000 A 
ATOM     28  C   UNL     1       8.091   6.903  18.437  0.00  0.00    +0.000 A 
ATOM     29  C   UNL     1       7.336   7.438  17.395  0.00  0.00    +0.000 A 
ATOM     30  C   UNL     1       6.083   6.909  17.105  0.00  0.00    +0.000 A 
ENDBRANCH  24  25
ENDBRANCH   4  24
TORSDOF 5
ENDMDL
MODEL 5
REMARK VINA RESULT:      -8.0      5.355      7.957
REMARK  Name = 
REMARK  5 active torsions:
REMARK  status: ('A' for Active; 'I' for Inactive)
REMARK    1  A    between atoms: C_2  and  C_3
REMARK    2  A    between atoms: C_3  and  N_4
REMARK    3  A    between atoms: C_7  and  O_8
REMARK    4  A    between atoms: O_8  and  C_9
REMARK    5  A    between atoms: N_21  and  C_22
REMARK                            x       y       z     vdW  Elec       q    Type
REMARK                         _______ _______ _______ _____ _____    ______ ____
ROOT
ATOM      1  N   UNL     1       2.079   8.052  19.076  0.00  0.00    +0.000 N 
ATOM      2  N   UNL     1       2.507   7.131  18.133  0.00  0.00    +0.000 NA
ATOM      3  C   UNL     1       2.482   6.011  18.798  0.00  0.00    +0.000 A 
ATOM      4  C   UNL     1       2.872   4.631  18.362  0.00  0.00    +0.000 A 
ATOM      5  N   UNL     1       2.824   3.602  19.164  0.00  0.00    +0.000 NA
ATOM      6  C   UNL     1       2.432   3.841  20.465  0.00  0.00    +0.000 A 
ATOM      7  C   UNL     1       2.070   5.042  20.940  0.00  0.00    +0.000 A 
ATOM      8  N   UNL     1       2.088   6.103  20.091  0.00  0.00    +0.000 N 
ATOM      9  C   UNL     1       1.797   7.421  20.301  0.00  0.00    +0.000 A 
ATOM     10  O   UNL     1       1.411   7.953  21.329  0.00  0.00    +0.000 OA
ENDROOT
BRANCH   1  11
ATOM     11  C   UNL     1       1.856   9.447  18.784  0.00  0.00    +0.000 C 
BRANCH  11  13
ATOM     12  O   UNL     1      -0.490   9.810  18.541  0.00  0.00    +0.000 OA
ATOM     13  C   UNL     1       0.503   9.988  19.247  0.00  0.00    +0.000 C 
ATOM     14  N   UNL     1       0.512  10.686  20.441  0.00  0.00    +0.000 N 
ATOM     15  H   UNL     1       1.422  10.955  20.805  0.00  0.00    +0.000 HD
BRANCH  14  16
ATOM     16  C   UNL     1      -0.607  11.239  21.103  0.00  0.00    +0.000 A 
ATOM     17  C   UNL     1      -1.534  12.080  20.484  0.00  0.00    +0.000 A 
ATOM     18  C   UNL     1      -2.569  12.660  21.224  0.00  0.00    +0.000 A 
ATOM     19  C   UNL     1      -2.690  12.389  22.586  0.00  0.00    +0.000 A 
ATOM     20 BR   UNL     1      -4.042  13.242  23.593  0.00  0.00    +0.000 Br
ATOM     21  C   UNL     1      -1.813  11.506  23.208  0.00  0.00    +0.000 A 
ATOM     22  C   UNL     1      -0.788  10.932  22.459  0.00  0.00    +0.000 A 
ATOM     23  F   UNL     1       0.065  10.089  23.065  0.00  0.00    +0.000 F 
ENDBRANCH  14  16
ENDBRANCH  11  13
ENDBRANCH   1  11
BRANCH   4  24
ATOM     24  O   UNL     1       3.324   4.633  17.066  0.00  0.00    +0.000 OA
BRANCH  24  25
ATOM     25  C   UNL     1       4.719   4.629  16.907  0.00  0.00    +0.000 A 
ATOM     26  C   UNL     1       5.510   4.754  18.048  0.00  0.00    +0.000 A 
ATOM     27  C   UNL     1       6.901   4.737  17.916  0.00  0.00    +0.000 A 
ATOM     28  C   UNL     1       7.488   4.593  16.656  0.00  0.00    +0.000 A 
ATOM     29  C   UNL     1       6.688   4.430  15.526  0.00  0.00    +0.000 A 
ATOM     30  C   UNL     1       5.303   4.422  15.654  0.00  0.00    +0.000 A 
ENDBRANCH  24  25
ENDBRANCH   4  24
TORSDOF 5
ENDMDL
MODEL 6
REMARK VINA RESULT:      -8.0      1.957      2.482
REMARK  Name = 
REMARK  5 active torsions:
REMARK  status: ('A' for Active; 'I' for Inactive)
REMARK    1  A    between atoms: C_2  and  C_3
REMARK    2  A    between atoms: C_3  and  N_4
REMARK    3  A    between atoms: C_7  and  O_8
REMARK    4  A    between atoms: O_8  and  C_9
REMARK    5  A    between atoms: N_21  and  C_22
REMARK                            x       y       z     vdW  Elec       q    Type
REMARK                         _______ _______ _______ _____ _____    ______ ____
ROOT
ATOM      1  N   UNL     1       7.514   6.224  18.309  0.00  0.00    +0.000 N 
ATOM      2  N   UNL     1       6.684   5.377  19.023  0.00  0.00    +0.000 NA
ATOM      3  C   UNL     1       6.039   4.750  18.082  0.00  0.00    +0.000 A 
ATOM      4  C   UNL     1       4.955   3.719  18.187  0.00  0.00    +0.000 A 
ATOM      5  N   UNL     1       4.375   3.202  17.138  0.00  0.00    +0.000 NA
ATOM      6  C   UNL     1       4.774   3.675  15.906  0.00  0.00    +0.000 A 
ATOM      7  C   UNL     1       5.731   4.597  15.719  0.00  0.00    +0.000 A 
ATOM      8  N   UNL     1       6.356   5.106  16.813  0.00  0.00    +0.000 N 
ATOM      9  C   UNL     1       7.333   6.054  16.924  0.00  0.00    +0.000 A 
ATOM     10  O   UNL     1       7.905   6.655  16.029  0.00  0.00    +0.000 OA
ENDROOT
BRANCH   1  11
ATOM     11  C   UNL     1       8.502   7.078  18.923  0.00  0.00    +0.000 C 
BRANCH  11  13
ATOM     12  O   UNL     1       7.458   8.926  17.834  0.00  0.00    +0.000 OA
ATOM     13  C   UNL     1       8.346   8.565  18.606  0.00  0.00    +0.000 C 
ATOM     14  N   UNL     1       9.267   9.406  19.205  0.00  0.00    +0.000 N 
ATOM     15  H   UNL     1      10.077   8.966  19.631  0.00  0.00    +0.000 HD
BRANCH  14  16
ATOM     16  C   UNL     1       9.306  10.815  19.112  0.00  0.00    +0.000 A 
ATOM     17  C   UNL     1       9.421  11.508  17.905  0.00  0.00    +0.000 A 
ATOM     18  C   UNL     1       9.542  12.902  17.897  0.00  0.00    +0.000 A 
ATOM     19  C   UNL     1       9.533  13.610  19.097  0.00  0.00    +0.000 A 
ATOM     20 BR   UNL     1       9.779  15.483  19.080  0.00  0.00    +0.000 Br
ATOM     21  C   UNL     1       9.360  12.943  20.306  0.00  0.00    +0.000 A 
ATOM     22  C   UNL     1       9.237  11.555  20.301  0.00  0.00    +0.000 A 
ATOM     23  F   UNL     1       9.081  10.914  21.470  0.00  0.00    +0.000 F 
ENDBRANCH  14  16
ENDBRANCH  11  13
ENDBRANCH   1  11
BRANCH   4  24
ATOM     24  O   UNL     1       4.644   3.463  19.499  0.00  0.00    +0.000 OA
BRANCH  24  25
ATOM     25  C   UNL     1       3.317   3.728  19.873  0.00  0.00    +0.000 A 
ATOM     26  C   UNL     1       2.461   2.645  20.068  0.00  0.00    +0.000 A 
ATOM     27  C   UNL     1       1.140   2.884  20.457  0.00  0.00    +0.000 A 
ATOM     28  C   UNL     1       0.688   4.192  20.650  0.00  0.00    +0.000 A 
ATOM     29  C   UNL     1       1.562   5.266  20.489  0.00  0.00    +0.000 A 
ATOM     30  C   UNL     1       2.884   5.033  20.126  0.00  0.00    +0.000 A 
ENDBRANCH  24  25
ENDBRANCH   4  24
TORSDOF 5
ENDMDL
MODEL 7
REMARK VINA RESULT:      -8.0      5.194      8.608
REMARK  Name = 
REMARK  5 active torsions:
REMARK  status: ('A' for Active; 'I' for Inactive)
REMARK    1  A    between atoms: C_2  and  C_3
REMARK    2  A    between atoms: C_3  and  N_4
REMARK    3  A    between atoms: C_7  and  O_8
REMARK    4  A    between atoms: O_8  and  C_9
REMARK    5  A    between atoms: N_21  and  C_22
REMARK                            x       y       z     vdW  Elec       q    Type
REMARK                         _______ _______ _______ _____ _____    ______ ____
ROOT
ATOM      1  N   UNL     1       1.631   9.054  19.301  0.00  0.00    +0.000 N 
ATOM      2  N   UNL     1       2.275   8.320  18.318  0.00  0.00    +0.000 NA
ATOM      3  C   UNL     1       2.384   7.144  18.866  0.00  0.00    +0.000 A 
ATOM      4  C   UNL     1       3.027   5.897  18.338  0.00  0.00    +0.000 A 
ATOM      5  N   UNL     1       3.087   4.792  19.029  0.00  0.00    +0.000 NA
ATOM      6  C   UNL     1       2.563   4.822  20.304  0.00  0.00    +0.000 A 
ATOM      7  C   UNL     1       1.974   5.893  20.857  0.00  0.00    +0.000 A 
ATOM      8  N   UNL     1       1.882   7.030  20.120  0.00  0.00    +0.000 N 
ATOM      9  C   UNL     1       1.363   8.256  20.428  0.00  0.00    +0.000 A 
ATOM     10  O   UNL     1       0.818   8.605  21.462  0.00  0.00    +0.000 OA
ENDROOT
BRANCH   1  11
ATOM     11  C   UNL     1       1.205  10.421  19.125  0.00  0.00    +0.000 C 
BRANCH  11  13
ATOM     12  O   UNL     1      -1.165  10.205  18.965  0.00  0.00    +0.000 OA
ATOM     13  C   UNL     1      -0.225  10.708  19.581  0.00  0.00    +0.000 C 
ATOM     14  N   UNL     1      -0.352  11.564  20.660  0.00  0.00    +0.000 N 
ATOM     15  H   UNL     1       0.478  12.083  20.930  0.00  0.00    +0.000 HD
BRANCH  14  16
ATOM     16  C   UNL     1      -1.554  11.945  21.298  0.00  0.00    +0.000 A 
ATOM     17  C   UNL     1      -2.590  12.624  20.653  0.00  0.00    +0.000 A 
ATOM     18  C   UNL     1      -3.714  13.046  21.370  0.00  0.00    +0.000 A 
ATOM     19  C   UNL     1      -3.814  12.777  22.733  0.00  0.00    +0.000 A 
ATOM     20 BR   UNL     1      -5.297  13.423  23.708  0.00  0.00    +0.000 Br
ATOM     21  C   UNL     1      -2.820  12.050  23.381  0.00  0.00    +0.000 A 
ATOM     22  C   UNL     1      -1.707  11.632  22.655  0.00  0.00    +0.000 A 
ATOM     23  F   UNL     1      -0.744  10.939  23.286  0.00  0.00    +0.000 F 
ENDBRANCH  14  16
ENDBRANCH  11  13
ENDBRANCH   1  11
BRANCH   4  24
ATOM     24  O   UNL     1       3.570   6.112  17.096  0.00  0.00    +0.000 OA
BRANCH  24  25
ATOM     25  C   UNL     1       4.876   5.628  16.909  0.00  0.00    +0.000 A 
ATOM     26  C   UNL     1       5.908   6.234  17.622  0.00  0.00    +0.000 A 
ATOM     27  C   UNL     1       7.213   5.759  17.465  0.00  0.00    +0.000 A 
ATOM     28  C   UNL     1       7.474   4.688  16.606  0.00  0.00    +0.000 A 
ATOM     29  C   UNL     1       6.429   4.064  15.927  0.00  0.00    +0.000 A 
ATOM     30  C   UNL     1       5.125   4.517  16.098  0.00  0.00    +0.000 A 
ENDBRANCH  24  25
ENDBRANCH   4  24
TORSDOF 5
ENDMDL
MODEL 8
REMARK VINA RESULT:      -7.9      5.760      8.603
REMARK  Name = 
REMARK  5 active torsions:
REMARK  status: ('A' for Active; 'I' for Inactive)
REMARK    1  A    between atoms: C_2  and  C_3
REMARK    2  A    between atoms: C_3  and  N_4
REMARK    3  A    between atoms: C_7  and  O_8
REMARK    4  A    between atoms: O_8  and  C_9
REMARK    5  A    between atoms: N_21  and  C_22
REMARK                            x       y       z     vdW  Elec       q    Type
REMARK                         _______ _______ _______ _____ _____    ______ ____
ROOT
ATOM      1  N   UNL     1       2.133   7.923  18.970  0.00  0.00    +0.000 N 
ATOM      2  N   UNL     1       2.514   6.955  18.055  0.00  0.00    +0.000 NA
ATOM      3  C   UNL     1       2.499   5.867  18.770  0.00  0.00    +0.000 A 
ATOM      4  C   UNL     1       2.855   4.463  18.383  0.00  0.00    +0.000 A 
ATOM      5  N   UNL     1       2.822   3.471  19.231  0.00  0.00    +0.000 NA
ATOM      6  C   UNL     1       2.480   3.773  20.533  0.00  0.00    +0.000 A 
ATOM      7  C   UNL     1       2.151   5.000  20.967  0.00  0.00    +0.000 A 
ATOM      8  N   UNL     1       2.153   6.021  20.071  0.00  0.00    +0.000 N 
ATOM      9  C   UNL     1       1.886   7.352  20.232  0.00  0.00    +0.000 A 
ATOM     10  O   UNL     1       1.545   7.934  21.248  0.00  0.00    +0.000 OA
ENDROOT
BRANCH   1  11
ATOM     11  C   UNL     1       1.918   9.307  18.624  0.00  0.00    +0.000 C 
BRANCH  11  13
ATOM     12  O   UNL     1       0.138   9.970  20.068  0.00  0.00    +0.000 OA
ATOM     13  C   UNL     1       0.506   9.823  18.903  0.00  0.00    +0.000 C 
ATOM     14  N   UNL     1      -0.279  10.056  17.788  0.00  0.00    +0.000 N 
ATOM     15  H   UNL     1       0.060   9.683  16.906  0.00  0.00    +0.000 HD
BRANCH  14  16
ATOM     16  C   UNL     1      -1.592  10.576  17.775  0.00  0.00    +0.000 A 
ATOM     17  C   UNL     1      -2.084  11.458  18.740  0.00  0.00    +0.000 A 
ATOM     18  C   UNL     1      -3.423  11.864  18.713  0.00  0.00    +0.000 A 
ATOM     19  C   UNL     1      -4.271  11.401  17.710  0.00  0.00    +0.000 A 
ATOM     20 BR   UNL     1      -6.096  11.891  17.728  0.00  0.00    +0.000 Br
ATOM     21  C   UNL     1      -3.785  10.571  16.705  0.00  0.00    +0.000 A 
ATOM     22  C   UNL     1      -2.450  10.176  16.742  0.00  0.00    +0.000 A 
ATOM     23  F   UNL     1      -1.987   9.364  15.777  0.00  0.00    +0.000 F 
ENDBRANCH  14  16
ENDBRANCH  11  13
ENDBRANCH   1  11
BRANCH   4  24
ATOM     24  O   UNL     1       3.259   4.401  17.073  0.00  0.00    +0.000 OA
BRANCH  24  25
ATOM     25  C   UNL     1       4.647   4.445  16.861  0.00  0.00    +0.000 A 
ATOM     26  C   UNL     1       5.113   4.375  15.548  0.00  0.00    +0.000 A 
ATOM     27  C   UNL     1       6.488   4.433  15.311  0.00  0.00    +0.000 A 
ATOM     28  C   UNL     1       7.382   4.563  16.378  0.00  0.00    +0.000 A 
ATOM     29  C   UNL     1       6.904   4.670  17.683  0.00  0.00    +0.000 A 
ATOM     30  C   UNL     1       5.535   4.637  17.923  0.00  0.00    +0.000 A 
ENDBRANCH  24  25
ENDBRANCH   4  24
TORSDOF 5
ENDMDL
MODEL 9
REMARK VINA RESULT:      -7.9      5.288      7.745
REMARK  Name = 
REMARK  5 active torsions:
REMARK  status: ('A' for Active; 'I' for Inactive)
REMARK    1  A    between atoms: C_2  and  C_3
REMARK    2  A    between atoms: C_3  and  N_4
REMARK    3  A    between atoms: C_7  and  O_8
REMARK    4  A    between atoms: O_8  and  C_9
REMARK    5  A    between atoms: N_21  and  C_22
REMARK                            x       y       z     vdW  Elec       q    Type
REMARK                         _______ _______ _______ _____ _____    ______ ____
ROOT
ATOM      1  N   UNL     1       2.287   7.861  18.695  0.00  0.00    +0.000 N 
ATOM      2  N   UNL     1       2.670   6.819  17.866  0.00  0.00    +0.000 NA
ATOM      3  C   UNL     1       2.601   5.787  18.657  0.00  0.00    +0.000 A 
ATOM      4  C   UNL     1       2.930   4.349  18.385  0.00  0.00    +0.000 A 
ATOM      5  N   UNL     1       2.842   3.424  19.301  0.00  0.00    +0.000 NA
ATOM      6  C   UNL     1       2.467   3.829  20.565  0.00  0.00    +0.000 A 
ATOM      7  C   UNL     1       2.159   5.092  20.897  0.00  0.00    +0.000 A 
ATOM      8  N   UNL     1       2.218   6.045  19.930  0.00  0.00    +0.000 N 
ATOM      9  C   UNL     1       1.984   7.390  19.986  0.00  0.00    +0.000 A 
ATOM     10  O   UNL     1       1.627   8.054  20.944  0.00  0.00    +0.000 OA
ENDROOT
BRANCH   1  11
ATOM     11  C   UNL     1       2.121   9.221  18.243  0.00  0.00    +0.000 C 
BRANCH  11  13
ATOM     12  O   UNL     1      -0.204   9.637  17.909  0.00  0.00    +0.000 OA
ATOM     13  C   UNL     1       0.782   9.859  18.612  0.00  0.00    +0.000 C 
ATOM     14  N   UNL     1       0.796  10.687  19.720  0.00  0.00    +0.000 N 
ATOM     15  H   UNL     1       1.709  10.962  20.071  0.00  0.00    +0.000 HD
BRANCH  14  16
ATOM     16  C   UNL     1      -0.312  11.350  20.291  0.00  0.00    +0.000 A 
ATOM     17  C   UNL     1      -1.149  12.212  19.578  0.00  0.00    +0.000 A 
ATOM     18  C   UNL     1      -2.176  12.903  20.230  0.00  0.00    +0.000 A 
ATOM     19  C   UNL     1      -2.380  12.722  21.596  0.00  0.00    +0.000 A 
ATOM     20 BR   UNL     1      -3.717  13.720  22.482  0.00  0.00    +0.000 Br
ATOM     21  C   UNL     1      -1.596  11.822  22.312  0.00  0.00    +0.000 A 
ATOM     22  C   UNL     1      -0.578  11.138  21.650  0.00  0.00    +0.000 A 
ATOM     23  F   UNL     1       0.184  10.279  22.346  0.00  0.00    +0.000 F 
ENDBRANCH  14  16
ENDBRANCH  11  13
ENDBRANCH   1  11
BRANCH   4  24
ATOM     24  O   UNL     1       3.373   4.181  17.097  0.00  0.00    +0.000 OA
BRANCH  24  25
ATOM     25  C   UNL     1       4.759   4.315  16.908  0.00  0.00    +0.000 A 
ATOM     26  C   UNL     1       5.243   4.342  15.600  0.00  0.00    +0.000 A 
ATOM     27  C   UNL     1       6.616   4.491  15.387  0.00  0.00    +0.000 A 
ATOM     28  C   UNL     1       7.488   4.614  16.472  0.00  0.00    +0.000 A 
ATOM     29  C   UNL     1       6.990   4.623  17.774  0.00  0.00    +0.000 A 
ATOM     30  C   UNL     1       5.622   4.500  17.992  0.00  0.00    +0.000 A 
ENDBRANCH  24  25
ENDBRANCH   4  24
TORSDOF 5
ENDMDL
