MODEL 1
REMARK VINA RESULT:      -7.6      0.000      0.000
REMARK  Name = 
REMARK  6 active torsions:
REMARK  status: ('A' for Active; 'I' for Inactive)
REMARK    1  A    between atoms: C_2  and  C_3
REMARK    2  A    between atoms: C_3  and  N_4
REMARK    3  A    between atoms: N_7  and  C_8
REMARK    4  A    between atoms: C_11  and  N_12
REMARK    5  A    between atoms: N_19  and  C_20
REMARK    6  A    between atoms: N_19  and  C_26
REMARK                            x       y       z     vdW  Elec       q    Type
REMARK                         _______ _______ _______ _____ _____    ______ ____
ROOT
ATOM      1  C   UNL     1       1.672   7.704  18.871  0.00  0.00    +0.000 C 
ENDROOT
BRANCH   1   2
ATOM      2  N   UNL     1       2.030   8.927  19.651  0.00  0.00    +0.000 NA
ATOM      3  C   UNL     1       1.506  10.187  19.060  0.00  0.00    +0.000 C 
ATOM      4  C   UNL     1      -0.030  10.274  19.035  0.00  0.00    +0.000 C 
ATOM      5  N   UNL     1      -0.568  10.144  20.397  0.00  0.00    +0.000 N 
ATOM      6  C   UNL     1      -0.052   9.003  21.180  0.00  0.00    +0.000 C 
ATOM      7  C   UNL     1       1.489   8.852  21.035  0.00  0.00    +0.000 C 
BRANCH   5   8
ATOM      8  C   UNL     1      -1.211  11.198  21.019  0.00  0.00    +0.000 A 
ATOM      9  C   UNL     1      -1.186  11.326  22.418  0.00  0.00    +0.000 A 
ATOM     10  C   UNL     1      -1.884  12.347  23.078  0.00  0.00    +0.000 A 
ATOM     11  C   UNL     1      -2.622  13.267  22.335  0.00  0.00    +0.000 A 
ATOM     12  C   UNL     1      -2.657  13.179  20.942  0.00  0.00    +0.000 A 
ATOM     13  C   UNL     1      -1.953  12.154  20.303  0.00  0.00    +0.000 A 
BRANCH  11  14
ATOM     14  N   UNL     1      -3.372  14.329  23.016  0.00  0.00    +0.000 N 
ATOM     15  O   UNL     1      -3.759  15.289  22.336  0.00  0.00    +0.000 OA
ATOM     16  O   UNL     1      -3.571  14.206  24.232  0.00  0.00    +0.000 OA
ENDBRANCH  11  14
ENDBRANCH   5   8
ENDBRANCH   1   2
BRANCH   1  18
ATOM     17  O   UNL     1       3.396   7.719  17.142  0.00  0.00    +0.000 OA
ATOM     18  C   UNL     1       2.866   7.114  18.082  0.00  0.00    +0.000 C 
ATOM     19  N   UNL     1       3.328   5.858  18.490  0.00  0.00    +0.000 N 
BRANCH  19  20
ATOM     20  C   UNL     1       4.619   5.435  18.058  0.00  0.00    +0.000 A 
ATOM     21  C   UNL     1       4.746   4.767  16.834  0.00  0.00    +0.000 A 
ATOM     22  C   UNL     1       5.998   4.342  16.391  0.00  0.00    +0.000 A 
ATOM     23  C   UNL     1       7.123   4.536  17.191  0.00  0.00    +0.000 A 
ATOM     24  C   UNL     1       7.000   5.168  18.428  0.00  0.00    +0.000 A 
ATOM     25  C   UNL     1       5.756   5.636  18.854  0.00  0.00    +0.000 A 
ENDBRANCH  19  20
BRANCH  19  26
ATOM     26  C   UNL     1       2.529   4.864  19.112  0.00  0.00    +0.000 A 
ATOM     27  C   UNL     1       1.705   4.013  18.368  0.00  0.00    +0.000 A 
ATOM     28  C   UNL     1       0.979   3.007  19.013  0.00  0.00    +0.000 A 
ATOM     29  C   UNL     1       1.043   2.873  20.400  0.00  0.00    +0.000 A 
ATOM     30  C   UNL     1       1.843   3.733  21.149  0.00  0.00    +0.000 A 
ATOM     31  C   UNL     1       2.598   4.713  20.505  0.00  0.00    +0.000 A 
ENDBRANCH  19  26
ENDBRANCH   1  18
TORSDOF 6
ENDMDL
MODEL 2
REMARK VINA RESULT:      -7.6      0.137      1.040
REMARK  Name = 
REMARK  6 active torsions:
REMARK  status: ('A' for Active; 'I' for Inactive)
REMARK    1  A    between atoms: C_2  and  C_3
REMARK    2  A    between atoms: C_3  and  N_4
REMARK    3  A    between atoms: N_7  and  C_8
REMARK    4  A    between atoms: C_11  and  N_12
REMARK    5  A    between atoms: N_19  and  C_20
REMARK    6  A    between atoms: N_19  and  C_26
REMARK                            x       y       z     vdW  Elec       q    Type
REMARK                         _______ _______ _______ _____ _____    ______ ____
ROOT
ATOM      1  C   UNL     1       1.649   7.586  19.076  0.00  0.00    +0.000 C 
ENDROOT
BRANCH   1   2
ATOM      2  N   UNL     1       2.015   8.810  19.850  0.00  0.00    +0.000 NA
ATOM      3  C   UNL     1       1.553  10.075  19.220  0.00  0.00    +0.000 C 
ATOM      4  C   UNL     1       0.023  10.209  19.135  0.00  0.00    +0.000 C 
ATOM      5  N   UNL     1      -0.570  10.118  20.477  0.00  0.00    +0.000 N 
ATOM      6  C   UNL     1      -0.121   8.975  21.296  0.00  0.00    +0.000 C 
ATOM      7  C   UNL     1       1.420   8.775  21.213  0.00  0.00    +0.000 C 
BRANCH   5   8
ATOM      8  C   UNL     1      -1.204  11.201  21.057  0.00  0.00    +0.000 A 
ATOM      9  C   UNL     1      -1.172  11.386  22.450  0.00  0.00    +0.000 A 
ATOM     10  C   UNL     1      -1.861  12.438  23.070  0.00  0.00    +0.000 A 
ATOM     11  C   UNL     1      -2.595  13.332  22.292  0.00  0.00    +0.000 A 
ATOM     12  C   UNL     1      -2.636  13.187  20.904  0.00  0.00    +0.000 A 
ATOM     13  C   UNL     1      -1.942  12.132  20.305  0.00  0.00    +0.000 A 
BRANCH  11  14
ATOM     14  N   UNL     1      -3.335  14.426  22.932  0.00  0.00    +0.000 N 
ATOM     15  O   UNL     1      -3.498  14.371  24.159  0.00  0.00    +0.000 OA
ATOM     16  O   UNL     1      -3.758  15.338  22.210  0.00  0.00    +0.000 OA
ENDBRANCH  11  14
ENDBRANCH   5   8
ENDBRANCH   1   2
BRANCH   1  18
ATOM     17  O   UNL     1       3.292   7.679  17.272  0.00  0.00    +0.000 OA
ATOM     18  C   UNL     1       2.814   7.038  18.217  0.00  0.00    +0.000 C 
ATOM     19  N   UNL     1       3.313   5.779  18.566  0.00  0.00    +0.000 N 
BRANCH  19  20
ATOM     20  C   UNL     1       4.589   5.389  18.064  0.00  0.00    +0.000 A 
ATOM     21  C   UNL     1       4.668   4.739  16.827  0.00  0.00    +0.000 A 
ATOM     22  C   UNL     1       5.905   4.347  16.316  0.00  0.00    +0.000 A 
ATOM     23  C   UNL     1       7.065   4.556  17.061  0.00  0.00    +0.000 A 
ATOM     24  C   UNL     1       6.992   5.171  18.310  0.00  0.00    +0.000 A 
ATOM     25  C   UNL     1       5.761   5.606  18.804  0.00  0.00    +0.000 A 
ENDBRANCH  19  20
BRANCH  19  26
ATOM     26  C   UNL     1       2.559   4.755  19.194  0.00  0.00    +0.000 A 
ATOM     27  C   UNL     1       2.627   4.533  20.573  0.00  0.00    +0.000 A 
ATOM     28  C   UNL     1       1.823   3.553  21.162  0.00  0.00    +0.000 A 
ATOM     29  C   UNL     1       0.980   2.768  20.374  0.00  0.00    +0.000 A 
ATOM     30  C   UNL     1       0.926   2.967  18.997  0.00  0.00    +0.000 A 
ATOM     31  C   UNL     1       1.698   3.969  18.412  0.00  0.00    +0.000 A 
ENDBRANCH  19  26
ENDBRANCH   1  18
TORSDOF 6
ENDMDL
MODEL 3
REMARK VINA RESULT:      -7.5      0.399      1.290
REMARK  Name = 
REMARK  6 active torsions:
REMARK  status: ('A' for Active; 'I' for Inactive)
REMARK    1  A    between atoms: C_2  and  C_3
REMARK    2  A    between atoms: C_3  and  N_4
REMARK    3  A    between atoms: N_7  and  C_8
REMARK    4  A    between atoms: C_11  and  N_12
REMARK    5  A    between atoms: N_19  and  C_20
REMARK    6  A    between atoms: N_19  and  C_26
REMARK                            x       y       z     vdW  Elec       q    Type
REMARK                         _______ _______ _______ _____ _____    ______ ____
ROOT
ATOM      1  C   UNL     1       1.683   7.630  18.995  0.00  0.00    +0.000 C 
ENDROOT
BRANCH   1   2
ATOM      2  N   UNL     1       2.034   8.847  19.785  0.00  0.00    +0.000 NA
ATOM      3  C   UNL     1       1.535  10.113  19.185  0.00  0.00    +0.000 C 
ATOM      4  C   UNL     1       0.001  10.215  19.126  0.00  0.00    +0.000 C 
ATOM      5  N   UNL     1      -0.569  10.086  20.475  0.00  0.00    +0.000 N 
ATOM      6  C   UNL     1      -0.082   8.939  21.266  0.00  0.00    +0.000 C 
ATOM      7  C   UNL     1       1.461   8.774  21.156  0.00  0.00    +0.000 C 
BRANCH   5   8
ATOM      8  C   UNL     1      -1.217  11.145  21.084  0.00  0.00    +0.000 A 
ATOM      9  C   UNL     1      -1.921  12.089  20.316  0.00  0.00    +0.000 A 
ATOM     10  C   UNL     1      -2.531  13.207  20.901  0.00  0.00    +0.000 A 
ATOM     11  C   UNL     1      -2.447  13.394  22.280  0.00  0.00    +0.000 A 
ATOM     12  C   UNL     1      -1.768  12.468  23.075  0.00  0.00    +0.000 A 
ATOM     13  C   UNL     1      -1.167  11.359  22.473  0.00  0.00    +0.000 A 
BRANCH  11  14
ATOM     14  N   UNL     1      -3.065  14.571  22.901  0.00  0.00    +0.000 N 
ATOM     15  O   UNL     1      -2.335  15.540  23.153  0.00  0.00    +0.000 OA
ATOM     16  O   UNL     1      -4.279  14.528  23.141  0.00  0.00    +0.000 OA
ENDBRANCH  11  14
ENDBRANCH   5   8
ENDBRANCH   1   2
BRANCH   1  18
ATOM     17  O   UNL     1       3.392   7.711  17.253  0.00  0.00    +0.000 OA
ATOM     18  C   UNL     1       2.872   7.072  18.176  0.00  0.00    +0.000 C 
ATOM     19  N   UNL     1       3.342   5.804  18.536  0.00  0.00    +0.000 N 
BRANCH  19  20
ATOM     20  C   UNL     1       4.631   5.401  18.079  0.00  0.00    +0.000 A 
ATOM     21  C   UNL     1       5.730   5.522  18.937  0.00  0.00    +0.000 A 
ATOM     22  C   UNL     1       7.000   5.136  18.513  0.00  0.00    +0.000 A 
ATOM     23  C   UNL     1       7.189   4.673  17.211  0.00  0.00    +0.000 A 
ATOM     24  C   UNL     1       6.107   4.582  16.338  0.00  0.00    +0.000 A 
ATOM     25  C   UNL     1       4.826   4.925  16.774  0.00  0.00    +0.000 A 
ENDBRANCH  19  20
BRANCH  19  26
ATOM     26  C   UNL     1       2.552   4.786  19.129  0.00  0.00    +0.000 A 
ATOM     27  C   UNL     1       1.776   3.915  18.357  0.00  0.00    +0.000 A 
ATOM     28  C   UNL     1       1.059   2.887  18.976  0.00  0.00    +0.000 A 
ATOM     29  C   UNL     1       1.082   2.750  20.365  0.00  0.00    +0.000 A 
ATOM     30  C   UNL     1       1.833   3.629  21.141  0.00  0.00    +0.000 A 
ATOM     31  C   UNL     1       2.580   4.632  20.523  0.00  0.00    +0.000 A 
ENDBRANCH  19  26
ENDBRANCH   1  18
TORSDOF 6
ENDMDL
MODEL 4
REMARK VINA RESULT:      -7.5      0.306      1.531
REMARK  Name = 
REMARK  6 active torsions:
REMARK  status: ('A' for Active; 'I' for Inactive)
REMARK    1  A    between atoms: C_2  and  C_3
REMARK    2  A    between atoms: C_3  and  N_4
REMARK    3  A    between atoms: N_7  and  C_8
REMARK    4  A    between atoms: C_11  and  N_12
REMARK    5  A    between atoms: N_19  and  C_20
REMARK    6  A    between atoms: N_19  and  C_26
REMARK                            x       y       z     vdW  Elec       q    Type
REMARK                         _______ _______ _______ _____ _____    ______ ____
ROOT
ATOM      1  C   UNL     1       1.783   7.671  18.576  0.00  0.00    +0.000 C 
ENDROOT
BRANCH   1   2
ATOM      2  N   UNL     1       2.143   8.815  19.465  0.00  0.00    +0.000 NA
ATOM      3  C   UNL     1       1.668  10.132  18.966  0.00  0.00    +0.000 C 
ATOM      4  C   UNL     1       0.136  10.261  18.901  0.00  0.00    +0.000 C 
ATOM      5  N   UNL     1      -0.449  10.032  20.231  0.00  0.00    +0.000 N 
ATOM      6  C   UNL     1       0.014   8.818  20.930  0.00  0.00    +0.000 C 
ATOM      7  C   UNL     1       1.556   8.640  20.821  0.00  0.00    +0.000 C 
BRANCH   5   8
ATOM      8  C   UNL     1      -1.088  11.047  20.918  0.00  0.00    +0.000 A 
ATOM      9  C   UNL     1      -1.877  11.988  20.233  0.00  0.00    +0.000 A 
ATOM     10  C   UNL     1      -2.482  13.065  20.895  0.00  0.00    +0.000 A 
ATOM     11  C   UNL     1      -2.306  13.213  22.270  0.00  0.00    +0.000 A 
ATOM     12  C   UNL     1      -1.542  12.288  22.985  0.00  0.00    +0.000 A 
ATOM     13  C   UNL     1      -0.947  11.221  22.306  0.00  0.00    +0.000 A 
BRANCH  11  14
ATOM     14  N   UNL     1      -2.919  14.347  22.970  0.00  0.00    +0.000 N 
ATOM     15  O   UNL     1      -3.669  15.089  22.320  0.00  0.00    +0.000 OA
ATOM     16  O   UNL     1      -2.649  14.501  24.169  0.00  0.00    +0.000 OA
ENDBRANCH  11  14
ENDBRANCH   5   8
ENDBRANCH   1   2
BRANCH   1  18
ATOM     17  O   UNL     1       3.570   7.598  16.913  0.00  0.00    +0.000 OA
ATOM     18  C   UNL     1       3.007   7.044  17.865  0.00  0.00    +0.000 C 
ATOM     19  N   UNL     1       3.457   5.814  18.358  0.00  0.00    +0.000 N 
BRANCH  19  20
ATOM     20  C   UNL     1       4.765   5.374  17.998  0.00  0.00    +0.000 A 
ATOM     21  C   UNL     1       5.838   5.645  18.855  0.00  0.00    +0.000 A 
ATOM     22  C   UNL     1       7.126   5.226  18.525  0.00  0.00    +0.000 A 
ATOM     23  C   UNL     1       7.358   4.578  17.312  0.00  0.00    +0.000 A 
ATOM     24  C   UNL     1       6.301   4.335  16.436  0.00  0.00    +0.000 A 
ATOM     25  C   UNL     1       5.003   4.712  16.785  0.00  0.00    +0.000 A 
ENDBRANCH  19  20
BRANCH  19  26
ATOM     26  C   UNL     1       2.639   4.852  19.004  0.00  0.00    +0.000 A 
ATOM     27  C   UNL     1       2.556   4.777  20.398  0.00  0.00    +0.000 A 
ATOM     28  C   UNL     1       1.693   3.854  20.996  0.00  0.00    +0.000 A 
ATOM     29  C   UNL     1       0.941   2.981  20.208  0.00  0.00    +0.000 A 
ATOM     30  C   UNL     1       1.038   3.035  18.820  0.00  0.00    +0.000 A 
ATOM     31  C   UNL     1       1.870   3.980  18.220  0.00  0.00    +0.000 A 
ENDBRANCH  19  26
ENDBRANCH   1  18
TORSDOF 6
ENDMDL
MODEL 5
REMARK VINA RESULT:      -7.2      1.306      1.702
REMARK  Name = 
REMARK  6 active torsions:
REMARK  status: ('A' for Active; 'I' for Inactive)
REMARK    1  A    between atoms: C_2  and  C_3
REMARK    2  A    between atoms: C_3  and  N_4
REMARK    3  A    between atoms: N_7  and  C_8
REMARK    4  A    between atoms: C_11  and  N_12
REMARK    5  A    between atoms: N_19  and  C_20
REMARK    6  A    between atoms: N_19  and  C_26
REMARK                            x       y       z     vdW  Elec       q    Type
REMARK                         _______ _______ _______ _____ _____    ______ ____
ROOT
ATOM      1  C   UNL     1       1.827   7.863  20.385  0.00  0.00    +0.000 C 
ENDROOT
BRANCH   1   2
ATOM      2  N   UNL     1       0.434   8.355  20.164  0.00  0.00    +0.000 NA
ATOM      3  C   UNL     1      -0.396   8.374  21.398  0.00  0.00    +0.000 C 
ATOM      4  C   UNL     1       0.109   9.349  22.476  0.00  0.00    +0.000 C 
ATOM      5  N   UNL     1       0.168  10.716  21.936  0.00  0.00    +0.000 N 
ATOM      6  C   UNL     1       0.856  10.860  20.638  0.00  0.00    +0.000 C 
ATOM      7  C   UNL     1       0.439   9.745  19.636  0.00  0.00    +0.000 C 
BRANCH   5   8
ATOM      8  C   UNL     1      -0.664  11.712  22.414  0.00  0.00    +0.000 A 
ATOM      9  C   UNL     1      -1.850  11.387  23.096  0.00  0.00    +0.000 A 
ATOM     10  C   UNL     1      -2.743  12.374  23.532  0.00  0.00    +0.000 A 
ATOM     11  C   UNL     1      -2.456  13.717  23.291  0.00  0.00    +0.000 A 
ATOM     12  C   UNL     1      -1.280  14.077  22.630  0.00  0.00    +0.000 A 
ATOM     13  C   UNL     1      -0.401  13.077  22.203  0.00  0.00    +0.000 A 
BRANCH  11  14
ATOM     14  N   UNL     1      -3.394  14.758  23.727  0.00  0.00    +0.000 N 
ATOM     15  O   UNL     1      -4.566  14.423  23.943  0.00  0.00    +0.000 OA
ATOM     16  O   UNL     1      -2.961  15.912  23.848  0.00  0.00    +0.000 OA
ENDBRANCH  11  14
ENDBRANCH   5   8
ENDBRANCH   1   2
BRANCH   1  18
ATOM     17  O   UNL     1       2.707   8.163  18.127  0.00  0.00    +0.000 OA
ATOM     18  C   UNL     1       2.523   7.399  19.083  0.00  0.00    +0.000 C 
ATOM     19  N   UNL     1       2.947   6.066  19.038  0.00  0.00    +0.000 N 
BRANCH  19  20
ATOM     20  C   UNL     1       3.895   5.686  18.044  0.00  0.00    +0.000 A 
ATOM     21  C   UNL     1       3.699   4.498  17.331  0.00  0.00    +0.000 A 
ATOM     22  C   UNL     1       4.612   4.104  16.354  0.00  0.00    +0.000 A 
ATOM     23  C   UNL     1       5.754   4.869  16.119  0.00  0.00    +0.000 A 
ATOM     24  C   UNL     1       5.976   6.035  16.850  0.00  0.00    +0.000 A 
ATOM     25  C   UNL     1       5.040   6.457  17.796  0.00  0.00    +0.000 A 
ENDBRANCH  19  20
BRANCH  19  26
ATOM     26  C   UNL     1       2.343   5.000  19.754  0.00  0.00    +0.000 A 
ATOM     27  C   UNL     1       1.181   4.373  19.294  0.00  0.00    +0.000 A 
ATOM     28  C   UNL     1       0.650   3.287  19.997  0.00  0.00    +0.000 A 
ATOM     29  C   UNL     1       1.254   2.850  21.177  0.00  0.00    +0.000 A 
ATOM     30  C   UNL     1       2.398   3.486  21.653  0.00  0.00    +0.000 A 
ATOM     31  C   UNL     1       2.951   4.545  20.934  0.00  0.00    +0.000 A 
ENDBRANCH  19  26
ENDBRANCH   1  18
TORSDOF 6
ENDMDL
MODEL 6
REMARK VINA RESULT:      -7.1      1.369      2.004
REMARK  Name = 
REMARK  6 active torsions:
REMARK  status: ('A' for Active; 'I' for Inactive)
REMARK    1  A    between atoms: C_2  and  C_3
REMARK    2  A    between atoms: C_3  and  N_4
REMARK    3  A    between atoms: N_7  and  C_8
REMARK    4  A    between atoms: C_11  and  N_12
REMARK    5  A    between atoms: N_19  and  C_20
REMARK    6  A    between atoms: N_19  and  C_26
REMARK                            x       y       z     vdW  Elec       q    Type
REMARK                         _______ _______ _______ _____ _____    ______ ____
ROOT
ATOM      1  C   UNL     1       1.813   7.893  20.352  0.00  0.00    +0.000 C 
ENDROOT
BRANCH   1   2
ATOM      2  N   UNL     1       0.400   8.352  20.207  0.00  0.00    +0.000 NA
ATOM      3  C   UNL     1      -0.341   8.419  21.494  0.00  0.00    +0.000 C 
ATOM      4  C   UNL     1       0.220   9.453  22.485  0.00  0.00    +0.000 C 
ATOM      5  N   UNL     1       0.215  10.793  21.878  0.00  0.00    +0.000 N 
ATOM      6  C   UNL     1       0.807  10.883  20.529  0.00  0.00    +0.000 C 
ATOM      7  C   UNL     1       0.341   9.714  19.614  0.00  0.00    +0.000 C 
BRANCH   5   8
ATOM      8  C   UNL     1      -0.600  11.798  22.365  0.00  0.00    +0.000 A 
ATOM      9  C   UNL     1      -1.781  11.487  23.060  0.00  0.00    +0.000 A 
ATOM     10  C   UNL     1      -2.659  12.485  23.507  0.00  0.00    +0.000 A 
ATOM     11  C   UNL     1      -2.358  13.824  23.263  0.00  0.00    +0.000 A 
ATOM     12  C   UNL     1      -1.185  14.170  22.588  0.00  0.00    +0.000 A 
ATOM     13  C   UNL     1      -0.324  13.160  22.152  0.00  0.00    +0.000 A 
BRANCH  11  14
ATOM     14  N   UNL     1      -3.279  14.876  23.709  0.00  0.00    +0.000 N 
ATOM     15  O   UNL     1      -3.788  15.601  22.843  0.00  0.00    +0.000 OA
ATOM     16  O   UNL     1      -3.490  14.981  24.925  0.00  0.00    +0.000 OA
ENDBRANCH  11  14
ENDBRANCH   5   8
ENDBRANCH   1   2
BRANCH   1  18
ATOM     17  O   UNL     1       2.570   8.243  18.056  0.00  0.00    +0.000 OA
ATOM     18  C   UNL     1       2.455   7.463  19.010  0.00  0.00    +0.000 C 
ATOM     19  N   UNL     1       2.910   6.142  18.927  0.00  0.00    +0.000 N 
BRANCH  19  20
ATOM     20  C   UNL     1       3.817   5.799  17.881  0.00  0.00    +0.000 A 
ATOM     21  C   UNL     1       4.672   6.781  17.367  0.00  0.00    +0.000 A 
ATOM     22  C   UNL     1       5.566   6.471  16.344  0.00  0.00    +0.000 A 
ATOM     23  C   UNL     1       5.575   5.190  15.792  0.00  0.00    +0.000 A 
ATOM     24  C   UNL     1       4.702   4.216  16.272  0.00  0.00    +0.000 A 
ATOM     25  C   UNL     1       3.838   4.510  17.328  0.00  0.00    +0.000 A 
ENDBRANCH  19  20
BRANCH  19  26
ATOM     26  C   UNL     1       2.372   5.052  19.658  0.00  0.00    +0.000 A 
ATOM     27  C   UNL     1       2.875   4.690  20.912  0.00  0.00    +0.000 A 
ATOM     28  C   UNL     1       2.278   3.647  21.627  0.00  0.00    +0.000 A 
ATOM     29  C   UNL     1       1.207   2.941  21.078  0.00  0.00    +0.000 A 
ATOM     30  C   UNL     1       0.717   3.281  19.819  0.00  0.00    +0.000 A 
ATOM     31  C   UNL     1       1.286   4.345  19.120  0.00  0.00    +0.000 A 
ENDBRANCH  19  26
ENDBRANCH   1  18
TORSDOF 6
ENDMDL
MODEL 7
REMARK VINA RESULT:      -7.1      2.254      4.789
REMARK  Name = 
REMARK  6 active torsions:
REMARK  status: ('A' for Active; 'I' for Inactive)
REMARK    1  A    between atoms: C_2  and  C_3
REMARK    2  A    between atoms: C_3  and  N_4
REMARK    3  A    between atoms: N_7  and  C_8
REMARK    4  A    between atoms: C_11  and  N_12
REMARK    5  A    between atoms: N_19  and  C_20
REMARK    6  A    between atoms: N_19  and  C_26
REMARK                            x       y       z     vdW  Elec       q    Type
REMARK                         _______ _______ _______ _____ _____    ______ ____
ROOT
ATOM      1  C   UNL     1       3.973   4.554  18.557  0.00  0.00    +0.000 C 
ENDROOT
BRANCH   1   2
ATOM      2  N   UNL     1       2.526   4.902  18.432  0.00  0.00    +0.000 NA
ATOM      3  C   UNL     1       1.814   4.971  19.736  0.00  0.00    +0.000 C 
ATOM      4  C   UNL     1       2.320   6.086  20.667  0.00  0.00    +0.000 C 
ATOM      5  N   UNL     1       2.201   7.393  20.005  0.00  0.00    +0.000 N 
ATOM      6  C   UNL     1       2.752   7.468  18.637  0.00  0.00    +0.000 C 
ATOM      7  C   UNL     1       2.352   6.230  17.785  0.00  0.00    +0.000 C 
BRANCH   5   8
ATOM      8  C   UNL     1       1.326   8.357  20.471  0.00  0.00    +0.000 A 
ATOM      9  C   UNL     1       0.912   9.411  19.638  0.00  0.00    +0.000 A 
ATOM     10  C   UNL     1       0.078  10.436  20.105  0.00  0.00    +0.000 A 
ATOM     11  C   UNL     1      -0.361  10.416  21.428  0.00  0.00    +0.000 A 
ATOM     12  C   UNL     1       0.018   9.376  22.280  0.00  0.00    +0.000 A 
ATOM     13  C   UNL     1       0.849   8.363  21.794  0.00  0.00    +0.000 A 
BRANCH  11  14
ATOM     14  N   UNL     1      -1.218  11.495  21.933  0.00  0.00    +0.000 N 
ATOM     15  O   UNL     1      -1.681  12.296  21.110  0.00  0.00    +0.000 OA
ATOM     16  O   UNL     1      -1.427  11.544  23.153  0.00  0.00    +0.000 OA
ENDBRANCH  11  14
ENDBRANCH   5   8
ENDBRANCH   1   2
BRANCH   1  18
ATOM     17  O   UNL     1       4.227   2.940  16.742  0.00  0.00    +0.000 OA
ATOM     18  C   UNL     1       4.585   4.014  17.242  0.00  0.00    +0.000 C 
ATOM     19  N   UNL     1       5.565   4.806  16.634  0.00  0.00    +0.000 N 
BRANCH  19  20
ATOM     20  C   UNL     1       5.895   4.554  15.270  0.00  0.00    +0.000 A 
ATOM     21  C   UNL     1       4.926   4.003  14.423  0.00  0.00    +0.000 A 
ATOM     22  C   UNL     1       5.225   3.746  13.085  0.00  0.00    +0.000 A 
ATOM     23  C   UNL     1       6.509   3.991  12.599  0.00  0.00    +0.000 A 
ATOM     24  C   UNL     1       7.490   4.506  13.445  0.00  0.00    +0.000 A 
ATOM     25  C   UNL     1       7.181   4.808  14.772  0.00  0.00    +0.000 A 
ENDBRANCH  19  20
BRANCH  19  26
ATOM     26  C   UNL     1       6.429   5.696  17.323  0.00  0.00    +0.000 A 
ATOM     27  C   UNL     1       7.268   5.256  18.351  0.00  0.00    +0.000 A 
ATOM     28  C   UNL     1       8.148   6.152  18.965  0.00  0.00    +0.000 A 
ATOM     29  C   UNL     1       8.166   7.494  18.581  0.00  0.00    +0.000 A 
ATOM     30  C   UNL     1       7.315   7.944  17.574  0.00  0.00    +0.000 A 
ATOM     31  C   UNL     1       6.464   7.044  16.935  0.00  0.00    +0.000 A 
ENDBRANCH  19  26
ENDBRANCH   1  18
TORSDOF 6
ENDMDL
MODEL 8
REMARK VINA RESULT:      -7.1      0.960      1.221
REMARK  Name = 
REMARK  6 active torsions:
REMARK  status: ('A' for Active; 'I' for Inactive)
REMARK    1  A    between atoms: C_2  and  C_3
REMARK    2  A    between atoms: C_3  and  N_4
REMARK    3  A    between atoms: N_7  and  C_8
REMARK    4  A    between atoms: C_11  and  N_12
REMARK    5  A    between atoms: N_19  and  C_20
REMARK    6  A    between atoms: N_19  and  C_26
REMARK                            x       y       z     vdW  Elec       q    Type
REMARK                         _______ _______ _______ _____ _____    ______ ____
ROOT
ATOM      1  C   UNL     1       1.652   7.820  18.614  0.00  0.00    +0.000 C 
ENDROOT
BRANCH   1   2
ATOM      2  N   UNL     1       1.956   9.107  19.307  0.00  0.00    +0.000 NA
ATOM      3  C   UNL     1       1.518  10.310  18.551  0.00  0.00    +0.000 C 
ATOM      4  C   UNL     1      -0.005  10.412  18.364  0.00  0.00    +0.000 C 
ATOM      5  N   UNL     1      -0.678  10.417  19.671  0.00  0.00    +0.000 N 
ATOM      6  C   UNL     1      -0.266   9.351  20.605  0.00  0.00    +0.000 C 
ATOM      7  C   UNL     1       1.279   9.171  20.631  0.00  0.00    +0.000 C 
BRANCH   5   8
ATOM      8  C   UNL     1      -1.359  11.533  20.123  0.00  0.00    +0.000 A 
ATOM      9  C   UNL     1      -2.663  11.804  19.675  0.00  0.00    +0.000 A 
ATOM     10  C   UNL     1      -3.351  12.961  20.066  0.00  0.00    +0.000 A 
ATOM     11  C   UNL     1      -2.735  13.871  20.924  0.00  0.00    +0.000 A 
ATOM     12  C   UNL     1      -1.445  13.626  21.400  0.00  0.00    +0.000 A 
ATOM     13  C   UNL     1      -0.777  12.466  21.000  0.00  0.00    +0.000 A 
BRANCH  11  14
ATOM     14  N   UNL     1      -3.438  15.095  21.324  0.00  0.00    +0.000 N 
ATOM     15  O   UNL     1      -4.576  15.280  20.870  0.00  0.00    +0.000 OA
ATOM     16  O   UNL     1      -2.853  15.875  22.087  0.00  0.00    +0.000 OA
ENDBRANCH  11  14
ENDBRANCH   5   8
ENDBRANCH   1   2
BRANCH   1  18
ATOM     17  O   UNL     1       3.447   7.835  16.958  0.00  0.00    +0.000 OA
ATOM     18  C   UNL     1       2.874   7.227  17.870  0.00  0.00    +0.000 C 
ATOM     19  N   UNL     1       3.309   5.964  18.286  0.00  0.00    +0.000 N 
BRANCH  19  20
ATOM     20  C   UNL     1       4.614   5.534  17.905  0.00  0.00    +0.000 A 
ATOM     21  C   UNL     1       4.790   4.893  16.672  0.00  0.00    +0.000 A 
ATOM     22  C   UNL     1       6.056   4.462  16.278  0.00  0.00    +0.000 A 
ATOM     23  C   UNL     1       7.145   4.623  17.134  0.00  0.00    +0.000 A 
ATOM     24  C   UNL     1       6.972   5.227  18.378  0.00  0.00    +0.000 A 
ATOM     25  C   UNL     1       5.715   5.702  18.757  0.00  0.00    +0.000 A 
ENDBRANCH  19  20
BRANCH  19  26
ATOM     26  C   UNL     1       2.478   4.971  18.866  0.00  0.00    +0.000 A 
ATOM     27  C   UNL     1       1.691   4.122  18.081  0.00  0.00    +0.000 A 
ATOM     28  C   UNL     1       0.931   3.117  18.687  0.00  0.00    +0.000 A 
ATOM     29  C   UNL     1       0.924   2.982  20.076  0.00  0.00    +0.000 A 
ATOM     30  C   UNL     1       1.686   3.840  20.865  0.00  0.00    +0.000 A 
ATOM     31  C   UNL     1       2.475   4.819  20.261  0.00  0.00    +0.000 A 
ENDBRANCH  19  26
ENDBRANCH   1  18
TORSDOF 6
ENDMDL
MODEL 9
REMARK VINA RESULT:      -7.1      1.084      1.497
REMARK  Name = 
REMARK  6 active torsions:
REMARK  status: ('A' for Active; 'I' for Inactive)
REMARK    1  A    between atoms: C_2  and  C_3
REMARK    2  A    between atoms: C_3  and  N_4
REMARK    3  A    between atoms: N_7  and  C_8
REMARK    4  A    between atoms: C_11  and  N_12
REMARK    5  A    between atoms: N_19  and  C_20
REMARK    6  A    between atoms: N_19  and  C_26
REMARK                            x       y       z     vdW  Elec       q    Type
REMARK                         _______ _______ _______ _____ _____    ______ ____
ROOT
ATOM      1  C   UNL     1       1.485   7.661  19.725  0.00  0.00    +0.000 C 
ENDROOT
BRANCH   1   2
ATOM      2  N   UNL     1       1.996   8.814  20.524  0.00  0.00    +0.000 NA
ATOM      3  C   UNL     1       1.610  10.140  19.973  0.00  0.00    +0.000 C 
ATOM      4  C   UNL     1       0.094  10.404  19.985  0.00  0.00    +0.000 C 
ATOM      5  N   UNL     1      -0.429  10.302  21.355  0.00  0.00    +0.000 N 
ATOM      6  C   UNL     1      -0.033   9.090  22.100  0.00  0.00    +0.000 C 
ATOM      7  C   UNL     1       1.478   8.767  21.917  0.00  0.00    +0.000 C 
BRANCH   5   8
ATOM      8  C   UNL     1      -0.935  11.407  22.015  0.00  0.00    +0.000 A 
ATOM      9  C   UNL     1      -0.349  12.673  21.841  0.00  0.00    +0.000 A 
ATOM     10  C   UNL     1      -0.800  13.797  22.547  0.00  0.00    +0.000 A 
ATOM     11  C   UNL     1      -1.859  13.666  23.444  0.00  0.00    +0.000 A 
ATOM     12  C   UNL     1      -2.474  12.426  23.631  0.00  0.00    +0.000 A 
ATOM     13  C   UNL     1      -2.010  11.318  22.916  0.00  0.00    +0.000 A 
BRANCH  11  14
ATOM     14  N   UNL     1      -2.326  14.832  24.203  0.00  0.00    +0.000 N 
ATOM     15  O   UNL     1      -1.941  15.951  23.835  0.00  0.00    +0.000 OA
ATOM     16  O   UNL     1      -3.073  14.631  25.169  0.00  0.00    +0.000 OA
ENDBRANCH  11  14
ENDBRANCH   5   8
ENDBRANCH   1   2
BRANCH   1  18
ATOM     17  O   UNL     1       2.871   7.791  17.718  0.00  0.00    +0.000 OA
ATOM     18  C   UNL     1       2.514   7.127  18.699  0.00  0.00    +0.000 C 
ATOM     19  N   UNL     1       3.034   5.850  18.939  0.00  0.00    +0.000 N 
BRANCH  19  20
ATOM     20  C   UNL     1       4.225   5.461  18.257  0.00  0.00    +0.000 A 
ATOM     21  C   UNL     1       5.468   5.757  18.828  0.00  0.00    +0.000 A 
ATOM     22  C   UNL     1       6.646   5.388  18.180  0.00  0.00    +0.000 A 
ATOM     23  C   UNL     1       6.589   4.766  16.933  0.00  0.00    +0.000 A 
ATOM     24  C   UNL     1       5.356   4.500  16.340  0.00  0.00    +0.000 A 
ATOM     25  C   UNL     1       4.174   4.826  17.007  0.00  0.00    +0.000 A 
ENDBRANCH  19  20
BRANCH  19  26
ATOM     26  C   UNL     1       2.354   4.815  19.631  0.00  0.00    +0.000 A 
ATOM     27  C   UNL     1       1.372   4.039  19.009  0.00  0.00    +0.000 A 
ATOM     28  C   UNL     1       0.768   2.989  19.708  0.00  0.00    +0.000 A 
ATOM     29  C   UNL     1       1.113   2.738  21.037  0.00  0.00    +0.000 A 
ATOM     30  C   UNL     1       2.073   3.524  21.669  0.00  0.00    +0.000 A 
ATOM     31  C   UNL     1       2.705   4.547  20.963  0.00  0.00    +0.000 A 
ENDBRANCH  19  26
ENDBRANCH   1  18
TORSDOF 6
ENDMDL
