MODEL 1
REMARK VINA RESULT:      -8.6      0.000      0.000
REMARK  Name = 
REMARK  8 active torsions:
REMARK  status: ('A' for Active; 'I' for Inactive)
REMARK    1  A    between atoms: C_1  and  C_2
REMARK    2  A    between atoms: C_2  and  C_3
REMARK    3  A    between atoms: C_2  and  C_4
REMARK    4  A    between atoms: C_2  and  C_5
REMARK    5  A    between atoms: C_7  and  C_8
REMARK    6  A    between atoms: N_10  and  C_11
REMARK    7  A    between atoms: N_19  and  C_20
REMARK    8  A    between atoms: C_20  and  C_21
REMARK                            x       y       z     vdW  Elec       q    Type
REMARK                         _______ _______ _______ _____ _____    ______ ____
ROOT
ATOM      1  C   UNL     1       3.218   3.672  19.031  0.00  0.00    +0.000 A 
ATOM      2  C   UNL     1       4.565   3.675  19.429  0.00  0.00    +0.000 A 
ATOM      3  C   UNL     1       5.144   4.824  18.902  0.00  0.00    +0.000 A 
ATOM      4  N   UNL     1       4.073   5.524  18.391  0.00  0.00    +0.000 N 
ATOM      5  N   UNL     1       2.911   4.828  18.422  0.00  0.00    +0.000 NA
ENDROOT
BRANCH   1   7
ATOM      6  C   UNL     1       0.859   2.901  18.466  0.00  0.00    +0.000 C 
ATOM      7  C   UNL     1       2.166   2.595  19.235  0.00  0.00    +0.000 C 
ATOM      8  C   UNL     1       1.802   2.467  20.728  0.00  0.00    +0.000 C 
ATOM      9  C   UNL     1       2.712   1.247  18.727  0.00  0.00    +0.000 C 
ENDBRANCH   1   7
BRANCH   3  10
ATOM     10  C   UNL     1       6.520   5.272  18.895  0.00  0.00    +0.000 C 
ATOM     11  O   UNL     1       7.109   5.635  19.910  0.00  0.00    +0.000 OA
ATOM     12  N   UNL     1       7.252   5.211  17.715  0.00  0.00    +0.000 N 
ATOM     13  H   UNL     1       8.247   5.139  17.894  0.00  0.00    +0.000 HD
BRANCH  12  14
ATOM     14  C   UNL     1       6.772   4.859  16.447  0.00  0.00    +0.000 A 
ATOM     15  C   UNL     1       5.812   3.853  16.287  0.00  0.00    +0.000 A 
ATOM     16  C   UNL     1       5.513   3.370  15.012  0.00  0.00    +0.000 A 
ATOM     17  C   UNL     1       6.167   3.899  13.897  0.00  0.00    +0.000 A 
ATOM     18 BR   UNL     1       5.777   3.121  12.209  0.00  0.00    +0.000 Br
ATOM     19  C   UNL     1       7.092   4.942  14.053  0.00  0.00    +0.000 A 
ATOM     20 CL   UNL     1       7.984   5.603  12.731  0.00  0.00    +0.000 Cl
ATOM     21  C   UNL     1       7.369   5.442  15.330  0.00  0.00    +0.000 A 
ENDBRANCH  12  14
ENDBRANCH   3  10
BRANCH   4  22
ATOM     22  C   UNL     1       4.066   6.875  17.839  0.00  0.00    +0.000 C 
BRANCH  22  23
ATOM     23  C   UNL     1       2.938   7.711  18.395  0.00  0.00    +0.000 A 
ATOM     24  C   UNL     1       2.351   8.724  17.621  0.00  0.00    +0.000 A 
ATOM     25  C   UNL     1       1.332   9.519  18.146  0.00  0.00    +0.000 A 
ATOM     26  C   UNL     1       0.874   9.299  19.443  0.00  0.00    +0.000 A 
ATOM     27  C   UNL     1       1.423   8.273  20.209  0.00  0.00    +0.000 A 
ATOM     28  C   UNL     1       2.450   7.481  19.689  0.00  0.00    +0.000 A 
ENDBRANCH  22  23
ENDBRANCH   4  22
TORSDOF 5
ENDMDL
MODEL 2
REMARK VINA RESULT:      -8.5      0.096      1.260
REMARK  Name = 
REMARK  8 active torsions:
REMARK  status: ('A' for Active; 'I' for Inactive)
REMARK    1  A    between atoms: C_1  and  C_2
REMARK    2  A    between atoms: C_2  and  C_3
REMARK    3  A    between atoms: C_2  and  C_4
REMARK    4  A    between atoms: C_2  and  C_5
REMARK    5  A    between atoms: C_7  and  C_8
REMARK    6  A    between atoms: N_10  and  C_11
REMARK    7  A    between atoms: N_19  and  C_20
REMARK    8  A    between atoms: C_20  and  C_21
REMARK                            x       y       z     vdW  Elec       q    Type
REMARK                         _______ _______ _______ _____ _____    ______ ____
ROOT
ATOM      1  C   UNL     1       3.128   3.732  19.015  0.00  0.00    +0.000 A 
ATOM      2  C   UNL     1       4.472   3.707  19.423  0.00  0.00    +0.000 A 
ATOM      3  C   UNL     1       5.079   4.843  18.901  0.00  0.00    +0.000 A 
ATOM      4  N   UNL     1       4.026   5.567  18.383  0.00  0.00    +0.000 N 
ATOM      5  N   UNL     1       2.850   4.895  18.404  0.00  0.00    +0.000 NA
ENDROOT
BRANCH   1   7
ATOM      6  C   UNL     1       1.707   2.462  20.702  0.00  0.00    +0.000 C 
ATOM      7  C   UNL     1       2.053   2.676  19.209  0.00  0.00    +0.000 C 
ATOM      8  C   UNL     1       2.517   1.318  18.645  0.00  0.00    +0.000 C 
ATOM      9  C   UNL     1       0.768   3.118  18.482  0.00  0.00    +0.000 C 
ENDBRANCH   1   7
BRANCH   3  10
ATOM     10  C   UNL     1       6.464   5.263  18.906  0.00  0.00    +0.000 C 
ATOM     11  O   UNL     1       7.052   5.611  19.926  0.00  0.00    +0.000 OA
ATOM     12  N   UNL     1       7.203   5.189  17.731  0.00  0.00    +0.000 N 
ATOM     13  H   UNL     1       8.194   5.097  17.917  0.00  0.00    +0.000 HD
BRANCH  12  14
ATOM     14  C   UNL     1       6.725   4.850  16.458  0.00  0.00    +0.000 A 
ATOM     15  C   UNL     1       5.741   3.869  16.290  0.00  0.00    +0.000 A 
ATOM     16  C   UNL     1       5.441   3.394  15.012  0.00  0.00    +0.000 A 
ATOM     17  C   UNL     1       6.117   3.907  13.903  0.00  0.00    +0.000 A 
ATOM     18 BR   UNL     1       5.723   3.141  12.211  0.00  0.00    +0.000 Br
ATOM     19  C   UNL     1       7.067   4.927  14.068  0.00  0.00    +0.000 A 
ATOM     20 CL   UNL     1       7.986   5.566  12.753  0.00  0.00    +0.000 Cl
ATOM     21  C   UNL     1       7.345   5.419  15.347  0.00  0.00    +0.000 A 
ENDBRANCH  12  14
ENDBRANCH   3  10
BRANCH   4  22
ATOM     22  C   UNL     1       4.051   6.918  17.833  0.00  0.00    +0.000 C 
BRANCH  22  23
ATOM     23  C   UNL     1       2.933   7.775  18.377  0.00  0.00    +0.000 A 
ATOM     24  C   UNL     1       2.448   7.574  19.678  0.00  0.00    +0.000 A 
ATOM     25  C   UNL     1       1.392   8.342  20.169  0.00  0.00    +0.000 A 
ATOM     26  C   UNL     1       0.823   9.334  19.374  0.00  0.00    +0.000 A 
ATOM     27  C   UNL     1       1.320   9.569  18.094  0.00  0.00    +0.000 A 
ATOM     28  C   UNL     1       2.371   8.794  17.596  0.00  0.00    +0.000 A 
ENDBRANCH  22  23
ENDBRANCH   4  22
TORSDOF 5
ENDMDL
MODEL 3
REMARK VINA RESULT:      -7.7      6.871     10.575
REMARK  Name = 
REMARK  8 active torsions:
REMARK  status: ('A' for Active; 'I' for Inactive)
REMARK    1  A    between atoms: C_1  and  C_2
REMARK    2  A    between atoms: C_2  and  C_3
REMARK    3  A    between atoms: C_2  and  C_4
REMARK    4  A    between atoms: C_2  and  C_5
REMARK    5  A    between atoms: C_7  and  C_8
REMARK    6  A    between atoms: N_10  and  C_11
REMARK    7  A    between atoms: N_19  and  C_20
REMARK    8  A    between atoms: C_20  and  C_21
REMARK                            x       y       z     vdW  Elec       q    Type
REMARK                         _______ _______ _______ _____ _____    ______ ____
ROOT
ATOM      1  C   UNL     1      -1.771  11.054  18.322  0.00  0.00    +0.000 A 
ATOM      2  C   UNL     1      -0.969  12.200  18.451  0.00  0.00    +0.000 A 
ATOM      3  C   UNL     1      -0.025  11.931  19.435  0.00  0.00    +0.000 A 
ATOM      4  N   UNL     1      -0.198  10.588  19.694  0.00  0.00    +0.000 N 
ATOM      5  N   UNL     1      -1.272  10.053  19.065  0.00  0.00    +0.000 NA
ENDROOT
BRANCH   1   7
ATOM      6  C   UNL     1      -4.161  11.810  17.885  0.00  0.00    +0.000 C 
ATOM      7  C   UNL     1      -3.017  10.852  17.477  0.00  0.00    +0.000 C 
ATOM      8  C   UNL     1      -3.548   9.411  17.627  0.00  0.00    +0.000 C 
ATOM      9  C   UNL     1      -2.678  11.118  15.998  0.00  0.00    +0.000 C 
ENDBRANCH   1   7
BRANCH   3  10
ATOM     10  C   UNL     1       0.967  12.783  20.054  0.00  0.00    +0.000 C 
ATOM     11  O   UNL     1       2.102  12.920  19.606  0.00  0.00    +0.000 OA
ATOM     12  N   UNL     1       0.611  13.559  21.151  0.00  0.00    +0.000 N 
ATOM     13  H   UNL     1       1.198  14.380  21.235  0.00  0.00    +0.000 HD
BRANCH  12  14
ATOM     14  C   UNL     1      -0.612  13.536  21.834  0.00  0.00    +0.000 A 
ATOM     15  C   UNL     1      -0.946  12.479  22.688  0.00  0.00    +0.000 A 
ATOM     16  C   UNL     1      -2.247  12.365  23.182  0.00  0.00    +0.000 A 
ATOM     17  C   UNL     1      -3.210  13.314  22.829  0.00  0.00    +0.000 A 
ATOM     18 BR   UNL     1      -4.979  13.037  23.461  0.00  0.00    +0.000 Br
ATOM     19  C   UNL     1      -2.860  14.402  22.015  0.00  0.00    +0.000 A 
ATOM     20 CL   UNL     1      -4.008  15.579  21.488  0.00  0.00    +0.000 Cl
ATOM     21  C   UNL     1      -1.548  14.526  21.544  0.00  0.00    +0.000 A 
ENDBRANCH  12  14
ENDBRANCH   3  10
BRANCH   4  22
ATOM     22  C   UNL     1       0.617   9.726  20.544  0.00  0.00    +0.000 C 
BRANCH  22  23
ATOM     23  C   UNL     1       1.444   8.751  19.741  0.00  0.00    +0.000 A 
ATOM     24  C   UNL     1       1.857   9.070  18.438  0.00  0.00    +0.000 A 
ATOM     25  C   UNL     1       2.593   8.156  17.682  0.00  0.00    +0.000 A 
ATOM     26  C   UNL     1       2.941   6.923  18.226  0.00  0.00    +0.000 A 
ATOM     27  C   UNL     1       2.569   6.609  19.531  0.00  0.00    +0.000 A 
ATOM     28  C   UNL     1       1.824   7.517  20.287  0.00  0.00    +0.000 A 
ENDBRANCH  22  23
ENDBRANCH   4  22
TORSDOF 5
ENDMDL
MODEL 4
REMARK VINA RESULT:      -7.7      6.940     10.633
REMARK  Name = 
REMARK  8 active torsions:
REMARK  status: ('A' for Active; 'I' for Inactive)
REMARK    1  A    between atoms: C_1  and  C_2
REMARK    2  A    between atoms: C_2  and  C_3
REMARK    3  A    between atoms: C_2  and  C_4
REMARK    4  A    between atoms: C_2  and  C_5
REMARK    5  A    between atoms: C_7  and  C_8
REMARK    6  A    between atoms: N_10  and  C_11
REMARK    7  A    between atoms: N_19  and  C_20
REMARK    8  A    between atoms: C_20  and  C_21
REMARK                            x       y       z     vdW  Elec       q    Type
REMARK                         _______ _______ _______ _____ _____    ______ ____
ROOT
ATOM      1  C   UNL     1      -1.924  11.180  17.995  0.00  0.00    +0.000 A 
ATOM      2  C   UNL     1      -1.174  12.366  17.921  0.00  0.00    +0.000 A 
ATOM      3  C   UNL     1      -0.182  12.283  18.891  0.00  0.00    +0.000 A 
ATOM      4  N   UNL     1      -0.279  10.986  19.347  0.00  0.00    +0.000 N 
ATOM      5  N   UNL     1      -1.349  10.320  18.850  0.00  0.00    +0.000 NA
ENDROOT
BRANCH   1   7
ATOM      6  C   UNL     1      -2.999  10.867  15.709  0.00  0.00    +0.000 C 
ATOM      7  C   UNL     1      -3.190  10.804  17.244  0.00  0.00    +0.000 C 
ATOM      8  C   UNL     1      -4.341  11.765  17.604  0.00  0.00    +0.000 C 
ATOM      9  C   UNL     1      -3.593   9.364  17.614  0.00  0.00    +0.000 C 
ENDBRANCH   1   7
BRANCH   3  10
ATOM     10  C   UNL     1       0.790  13.258  19.335  0.00  0.00    +0.000 C 
ATOM     11  O   UNL     1       1.840  13.475  18.736  0.00  0.00    +0.000 OA
ATOM     12  N   UNL     1       0.501  14.058  20.435  0.00  0.00    +0.000 N 
ATOM     13  H   UNL     1       1.009  14.934  20.405  0.00  0.00    +0.000 HD
BRANCH  12  14
ATOM     14  C   UNL     1      -0.617  13.959  21.274  0.00  0.00    +0.000 A 
ATOM     15  C   UNL     1      -0.610  13.123  22.396  0.00  0.00    +0.000 A 
ATOM     16  C   UNL     1      -1.797  12.872  23.087  0.00  0.00    +0.000 A 
ATOM     17  C   UNL     1      -2.988  13.464  22.660  0.00  0.00    +0.000 A 
ATOM     18 BR   UNL     1      -4.576  12.995  23.590  0.00  0.00    +0.000 Br
ATOM     19  C   UNL     1      -2.984  14.341  21.565  0.00  0.00    +0.000 A 
ATOM     20 CL   UNL     1      -4.425  15.060  20.942  0.00  0.00    +0.000 Cl
ATOM     21  C   UNL     1      -1.788  14.611  20.892  0.00  0.00    +0.000 A 
ENDBRANCH  12  14
ENDBRANCH   3  10
BRANCH   4  22
ATOM     22  C   UNL     1       0.608  10.293  20.276  0.00  0.00    +0.000 C 
BRANCH  22  23
ATOM     23  C   UNL     1       1.368   9.172  19.607  0.00  0.00    +0.000 A 
ATOM     24  C   UNL     1       1.824   9.307  18.287  0.00  0.00    +0.000 A 
ATOM     25  C   UNL     1       2.496   8.259  17.656  0.00  0.00    +0.000 A 
ATOM     26  C   UNL     1       2.739   7.073  18.345  0.00  0.00    +0.000 A 
ATOM     27  C   UNL     1       2.325   6.941  19.668  0.00  0.00    +0.000 A 
ATOM     28  C   UNL     1       1.643   7.984  20.298  0.00  0.00    +0.000 A 
ENDBRANCH  22  23
ENDBRANCH   4  22
TORSDOF 5
ENDMDL
MODEL 5
REMARK VINA RESULT:      -7.6      6.893     10.389
REMARK  Name = 
REMARK  8 active torsions:
REMARK  status: ('A' for Active; 'I' for Inactive)
REMARK    1  A    between atoms: C_1  and  C_2
REMARK    2  A    between atoms: C_2  and  C_3
REMARK    3  A    between atoms: C_2  and  C_4
REMARK    4  A    between atoms: C_2  and  C_5
REMARK    5  A    between atoms: C_7  and  C_8
REMARK    6  A    between atoms: N_10  and  C_11
REMARK    7  A    between atoms: N_19  and  C_20
REMARK    8  A    between atoms: C_20  and  C_21
REMARK                            x       y       z     vdW  Elec       q    Type
REMARK                         _______ _______ _______ _____ _____    ______ ____
ROOT
ATOM      1  C   UNL     1      -2.226  11.248  18.347  0.00  0.00    +0.000 A 
ATOM      2  C   UNL     1      -2.166  12.018  19.521  0.00  0.00    +0.000 A 
ATOM      3  C   UNL     1      -0.859  11.949  19.989  0.00  0.00    +0.000 A 
ATOM      4  N   UNL     1      -0.182  11.309  18.973  0.00  0.00    +0.000 N 
ATOM      5  N   UNL     1      -0.996  10.841  17.996  0.00  0.00    +0.000 NA
ENDROOT
BRANCH   1   7
ATOM      6  C   UNL     1      -4.671  11.754  17.856  0.00  0.00    +0.000 C 
ATOM      7  C   UNL     1      -3.436  10.891  17.502  0.00  0.00    +0.000 C 
ATOM      8  C   UNL     1      -3.831   9.415  17.714  0.00  0.00    +0.000 C 
ATOM      9  C   UNL     1      -3.106  11.122  16.015  0.00  0.00    +0.000 C 
ENDBRANCH   1   7
BRANCH   3  10
ATOM     10  C   UNL     1      -0.263  12.448  21.209  0.00  0.00    +0.000 C 
ATOM     11  O   UNL     1      -0.191  11.781  22.238  0.00  0.00    +0.000 OA
ATOM     12  N   UNL     1       0.339  13.701  21.212  0.00  0.00    +0.000 N 
ATOM     13  H   UNL     1       1.051  13.773  21.929  0.00  0.00    +0.000 HD
BRANCH  12  14
ATOM     14  C   UNL     1       0.345  14.632  20.165  0.00  0.00    +0.000 A 
ATOM     15  C   UNL     1       1.479  14.820  19.366  0.00  0.00    +0.000 A 
ATOM     16  C   UNL     1       1.538  15.897  18.480  0.00  0.00    +0.000 A 
ATOM     17  C   UNL     1       0.459  16.780  18.386  0.00  0.00    +0.000 A 
ATOM     18 BR   UNL     1       0.656  18.274  17.231  0.00  0.00    +0.000 Br
ATOM     19  C   UNL     1      -0.697  16.561  19.150  0.00  0.00    +0.000 A 
ATOM     20 CL   UNL     1      -2.043  17.642  19.133  0.00  0.00    +0.000 Cl
ATOM     21  C   UNL     1      -0.763  15.465  20.017  0.00  0.00    +0.000 A 
ENDBRANCH  12  14
ENDBRANCH   3  10
BRANCH   4  22
ATOM     22  C   UNL     1       1.255  11.086  18.854  0.00  0.00    +0.000 C 
BRANCH  22  23
ATOM     23  C   UNL     1       1.620   9.628  19.005  0.00  0.00    +0.000 A 
ATOM     24  C   UNL     1       1.358   8.948  20.203  0.00  0.00    +0.000 A 
ATOM     25  C   UNL     1       1.726   7.610  20.356  0.00  0.00    +0.000 A 
ATOM     26  C   UNL     1       2.340   6.932  19.306  0.00  0.00    +0.000 A 
ATOM     27  C   UNL     1       2.571   7.586  18.098  0.00  0.00    +0.000 A 
ATOM     28  C   UNL     1       2.213   8.927  17.946  0.00  0.00    +0.000 A 
ENDBRANCH  22  23
ENDBRANCH   4  22
TORSDOF 5
ENDMDL
MODEL 6
REMARK VINA RESULT:      -7.6      6.578      9.988
REMARK  Name = 
REMARK  8 active torsions:
REMARK  status: ('A' for Active; 'I' for Inactive)
REMARK    1  A    between atoms: C_1  and  C_2
REMARK    2  A    between atoms: C_2  and  C_3
REMARK    3  A    between atoms: C_2  and  C_4
REMARK    4  A    between atoms: C_2  and  C_5
REMARK    5  A    between atoms: C_7  and  C_8
REMARK    6  A    between atoms: N_10  and  C_11
REMARK    7  A    between atoms: N_19  and  C_20
REMARK    8  A    between atoms: C_20  and  C_21
REMARK                            x       y       z     vdW  Elec       q    Type
REMARK                         _______ _______ _______ _____ _____    ______ ____
ROOT
ATOM      1  C   UNL     1      -1.909  10.756  18.197  0.00  0.00    +0.000 A 
ATOM      2  C   UNL     1      -1.830  11.490  19.392  0.00  0.00    +0.000 A 
ATOM      3  C   UNL     1      -0.532  11.351  19.871  0.00  0.00    +0.000 A 
ATOM      4  N   UNL     1       0.128  10.710  18.845  0.00  0.00    +0.000 N 
ATOM      5  N   UNL     1      -0.694  10.306  17.847  0.00  0.00    +0.000 NA
ENDROOT
BRANCH   1   7
ATOM      6  C   UNL     1      -4.115  11.664  17.310  0.00  0.00    +0.000 C 
ATOM      7  C   UNL     1      -3.124  10.476  17.329  0.00  0.00    +0.000 C 
ATOM      8  C   UNL     1      -3.893   9.244  17.852  0.00  0.00    +0.000 C 
ATOM      9  C   UNL     1      -2.667  10.214  15.881  0.00  0.00    +0.000 C 
ENDBRANCH   1   7
BRANCH   3  10
ATOM     10  C   UNL     1       0.070  11.790  21.111  0.00  0.00    +0.000 C 
ATOM     11  O   UNL     1       0.227  11.047  22.077  0.00  0.00    +0.000 OA
ATOM     12  N   UNL     1       0.580  13.080  21.204  0.00  0.00    +0.000 N 
ATOM     13  H   UNL     1       1.311  13.144  21.902  0.00  0.00    +0.000 HD
BRANCH  12  14
ATOM     14  C   UNL     1       0.482  14.092  20.240  0.00  0.00    +0.000 A 
ATOM     15  C   UNL     1       1.535  14.361  19.359  0.00  0.00    +0.000 A 
ATOM     16  C   UNL     1       1.503  15.507  18.562  0.00  0.00    +0.000 A 
ATOM     17  C   UNL     1       0.414  16.378  18.640  0.00  0.00    +0.000 A 
ATOM     18 BR   UNL     1       0.491  17.964  17.599  0.00  0.00    +0.000 Br
ATOM     19  C   UNL     1      -0.665  16.081  19.487  0.00  0.00    +0.000 A 
ATOM     20 CL   UNL     1      -2.015  17.140  19.683  0.00  0.00    +0.000 Cl
ATOM     21  C   UNL     1      -0.641  14.918  20.264  0.00  0.00    +0.000 A 
ENDBRANCH  12  14
ENDBRANCH   3  10
BRANCH   4  22
ATOM     22  C   UNL     1       1.556  10.429  18.735  0.00  0.00    +0.000 C 
BRANCH  22  23
ATOM     23  C   UNL     1       1.866   8.968  18.957  0.00  0.00    +0.000 A 
ATOM     24  C   UNL     1       2.459   8.202  17.942  0.00  0.00    +0.000 A 
ATOM     25  C   UNL     1       2.715   6.844  18.134  0.00  0.00    +0.000 A 
ATOM     26  C   UNL     1       2.400   6.241  19.349  0.00  0.00    +0.000 A 
ATOM     27  C   UNL     1       1.846   6.999  20.378  0.00  0.00    +0.000 A 
ATOM     28  C   UNL     1       1.579   8.356  20.185  0.00  0.00    +0.000 A 
ENDBRANCH  22  23
ENDBRANCH   4  22
TORSDOF 5
ENDMDL
MODEL 7
REMARK VINA RESULT:      -7.6      6.964     10.726
REMARK  Name = 
REMARK  8 active torsions:
REMARK  status: ('A' for Active; 'I' for Inactive)
REMARK    1  A    between atoms: C_1  and  C_2
REMARK    2  A    between atoms: C_2  and  C_3
REMARK    3  A    between atoms: C_2  and  C_4
REMARK    4  A    between atoms: C_2  and  C_5
REMARK    5  A    between atoms: C_7  and  C_8
REMARK    6  A    between atoms: N_10  and  C_11
REMARK    7  A    between atoms: N_19  and  C_20
REMARK    8  A    between atoms: C_20  and  C_21
REMARK                            x       y       z     vdW  Elec       q    Type
REMARK                         _______ _______ _______ _____ _____    ______ ____
ROOT
ATOM      1  C   UNL     1      -1.918  11.225  18.029  0.00  0.00    +0.000 A 
ATOM      2  C   UNL     1      -1.190  12.422  17.930  0.00  0.00    +0.000 A 
ATOM      3  C   UNL     1      -0.179  12.366  18.882  0.00  0.00    +0.000 A 
ATOM      4  N   UNL     1      -0.246  11.072  19.353  0.00  0.00    +0.000 N 
ATOM      5  N   UNL     1      -1.313  10.383  18.883  0.00  0.00    +0.000 NA
ENDROOT
BRANCH   1   7
ATOM      6  C   UNL     1      -3.601   9.360  17.615  0.00  0.00    +0.000 C 
ATOM      7  C   UNL     1      -3.191  10.820  17.306  0.00  0.00    +0.000 C 
ATOM      8  C   UNL     1      -3.007  10.932  15.778  0.00  0.00    +0.000 C 
ATOM      9  C   UNL     1      -4.344  11.741  17.749  0.00  0.00    +0.000 C 
ENDBRANCH   1   7
BRANCH   3  10
ATOM     10  C   UNL     1       0.784  13.362  19.298  0.00  0.00    +0.000 C 
ATOM     11  O   UNL     1       1.816  13.595  18.673  0.00  0.00    +0.000 OA
ATOM     12  N   UNL     1       0.506  14.162  20.401  0.00  0.00    +0.000 N 
ATOM     13  H   UNL     1       0.997  15.047  20.354  0.00  0.00    +0.000 HD
BRANCH  12  14
ATOM     14  C   UNL     1      -0.589  14.046  21.267  0.00  0.00    +0.000 A 
ATOM     15  C   UNL     1      -0.528  13.243  22.411  0.00  0.00    +0.000 A 
ATOM     16  C   UNL     1      -1.690  12.968  23.134  0.00  0.00    +0.000 A 
ATOM     17  C   UNL     1      -2.911  13.504  22.717  0.00  0.00    +0.000 A 
ATOM     18 BR   UNL     1      -4.460  13.004  23.695  0.00  0.00    +0.000 Br
ATOM     19  C   UNL     1      -2.963  14.350  21.599  0.00  0.00    +0.000 A 
ATOM     20 CL   UNL     1      -4.442  14.998  20.988  0.00  0.00    +0.000 Cl
ATOM     21  C   UNL     1      -1.791  14.644  20.893  0.00  0.00    +0.000 A 
ENDBRANCH  12  14
ENDBRANCH   3  10
BRANCH   4  22
ATOM     22  C   UNL     1       0.670  10.404  20.271  0.00  0.00    +0.000 C 
BRANCH  22  23
ATOM     23  C   UNL     1       1.374   9.235  19.623  0.00  0.00    +0.000 A 
ATOM     24  C   UNL     1       1.589   8.046  20.336  0.00  0.00    +0.000 A 
ATOM     25  C   UNL     1       2.269   6.978  19.750  0.00  0.00    +0.000 A 
ATOM     26  C   UNL     1       2.723   7.079  18.437  0.00  0.00    +0.000 A 
ATOM     27  C   UNL     1       2.482   8.239  17.705  0.00  0.00    +0.000 A 
ATOM     28  C   UNL     1       1.811   9.313  18.293  0.00  0.00    +0.000 A 
ENDBRANCH  22  23
ENDBRANCH   4  22
TORSDOF 5
ENDMDL
MODEL 8
REMARK VINA RESULT:      -7.5      6.188      9.540
REMARK  Name = 
REMARK  8 active torsions:
REMARK  status: ('A' for Active; 'I' for Inactive)
REMARK    1  A    between atoms: C_1  and  C_2
REMARK    2  A    between atoms: C_2  and  C_3
REMARK    3  A    between atoms: C_2  and  C_4
REMARK    4  A    between atoms: C_2  and  C_5
REMARK    5  A    between atoms: C_7  and  C_8
REMARK    6  A    between atoms: N_10  and  C_11
REMARK    7  A    between atoms: N_19  and  C_20
REMARK    8  A    between atoms: C_20  and  C_21
REMARK                            x       y       z     vdW  Elec       q    Type
REMARK                         _______ _______ _______ _____ _____    ______ ____
ROOT
ATOM      1  C   UNL     1      -1.610  10.461  18.141  0.00  0.00    +0.000 A 
ATOM      2  C   UNL     1      -1.423  11.092  19.382  0.00  0.00    +0.000 A 
ATOM      3  C   UNL     1      -0.093  10.903  19.741  0.00  0.00    +0.000 A 
ATOM      4  N   UNL     1       0.472  10.344  18.615  0.00  0.00    +0.000 N 
ATOM      5  N   UNL     1      -0.434  10.031  17.657  0.00  0.00    +0.000 NA
ENDROOT
BRANCH   1   7
ATOM      6  C   UNL     1      -3.725  11.566  17.258  0.00  0.00    +0.000 C 
ATOM      7  C   UNL     1      -2.895  10.264  17.356  0.00  0.00    +0.000 C 
ATOM      8  C   UNL     1      -3.786   9.200  18.029  0.00  0.00    +0.000 C 
ATOM      9  C   UNL     1      -2.553   9.810  15.924  0.00  0.00    +0.000 C 
ENDBRANCH   1   7
BRANCH   3  10
ATOM     10  C   UNL     1       0.614  11.232  20.959  0.00  0.00    +0.000 C 
ATOM     11  O   UNL     1       0.780  10.427  21.873  0.00  0.00    +0.000 OA
ATOM     12  N   UNL     1       1.217  12.478  21.083  0.00  0.00    +0.000 N 
ATOM     13  H   UNL     1       1.993  12.455  21.735  0.00  0.00    +0.000 HD
BRANCH  12  14
ATOM     14  C   UNL     1       1.129  13.546  20.182  0.00  0.00    +0.000 A 
ATOM     15  C   UNL     1       2.170  13.833  19.292  0.00  0.00    +0.000 A 
ATOM     16  C   UNL     1       2.157  15.023  18.562  0.00  0.00    +0.000 A 
ATOM     17  C   UNL     1       1.098  15.922  18.717  0.00  0.00    +0.000 A 
ATOM     18 BR   UNL     1       1.202  17.562  17.765  0.00  0.00    +0.000 Br
ATOM     19  C   UNL     1       0.030  15.610  19.572  0.00  0.00    +0.000 A 
ATOM     20 CL   UNL     1      -1.280  16.696  19.860  0.00  0.00    +0.000 Cl
ATOM     21  C   UNL     1       0.034  14.403  20.280  0.00  0.00    +0.000 A 
ENDBRANCH  12  14
ENDBRANCH   3  10
BRANCH   4  22
ATOM     22  C   UNL     1       1.882  10.061  18.365  0.00  0.00    +0.000 C 
BRANCH  22  23
ATOM     23  C   UNL     1       2.221   8.608  18.602  0.00  0.00    +0.000 A 
ATOM     24  C   UNL     1       1.808   7.961  19.777  0.00  0.00    +0.000 A 
ATOM     25  C   UNL     1       2.150   6.629  20.012  0.00  0.00    +0.000 A 
ATOM     26  C   UNL     1       2.891   5.923  19.068  0.00  0.00    +0.000 A 
ATOM     27  C   UNL     1       3.275   6.542  17.881  0.00  0.00    +0.000 A 
ATOM     28  C   UNL     1       2.942   7.878  17.647  0.00  0.00    +0.000 A 
ENDBRANCH  22  23
ENDBRANCH   4  22
TORSDOF 5
ENDMDL
MODEL 9
REMARK VINA RESULT:      -7.5      6.438      9.781
REMARK  Name = 
REMARK  8 active torsions:
REMARK  status: ('A' for Active; 'I' for Inactive)
REMARK    1  A    between atoms: C_1  and  C_2
REMARK    2  A    between atoms: C_2  and  C_3
REMARK    3  A    between atoms: C_2  and  C_4
REMARK    4  A    between atoms: C_2  and  C_5
REMARK    5  A    between atoms: C_7  and  C_8
REMARK    6  A    between atoms: N_10  and  C_11
REMARK    7  A    between atoms: N_19  and  C_20
REMARK    8  A    between atoms: C_20  and  C_21
REMARK                            x       y       z     vdW  Elec       q    Type
REMARK                         _______ _______ _______ _____ _____    ______ ____
ROOT
ATOM      1  C   UNL     1      -2.191  11.134  18.909  0.00  0.00    +0.000 A 
ATOM      2  C   UNL     1      -2.111  12.264  19.739  0.00  0.00    +0.000 A 
ATOM      3  C   UNL     1      -1.205  11.965  20.750  0.00  0.00    +0.000 A 
ATOM      4  N   UNL     1      -0.662  10.761  20.357  0.00  0.00    +0.000 N 
ATOM      5  N   UNL     1      -1.273  10.224  19.273  0.00  0.00    +0.000 NA
ENDROOT
BRANCH   1   7
ATOM      6  C   UNL     1      -2.451  11.247  16.380  0.00  0.00    +0.000 C 
ATOM      7  C   UNL     1      -3.114  10.881  17.729  0.00  0.00    +0.000 C 
ATOM      8  C   UNL     1      -4.399  11.725  17.854  0.00  0.00    +0.000 C 
ATOM      9  C   UNL     1      -3.488   9.387  17.685  0.00  0.00    +0.000 C 
ENDBRANCH   1   7
BRANCH   3  10
ATOM     10  C   UNL     1      -0.830  12.708  21.934  0.00  0.00    +0.000 C 
ATOM     11  O   UNL     1      -1.348  12.522  23.032  0.00  0.00    +0.000 OA
ATOM     12  N   UNL     1       0.224  13.613  21.866  0.00  0.00    +0.000 N 
ATOM     13  H   UNL     1       0.659  13.749  22.771  0.00  0.00    +0.000 HD
BRANCH  12  14
ATOM     14  C   UNL     1       0.928  13.996  20.717  0.00  0.00    +0.000 A 
ATOM     15  C   UNL     1       2.140  13.388  20.372  0.00  0.00    +0.000 A 
ATOM     16  C   UNL     1       2.929  13.930  19.356  0.00  0.00    +0.000 A 
ATOM     17  C   UNL     1       2.501  15.076  18.680  0.00  0.00    +0.000 A 
ATOM     18 BR   UNL     1       3.675  15.809  17.380  0.00  0.00    +0.000 Br
ATOM     19  C   UNL     1       1.262  15.656  18.993  0.00  0.00    +0.000 A 
ATOM     20 CL   UNL     1       0.696  17.105  18.245  0.00  0.00    +0.000 Cl
ATOM     21  C   UNL     1       0.462  15.092  19.993  0.00  0.00    +0.000 A 
ENDBRANCH  12  14
ENDBRANCH   3  10
BRANCH   4  22
ATOM     22  C   UNL     1       0.448  10.036  20.966  0.00  0.00    +0.000 C 
BRANCH  22  23
ATOM     23  C   UNL     1       1.191   9.186  19.963  0.00  0.00    +0.000 A 
ATOM     24  C   UNL     1       1.636   7.901  20.307  0.00  0.00    +0.000 A 
ATOM     25  C   UNL     1       2.353   7.128  19.392  0.00  0.00    +0.000 A 
ATOM     26  C   UNL     1       2.615   7.623  18.117  0.00  0.00    +0.000 A 
ATOM     27  C   UNL     1       2.145   8.882  17.750  0.00  0.00    +0.000 A 
ATOM     28  C   UNL     1       1.437   9.661  18.667  0.00  0.00    +0.000 A 
ENDBRANCH  22  23
ENDBRANCH   4  22
TORSDOF 5
ENDMDL
