MODEL 1
REMARK VINA RESULT:      -9.7      0.000      0.000
REMARK  Name = 
REMARK  2 active torsions:
REMARK  status: ('A' for Active; 'I' for Inactive)
REMARK    1  A    between atoms: C_1  and  C_2
REMARK    2  A    between atoms: C_4  and  N_5
REMARK                            x       y       z     vdW  Elec       q    Type
REMARK                         _______ _______ _______ _____ _____    ______ ____
ROOT
ATOM      1  N   UNL     1       1.395  10.353  18.161  0.00  0.00    +0.000 NA
ATOM      2  C   UNL     1       1.556   9.439  19.071  0.00  0.00    +0.000 C 
ATOM      3  N   UNL     1       1.245   9.573  20.393  0.00  0.00    +0.000 N 
ATOM      4  N   UNL     1       2.085   8.203  18.677  0.00  0.00    +0.000 N 
ATOM      5  C   UNL     1       2.102   7.066  19.475  0.00  0.00    +0.000 C 
ATOM      6  O   UNL     1       1.495   7.105  20.553  0.00  0.00    +0.000 OA
ATOM      7  N   UNL     1       2.673   5.884  18.974  0.00  0.00    +0.000 N 
ATOM      8  C   UNL     1       3.626   5.784  17.892  0.00  0.00    +0.000 A 
ATOM      9  C   UNL     1       4.561   6.807  17.670  0.00  0.00    +0.000 A 
ATOM     10  C   UNL     1       5.610   6.651  16.750  0.00  0.00    +0.000 A 
ATOM     11  C   UNL     1       5.746   5.466  16.032  0.00  0.00    +0.000 A 
ATOM     12  C   UNL     1       4.814   4.450  16.209  0.00  0.00    +0.000 A 
ATOM     13  C   UNL     1       3.767   4.604  17.131  0.00  0.00    +0.000 A 
ATOM     14  S   UNL     1       2.632   3.246  17.302  0.00  0.00    +0.000 S 
ATOM     15  C   UNL     1       2.405   3.382  19.057  0.00  0.00    +0.000 A 
ATOM     16  C   UNL     1       2.152   2.198  19.775  0.00  0.00    +0.000 A 
ATOM     17  C   UNL     1       1.969   2.229  21.153  0.00  0.00    +0.000 A 
ATOM     18  C   UNL     1       2.060   3.439  21.822  0.00  0.00    +0.000 A 
ATOM     19  C   UNL     1       2.315   4.614  21.109  0.00  0.00    +0.000 A 
ATOM     20  C   UNL     1       2.463   4.628  19.706  0.00  0.00    +0.000 A 
ATOM     21  H   UNL     1       0.473  10.226  20.533  0.00  0.00    +0.000 HD
ATOM     22  H   UNL     1       1.054   8.681  20.857  0.00  0.00    +0.000 HD
ATOM     23  H   UNL     1       2.259   8.112  17.687  0.00  0.00    +0.000 HD
ENDROOT
BRANCH   1  27
ATOM     24  C   UNL     1      -2.386  12.605  19.993  0.00  0.00    +0.000 C 
ATOM     25  C   UNL     1      -1.001  12.716  19.423  0.00  0.00    +0.000 A 
ATOM     26  N   UNL     1      -0.470  11.563  18.967  0.00  0.00    +0.000 NA
ATOM     27  C   UNL     1       0.809  11.583  18.540  0.00  0.00    +0.000 A 
ATOM     28  N   UNL     1       1.560  12.688  18.466  0.00  0.00    +0.000 NA
ATOM     29  C   UNL     1       1.006  13.842  18.889  0.00  0.00    +0.000 A 
ATOM     30  C   UNL     1       1.738  15.026  18.839  0.00  0.00    +0.000 A 
ATOM     31  C   UNL     1       1.220  16.256  19.279  0.00  0.00    +0.000 A 
ATOM     32  C   UNL     1      -0.066  16.321  19.799  0.00  0.00    +0.000 A 
ATOM     33  C   UNL     1      -0.825  15.158  19.858  0.00  0.00    +0.000 A 
ATOM     34  C   UNL     1      -0.300  13.920  19.406  0.00  0.00    +0.000 A 
ENDBRANCH   1  27
TORSDOF 1
ENDMDL
MODEL 2
REMARK VINA RESULT:      -9.6      2.194      4.456
REMARK  Name = 
REMARK  2 active torsions:
REMARK  status: ('A' for Active; 'I' for Inactive)
REMARK    1  A    between atoms: C_1  and  C_2
REMARK    2  A    between atoms: C_4  and  N_5
REMARK                            x       y       z     vdW  Elec       q    Type
REMARK                         _______ _______ _______ _____ _____    ______ ____
ROOT
ATOM      1  N   UNL     1       0.787   9.183  21.649  0.00  0.00    +0.000 NA
ATOM      2  C   UNL     1       1.256   8.956  20.458  0.00  0.00    +0.000 C 
ATOM      3  N   UNL     1       1.218   9.829  19.410  0.00  0.00    +0.000 N 
ATOM      4  N   UNL     1       1.862   7.716  20.215  0.00  0.00    +0.000 N 
ATOM      5  C   UNL     1       2.604   7.414  19.080  0.00  0.00    +0.000 C 
ATOM      6  O   UNL     1       2.860   8.335  18.292  0.00  0.00    +0.000 OA
ATOM      7  N   UNL     1       3.155   6.129  18.941  0.00  0.00    +0.000 N 
ATOM      8  C   UNL     1       2.716   4.931  19.619  0.00  0.00    +0.000 A 
ATOM      9  C   UNL     1       1.362   4.754  19.949  0.00  0.00    +0.000 A 
ATOM     10  C   UNL     1       0.883   3.528  20.436  0.00  0.00    +0.000 A 
ATOM     11  C   UNL     1       1.748   2.451  20.603  0.00  0.00    +0.000 A 
ATOM     12  C   UNL     1       3.099   2.609  20.316  0.00  0.00    +0.000 A 
ATOM     13  C   UNL     1       3.578   3.834  19.825  0.00  0.00    +0.000 A 
ATOM     14  S   UNL     1       5.318   3.938  19.471  0.00  0.00    +0.000 S 
ATOM     15  C   UNL     1       5.174   4.944  18.015  0.00  0.00    +0.000 A 
ATOM     16  C   UNL     1       6.139   4.770  17.005  0.00  0.00    +0.000 A 
ATOM     17  C   UNL     1       6.086   5.521  15.836  0.00  0.00    +0.000 A 
ATOM     18  C   UNL     1       5.056   6.432  15.661  0.00  0.00    +0.000 A 
ATOM     19  C   UNL     1       4.097   6.602  16.664  0.00  0.00    +0.000 A 
ATOM     20  C   UNL     1       4.143   5.890  17.881  0.00  0.00    +0.000 A 
ATOM     21  H   UNL     1       1.232  10.798  19.729  0.00  0.00    +0.000 HD
ATOM     22  H   UNL     1       1.953   9.664  18.718  0.00  0.00    +0.000 HD
ATOM     23  H   UNL     1       1.924   7.108  21.019  0.00  0.00    +0.000 HD
ENDROOT
BRANCH   1  27
ATOM     24  C   UNL     1       1.044  13.903  21.031  0.00  0.00    +0.000 C 
ATOM     25  C   UNL     1       0.310  12.746  21.645  0.00  0.00    +0.000 A 
ATOM     26  N   UNL     1       0.891  11.540  21.478  0.00  0.00    +0.000 NA
ATOM     27  C   UNL     1       0.225  10.453  21.918  0.00  0.00    +0.000 A 
ATOM     28  N   UNL     1      -0.939  10.499  22.579  0.00  0.00    +0.000 NA
ATOM     29  C   UNL     1      -1.491  11.713  22.773  0.00  0.00    +0.000 A 
ATOM     30  C   UNL     1      -2.702  11.827  23.452  0.00  0.00    +0.000 A 
ATOM     31  C   UNL     1      -3.333  13.063  23.673  0.00  0.00    +0.000 A 
ATOM     32  C   UNL     1      -2.755  14.232  23.196  0.00  0.00    +0.000 A 
ATOM     33  C   UNL     1      -1.544  14.154  22.518  0.00  0.00    +0.000 A 
ATOM     34  C   UNL     1      -0.907  12.905  22.305  0.00  0.00    +0.000 A 
ENDBRANCH   1  27
TORSDOF 1
ENDMDL
MODEL 3
REMARK VINA RESULT:      -9.4      0.475      1.827
REMARK  Name = 
REMARK  2 active torsions:
REMARK  status: ('A' for Active; 'I' for Inactive)
REMARK    1  A    between atoms: C_1  and  C_2
REMARK    2  A    between atoms: C_4  and  N_5
REMARK                            x       y       z     vdW  Elec       q    Type
REMARK                         _______ _______ _______ _____ _____    ______ ____
ROOT
ATOM      1  N   UNL     1       1.343  10.398  18.472  0.00  0.00    +0.000 NA
ATOM      2  C   UNL     1       1.518   9.446  19.340  0.00  0.00    +0.000 C 
ATOM      3  N   UNL     1       1.235   9.525  20.672  0.00  0.00    +0.000 N 
ATOM      4  N   UNL     1       2.034   8.226  18.883  0.00  0.00    +0.000 N 
ATOM      5  C   UNL     1       2.063   7.056  19.632  0.00  0.00    +0.000 C 
ATOM      6  O   UNL     1       1.478   7.052  20.723  0.00  0.00    +0.000 OA
ATOM      7  N   UNL     1       2.619   5.894  19.070  0.00  0.00    +0.000 N 
ATOM      8  C   UNL     1       3.549   5.837  17.966  0.00  0.00    +0.000 A 
ATOM      9  C   UNL     1       4.484   6.866  17.767  0.00  0.00    +0.000 A 
ATOM     10  C   UNL     1       5.513   6.745  16.820  0.00  0.00    +0.000 A 
ATOM     11  C   UNL     1       5.629   5.591  16.051  0.00  0.00    +0.000 A 
ATOM     12  C   UNL     1       4.697   4.572  16.204  0.00  0.00    +0.000 A 
ATOM     13  C   UNL     1       3.670   4.690  17.153  0.00  0.00    +0.000 A 
ATOM     14  S   UNL     1       2.533   3.329  17.290  0.00  0.00    +0.000 S 
ATOM     15  C   UNL     1       2.343   3.392  19.053  0.00  0.00    +0.000 A 
ATOM     16  C   UNL     1       2.100   2.180  19.726  0.00  0.00    +0.000 A 
ATOM     17  C   UNL     1       1.944   2.154  21.108  0.00  0.00    +0.000 A 
ATOM     18  C   UNL     1       2.055   3.335  21.825  0.00  0.00    +0.000 A 
ATOM     19  C   UNL     1       2.299   4.537  21.157  0.00  0.00    +0.000 A 
ATOM     20  C   UNL     1       2.419   4.610  19.753  0.00  0.00    +0.000 A 
ATOM     21  H   UNL     1       0.469  10.174  20.855  0.00  0.00    +0.000 HD
ATOM     22  H   UNL     1       1.050   8.615  21.102  0.00  0.00    +0.000 HD
ATOM     23  H   UNL     1       2.188   8.176  17.886  0.00  0.00    +0.000 HD
ENDROOT
BRANCH   1  27
ATOM     24  C   UNL     1       1.695  15.145  18.738  0.00  0.00    +0.000 C 
ATOM     25  C   UNL     1       0.898  13.915  19.068  0.00  0.00    +0.000 A 
ATOM     26  N   UNL     1       1.482  12.744  18.738  0.00  0.00    +0.000 NA
ATOM     27  C   UNL     1       0.770  11.613  18.914  0.00  0.00    +0.000 A 
ATOM     28  N   UNL     1      -0.448  11.569  19.469  0.00  0.00    +0.000 NA
ATOM     29  C   UNL     1      -1.005  12.742  19.830  0.00  0.00    +0.000 A 
ATOM     30  C   UNL     1      -2.271  12.762  20.411  0.00  0.00    +0.000 A 
ATOM     31  C   UNL     1      -2.909  13.954  20.795  0.00  0.00    +0.000 A 
ATOM     32  C   UNL     1      -2.281  15.175  20.588  0.00  0.00    +0.000 A 
ATOM     33  C   UNL     1      -1.015  15.190  20.015  0.00  0.00    +0.000 A 
ATOM     34  C   UNL     1      -0.372  13.983  19.637  0.00  0.00    +0.000 A 
ENDBRANCH   1  27
TORSDOF 1
ENDMDL
MODEL 4
REMARK VINA RESULT:      -9.4      1.464      3.574
REMARK  Name = 
REMARK  2 active torsions:
REMARK  status: ('A' for Active; 'I' for Inactive)
REMARK    1  A    between atoms: C_1  and  C_2
REMARK    2  A    between atoms: C_4  and  N_5
REMARK                            x       y       z     vdW  Elec       q    Type
REMARK                         _______ _______ _______ _____ _____    ______ ____
ROOT
ATOM      1  N   UNL     1       1.013   9.675  19.807  0.00  0.00    +0.000 NA
ATOM      2  C   UNL     1       1.612   9.182  18.763  0.00  0.00    +0.000 C 
ATOM      3  N   UNL     1       1.734   9.801  17.553  0.00  0.00    +0.000 N 
ATOM      4  N   UNL     1       2.192   7.912  18.875  0.00  0.00    +0.000 N 
ATOM      5  C   UNL     1       3.051   7.356  17.936  0.00  0.00    +0.000 C 
ATOM      6  O   UNL     1       3.436   8.074  17.004  0.00  0.00    +0.000 OA
ATOM      7  N   UNL     1       3.562   6.065  18.152  0.00  0.00    +0.000 N 
ATOM      8  C   UNL     1       2.997   5.053  19.015  0.00  0.00    +0.000 A 
ATOM      9  C   UNL     1       1.608   4.972  19.204  0.00  0.00    +0.000 A 
ATOM     10  C   UNL     1       1.024   3.891  19.884  0.00  0.00    +0.000 A 
ATOM     11  C   UNL     1       1.819   2.867  20.390  0.00  0.00    +0.000 A 
ATOM     12  C   UNL     1       3.200   2.940  20.247  0.00  0.00    +0.000 A 
ATOM     13  C   UNL     1       3.784   4.018  19.563  0.00  0.00    +0.000 A 
ATOM     14  S   UNL     1       5.556   4.019  19.416  0.00  0.00    +0.000 S 
ATOM     15  C   UNL     1       5.628   4.677  17.769  0.00  0.00    +0.000 A 
ATOM     16  C   UNL     1       6.697   4.271  16.950  0.00  0.00    +0.000 A 
ATOM     17  C   UNL     1       6.815   4.743  15.648  0.00  0.00    +0.000 A 
ATOM     18  C   UNL     1       5.851   5.606  15.150  0.00  0.00    +0.000 A 
ATOM     19  C   UNL     1       4.787   6.007  15.963  0.00  0.00    +0.000 A 
ATOM     20  C   UNL     1       4.658   5.583  17.302  0.00  0.00    +0.000 A 
ATOM     21  H   UNL     1       1.749  10.817  17.650  0.00  0.00    +0.000 HD
ATOM     22  H   UNL     1       2.539   9.477  17.011  0.00  0.00    +0.000 HD
ATOM     23  H   UNL     1       2.132   7.498  19.794  0.00  0.00    +0.000 HD
ENDROOT
BRANCH   1  27
ATOM     24  C   UNL     1      -2.789  12.498  20.355  0.00  0.00    +0.000 C 
ATOM     25  C   UNL     1      -1.342  12.386  19.969  0.00  0.00    +0.000 A 
ATOM     26  N   UNL     1      -0.844  11.132  19.955  0.00  0.00    +0.000 NA
ATOM     27  C   UNL     1       0.475  10.980  19.718  0.00  0.00    +0.000 A 
ATOM     28  N   UNL     1       1.306  11.985  19.417  0.00  0.00    +0.000 NA
ATOM     29  C   UNL     1       0.789  13.230  19.397  0.00  0.00    +0.000 A 
ATOM     30  C   UNL     1       1.604  14.318  19.093  0.00  0.00    +0.000 A 
ATOM     31  C   UNL     1       1.125  15.639  19.070  0.00  0.00    +0.000 A 
ATOM     32  C   UNL     1      -0.205  15.901  19.369  0.00  0.00    +0.000 A 
ATOM     33  C   UNL     1      -1.046  14.837  19.672  0.00  0.00    +0.000 A 
ATOM     34  C   UNL     1      -0.560  13.504  19.686  0.00  0.00    +0.000 A 
ENDBRANCH   1  27
TORSDOF 1
ENDMDL
MODEL 5
REMARK VINA RESULT:      -9.2      2.032      3.916
REMARK  Name = 
REMARK  2 active torsions:
REMARK  status: ('A' for Active; 'I' for Inactive)
REMARK    1  A    between atoms: C_1  and  C_2
REMARK    2  A    between atoms: C_4  and  N_5
REMARK                            x       y       z     vdW  Elec       q    Type
REMARK                         _______ _______ _______ _____ _____    ______ ____
ROOT
ATOM      1  N   UNL     1       0.810   9.288  21.434  0.00  0.00    +0.000 NA
ATOM      2  C   UNL     1       1.297   9.030  20.257  0.00  0.00    +0.000 C 
ATOM      3  N   UNL     1       1.296   9.884  19.193  0.00  0.00    +0.000 N 
ATOM      4  N   UNL     1       1.884   7.775  20.049  0.00  0.00    +0.000 N 
ATOM      5  C   UNL     1       2.641   7.438  18.934  0.00  0.00    +0.000 C 
ATOM      6  O   UNL     1       2.930   8.338  18.135  0.00  0.00    +0.000 OA
ATOM      7  N   UNL     1       3.170   6.140  18.830  0.00  0.00    +0.000 N 
ATOM      8  C   UNL     1       2.694   4.963  19.520  0.00  0.00    +0.000 A 
ATOM      9  C   UNL     1       1.331   4.819  19.827  0.00  0.00    +0.000 A 
ATOM     10  C   UNL     1       0.819   3.611  20.327  0.00  0.00    +0.000 A 
ATOM     11  C   UNL     1       1.660   2.521  20.532  0.00  0.00    +0.000 A 
ATOM     12  C   UNL     1       3.018   2.648  20.268  0.00  0.00    +0.000 A 
ATOM     13  C   UNL     1       3.531   3.854  19.764  0.00  0.00    +0.000 A 
ATOM     14  S   UNL     1       5.279   3.918  19.442  0.00  0.00    +0.000 S 
ATOM     15  C   UNL     1       5.183   4.899  17.966  0.00  0.00    +0.000 A 
ATOM     16  C   UNL     1       6.162   4.688  16.978  0.00  0.00    +0.000 A 
ATOM     17  C   UNL     1       6.147   5.418  15.794  0.00  0.00    +0.000 A 
ATOM     18  C   UNL     1       5.138   6.345  15.583  0.00  0.00    +0.000 A 
ATOM     19  C   UNL     1       4.164   6.552  16.563  0.00  0.00    +0.000 A 
ATOM     20  C   UNL     1       4.172   5.862  17.794  0.00  0.00    +0.000 A 
ATOM     21  H   UNL     1       1.323  10.859  19.494  0.00  0.00    +0.000 HD
ATOM     22  H   UNL     1       2.041   9.692  18.518  0.00  0.00    +0.000 HD
ATOM     23  H   UNL     1       1.918   7.181  20.865  0.00  0.00    +0.000 HD
ENDROOT
BRANCH   1  27
ATOM     24  C   UNL     1      -2.701  11.878  23.358  0.00  0.00    +0.000 C 
ATOM     25  C   UNL     1      -1.413  11.869  22.585  0.00  0.00    +0.000 A 
ATOM     26  N   UNL     1      -0.938  10.646  22.270  0.00  0.00    +0.000 NA
ATOM     27  C   UNL     1       0.267  10.573  21.668  0.00  0.00    +0.000 A 
ATOM     28  N   UNL     1       0.985  11.638  21.291  0.00  0.00    +0.000 NA
ATOM     29  C   UNL     1       0.482  12.856  21.577  0.00  0.00    +0.000 A 
ATOM     30  C   UNL     1       1.183  14.003  21.212  0.00  0.00    +0.000 A 
ATOM     31  C   UNL     1       0.716  15.298  21.495  0.00  0.00    +0.000 A 
ATOM     32  C   UNL     1      -0.483  15.470  22.174  0.00  0.00    +0.000 A 
ATOM     33  C   UNL     1      -1.210  14.346  22.548  0.00  0.00    +0.000 A 
ATOM     34  C   UNL     1      -0.738  13.042  22.253  0.00  0.00    +0.000 A 
ENDBRANCH   1  27
TORSDOF 1
ENDMDL
MODEL 6
REMARK VINA RESULT:      -9.2      1.783      4.085
REMARK  Name = 
REMARK  2 active torsions:
REMARK  status: ('A' for Active; 'I' for Inactive)
REMARK    1  A    between atoms: C_1  and  C_2
REMARK    2  A    between atoms: C_4  and  N_5
REMARK                            x       y       z     vdW  Elec       q    Type
REMARK                         _______ _______ _______ _____ _____    ______ ____
ROOT
ATOM      1  N   UNL     1       0.916   9.511  20.805  0.00  0.00    +0.000 NA
ATOM      2  C   UNL     1       1.439   9.144  19.672  0.00  0.00    +0.000 C 
ATOM      3  N   UNL     1       1.490   9.903  18.539  0.00  0.00    +0.000 N 
ATOM      4  N   UNL     1       2.009   7.867  19.594  0.00  0.00    +0.000 N 
ATOM      5  C   UNL     1       2.797   7.422  18.540  0.00  0.00    +0.000 C 
ATOM      6  O   UNL     1       3.130   8.246  17.677  0.00  0.00    +0.000 OA
ATOM      7  N   UNL     1       3.305   6.112  18.566  0.00  0.00    +0.000 N 
ATOM      8  C   UNL     1       2.784   5.007  19.338  0.00  0.00    +0.000 A 
ATOM      9  C   UNL     1       1.409   4.911  19.608  0.00  0.00    +0.000 A 
ATOM     10  C   UNL     1       0.858   3.759  20.191  0.00  0.00    +0.000 A 
ATOM     11  C   UNL     1       1.671   2.678  20.518  0.00  0.00    +0.000 A 
ATOM     12  C   UNL     1       3.040   2.761  20.293  0.00  0.00    +0.000 A 
ATOM     13  C   UNL     1       3.592   3.910  19.706  0.00  0.00    +0.000 A 
ATOM     14  S   UNL     1       5.350   3.920  19.442  0.00  0.00    +0.000 S 
ATOM     15  C   UNL     1       5.323   4.770  17.884  0.00  0.00    +0.000 A 
ATOM     16  C   UNL     1       6.332   4.460  16.954  0.00  0.00    +0.000 A 
ATOM     17  C   UNL     1       6.370   5.084  15.712  0.00  0.00    +0.000 A 
ATOM     18  C   UNL     1       5.387   6.005  15.386  0.00  0.00    +0.000 A 
ATOM     19  C   UNL     1       4.383   6.311  16.309  0.00  0.00    +0.000 A 
ATOM     20  C   UNL     1       4.337   5.731  17.594  0.00  0.00    +0.000 A 
ATOM     21  H   UNL     1       1.524  10.899  18.756  0.00  0.00    +0.000 HD
ATOM     22  H   UNL     1       2.253   9.642  17.910  0.00  0.00    +0.000 HD
ATOM     23  H   UNL     1       2.004   7.345  20.459  0.00  0.00    +0.000 HD
ENDROOT
BRANCH   1  27
ATOM     24  C   UNL     1       1.803  14.179  21.197  0.00  0.00    +0.000 C 
ATOM     25  C   UNL     1       0.772  13.091  21.099  0.00  0.00    +0.000 A 
ATOM     26  N   UNL     1       1.260  11.833  21.099  0.00  0.00    +0.000 NA
ATOM     27  C   UNL     1       0.390  10.819  20.908  0.00  0.00    +0.000 A 
ATOM     28  N   UNL     1      -0.935  10.976  20.798  0.00  0.00    +0.000 NA
ATOM     29  C   UNL     1      -1.414  12.235  20.838  0.00  0.00    +0.000 A 
ATOM     30  C   UNL     1      -2.784  12.463  20.727  0.00  0.00    +0.000 A 
ATOM     31  C   UNL     1      -3.341  13.754  20.747  0.00  0.00    +0.000 A 
ATOM     32  C   UNL     1      -2.516  14.863  20.871  0.00  0.00    +0.000 A 
ATOM     33  C   UNL     1      -1.145  14.671  20.989  0.00  0.00    +0.000 A 
ATOM     34  C   UNL     1      -0.588  13.366  20.976  0.00  0.00    +0.000 A 
ENDBRANCH   1  27
TORSDOF 1
ENDMDL
MODEL 7
REMARK VINA RESULT:      -8.7      1.836      4.037
REMARK  Name = 
REMARK  2 active torsions:
REMARK  status: ('A' for Active; 'I' for Inactive)
REMARK    1  A    between atoms: C_1  and  C_2
REMARK    2  A    between atoms: C_4  and  N_5
REMARK                            x       y       z     vdW  Elec       q    Type
REMARK                         _______ _______ _______ _____ _____    ______ ____
ROOT
ATOM      1  N   UNL     1       0.836   9.334  20.603  0.00  0.00    +0.000 NA
ATOM      2  C   UNL     1       1.411   8.978  19.492  0.00  0.00    +0.000 C 
ATOM      3  N   UNL     1       1.487   9.736  18.360  0.00  0.00    +0.000 N 
ATOM      4  N   UNL     1       2.013   7.714  19.439  0.00  0.00    +0.000 N 
ATOM      5  C   UNL     1       2.852   7.287  18.417  0.00  0.00    +0.000 C 
ATOM      6  O   UNL     1       3.198   8.116  17.566  0.00  0.00    +0.000 OA
ATOM      7  N   UNL     1       3.389   5.989  18.467  0.00  0.00    +0.000 N 
ATOM      8  C   UNL     1       2.864   4.874  19.221  0.00  0.00    +0.000 A 
ATOM      9  C   UNL     1       1.483   4.746  19.437  0.00  0.00    +0.000 A 
ATOM     10  C   UNL     1       0.936   3.582  20.002  0.00  0.00    +0.000 A 
ATOM     11  C   UNL     1       1.761   2.521  20.363  0.00  0.00    +0.000 A 
ATOM     12  C   UNL     1       3.136   2.635  20.191  0.00  0.00    +0.000 A 
ATOM     13  C   UNL     1       3.683   3.796  19.622  0.00  0.00    +0.000 A 
ATOM     14  S   UNL     1       5.449   3.847  19.426  0.00  0.00    +0.000 S 
ATOM     15  C   UNL     1       5.462   4.694  17.866  0.00  0.00    +0.000 A 
ATOM     16  C   UNL     1       6.513   4.405  16.976  0.00  0.00    +0.000 A 
ATOM     17  C   UNL     1       6.585   5.029  15.735  0.00  0.00    +0.000 A 
ATOM     18  C   UNL     1       5.594   5.925  15.369  0.00  0.00    +0.000 A 
ATOM     19  C   UNL     1       4.549   6.210  16.252  0.00  0.00    +0.000 A 
ATOM     20  C   UNL     1       4.466   5.630  17.536  0.00  0.00    +0.000 A 
ATOM     21  H   UNL     1       1.490  10.733  18.575  0.00  0.00    +0.000 HD
ATOM     22  H   UNL     1       2.281   9.492  17.762  0.00  0.00    +0.000 HD
ATOM     23  H   UNL     1       1.987   7.194  20.304  0.00  0.00    +0.000 HD
ENDROOT
BRANCH   1  27
ATOM     24  C   UNL     1      -0.488  13.288  18.291  0.00  0.00    +0.000 C 
ATOM     25  C   UNL     1      -0.380  12.567  19.604  0.00  0.00    +0.000 A 
ATOM     26  N   UNL     1       0.242  11.370  19.555  0.00  0.00    +0.000 NA
ATOM     27  C   UNL     1       0.276  10.630  20.682  0.00  0.00    +0.000 A 
ATOM     28  N   UNL     1      -0.198  11.040  21.866  0.00  0.00    +0.000 NA
ATOM     29  C   UNL     1      -0.784  12.253  21.911  0.00  0.00    +0.000 A 
ATOM     30  C   UNL     1      -1.298  12.735  23.112  0.00  0.00    +0.000 A 
ATOM     31  C   UNL     1      -1.931  13.985  23.218  0.00  0.00    +0.000 A 
ATOM     32  C   UNL     1      -2.075  14.787  22.095  0.00  0.00    +0.000 A 
ATOM     33  C   UNL     1      -1.568  14.339  20.880  0.00  0.00    +0.000 A 
ATOM     34  C   UNL     1      -0.922  13.080  20.781  0.00  0.00    +0.000 A 
ENDBRANCH   1  27
TORSDOF 1
ENDMDL
MODEL 8
REMARK VINA RESULT:      -8.3      2.944      9.376
REMARK  Name = 
REMARK  2 active torsions:
REMARK  status: ('A' for Active; 'I' for Inactive)
REMARK    1  A    between atoms: C_1  and  C_2
REMARK    2  A    between atoms: C_4  and  N_5
REMARK                            x       y       z     vdW  Elec       q    Type
REMARK                         _______ _______ _______ _____ _____    ______ ____
ROOT
ATOM      1  N   UNL     1       1.871   8.555  19.399  0.00  0.00    +0.000 NA
ATOM      2  C   UNL     1       0.916   9.005  18.641  0.00  0.00    +0.000 C 
ATOM      3  N   UNL     1       0.612   8.549  17.392  0.00  0.00    +0.000 N 
ATOM      4  N   UNL     1       0.116  10.043  19.138  0.00  0.00    +0.000 N 
ATOM      5  C   UNL     1      -1.069  10.470  18.552  0.00  0.00    +0.000 C 
ATOM      6  O   UNL     1      -1.520   9.809  17.608  0.00  0.00    +0.000 OA
ATOM      7  N   UNL     1      -1.781  11.532  19.136  0.00  0.00    +0.000 N 
ATOM      8  C   UNL     1      -1.246  12.530  20.033  0.00  0.00    +0.000 A 
ATOM      9  C   UNL     1       0.086  12.958  19.912  0.00  0.00    +0.000 A 
ATOM     10  C   UNL     1       0.572  14.052  20.644  0.00  0.00    +0.000 A 
ATOM     11  C   UNL     1      -0.265  14.743  21.515  0.00  0.00    +0.000 A 
ATOM     12  C   UNL     1      -1.579  14.320  21.680  0.00  0.00    +0.000 A 
ATOM     13  C   UNL     1      -2.067  13.228  20.944  0.00  0.00    +0.000 A 
ATOM     14  S   UNL     1      -3.764  12.768  21.209  0.00  0.00    +0.000 S 
ATOM     15  C   UNL     1      -4.131  12.347  19.524  0.00  0.00    +0.000 A 
ATOM     16  C   UNL     1      -5.446  12.557  19.071  0.00  0.00    +0.000 A 
ATOM     17  C   UNL     1      -5.804  12.254  17.762  0.00  0.00    +0.000 A 
ATOM     18  C   UNL     1      -4.843  11.761  16.893  0.00  0.00    +0.000 A 
ATOM     19  C   UNL     1      -3.536  11.556  17.343  0.00  0.00    +0.000 A 
ATOM     20  C   UNL     1      -3.146  11.810  18.675  0.00  0.00    +0.000 A 
ATOM     21  H   UNL     1       0.855   7.564  17.283  0.00  0.00    +0.000 HD
ATOM     22  H   UNL     1      -0.362   8.714  17.126  0.00  0.00    +0.000 HD
ATOM     23  H   UNL     1       0.329  10.328  20.083  0.00  0.00    +0.000 HD
ENDROOT
BRANCH   1  27
ATOM     24  C   UNL     1       3.038   3.955  19.853  0.00  0.00    +0.000 C 
ATOM     25  C   UNL     1       3.243   5.244  19.111  0.00  0.00    +0.000 A 
ATOM     26  N   UNL     1       2.584   6.309  19.613  0.00  0.00    +0.000 NA
ATOM     27  C   UNL     1       2.646   7.470  18.928  0.00  0.00    +0.000 A 
ATOM     28  N   UNL     1       3.384   7.654  17.826  0.00  0.00    +0.000 NA
ATOM     29  C   UNL     1       4.068   6.592  17.356  0.00  0.00    +0.000 A 
ATOM     30  C   UNL     1       4.852   6.720  16.212  0.00  0.00    +0.000 A 
ATOM     31  C   UNL     1       5.577   5.647  15.666  0.00  0.00    +0.000 A 
ATOM     32  C   UNL     1       5.518   4.395  16.264  0.00  0.00    +0.000 A 
ATOM     33  C   UNL     1       4.749   4.234  17.411  0.00  0.00    +0.000 A 
ATOM     34  C   UNL     1       4.026   5.323  17.962  0.00  0.00    +0.000 A 
ENDBRANCH   1  27
TORSDOF 1
ENDMDL
MODEL 9
REMARK VINA RESULT:      -8.0      2.793      9.278
REMARK  Name = 
REMARK  2 active torsions:
REMARK  status: ('A' for Active; 'I' for Inactive)
REMARK    1  A    between atoms: C_1  and  C_2
REMARK    2  A    between atoms: C_4  and  N_5
REMARK                            x       y       z     vdW  Elec       q    Type
REMARK                         _______ _______ _______ _____ _____    ______ ____
ROOT
ATOM      1  N   UNL     1       2.546   8.621  18.662  0.00  0.00    +0.000 NA
ATOM      2  C   UNL     1       1.362   8.989  18.271  0.00  0.00    +0.000 C 
ATOM      3  N   UNL     1       0.571   8.311  17.390  0.00  0.00    +0.000 N 
ATOM      4  N   UNL     1       0.836  10.178  18.795  0.00  0.00    +0.000 N 
ATOM      5  C   UNL     1      -0.486  10.580  18.654  0.00  0.00    +0.000 C 
ATOM      6  O   UNL     1      -1.285   9.780  18.149  0.00  0.00    +0.000 OA
ATOM      7  N   UNL     1      -0.896  11.801  19.214  0.00  0.00    +0.000 N 
ATOM      8  C   UNL     1      -0.041  12.912  19.565  0.00  0.00    +0.000 A 
ATOM      9  C   UNL     1       1.121  13.180  18.824  0.00  0.00    +0.000 A 
ATOM     10  C   UNL     1       1.863  14.354  19.027  0.00  0.00    +0.000 A 
ATOM     11  C   UNL     1       1.458  15.286  19.977  0.00  0.00    +0.000 A 
ATOM     12  C   UNL     1       0.331  15.031  20.748  0.00  0.00    +0.000 A 
ATOM     13  C   UNL     1      -0.415  13.859  20.543  0.00  0.00    +0.000 A 
ATOM     14  S   UNL     1      -1.850  13.623  21.565  0.00  0.00    +0.000 S 
ATOM     15  C   UNL     1      -2.879  12.894  20.315  0.00  0.00    +0.000 A 
ATOM     16  C   UNL     1      -4.265  13.125  20.394  0.00  0.00    +0.000 A 
ATOM     17  C   UNL     1      -5.130  12.588  19.447  0.00  0.00    +0.000 A 
ATOM     18  C   UNL     1      -4.611  11.838  18.404  0.00  0.00    +0.000 A 
ATOM     19  C   UNL     1      -3.235  11.611  18.324  0.00  0.00    +0.000 A 
ATOM     20  C   UNL     1      -2.331  12.102  19.290  0.00  0.00    +0.000 A 
ATOM     21  H   UNL     1       0.750   7.307  17.422  0.00  0.00    +0.000 HD
ATOM     22  H   UNL     1      -0.426   8.506  17.508  0.00  0.00    +0.000 HD
ATOM     23  H   UNL     1       1.419  10.634  19.481  0.00  0.00    +0.000 HD
ENDROOT
BRANCH   1  27
ATOM     24  C   UNL     1       1.948   3.912  18.219  0.00  0.00    +0.000 C 
ATOM     25  C   UNL     1       2.813   5.109  17.944  0.00  0.00    +0.000 A 
ATOM     26  N   UNL     1       2.381   6.269  18.482  0.00  0.00    +0.000 NA
ATOM     27  C   UNL     1       3.060   7.395  18.181  0.00  0.00    +0.000 A 
ATOM     28  N   UNL     1       4.180   7.425  17.448  0.00  0.00    +0.000 NA
ATOM     29  C   UNL     1       4.623   6.254  16.947  0.00  0.00    +0.000 A 
ATOM     30  C   UNL     1       5.781   6.221  16.175  0.00  0.00    +0.000 A 
ATOM     31  C   UNL     1       6.283   5.034  15.614  0.00  0.00    +0.000 A 
ATOM     32  C   UNL     1       5.613   3.835  15.812  0.00  0.00    +0.000 A 
ATOM     33  C   UNL     1       4.456   3.832  16.583  0.00  0.00    +0.000 A 
ATOM     34  C   UNL     1       3.957   5.032  17.153  0.00  0.00    +0.000 A 
ENDBRANCH   1  27
TORSDOF 1
ENDMDL
