MODEL 1
REMARK VINA RESULT:      -6.9      0.000      0.000
REMARK  Name = 
REMARK  5 active torsions:
REMARK  status: ('A' for Active; 'I' for Inactive)
REMARK    1  A    between atoms: C_1  and  N_2
REMARK    2  A    between atoms: N_2  and  C_3
REMARK    3  A    between atoms: C_3  and  C_4
REMARK    4  A    between atoms: C_9  and  C_11
REMARK    5  A    between atoms: C_15  and  C_16
REMARK                            x       y       z     vdW  Elec       q    Type
REMARK                         _______ _______ _______ _____ _____    ______ ____
ROOT
ATOM      1  C   UNL     1       6.269   7.402  17.158  0.00  0.00    +0.000 C 
ATOM      2  N   UNL     1       5.977   6.011  17.474  0.00  0.00    +0.000 N 
ATOM      3  C   UNL     1       4.655   5.749  17.864  0.00  0.00    +0.000 C 
ATOM      4  O   UNL     1       3.825   6.654  17.951  0.00  0.00    +0.000 OA
ENDROOT
BRANCH   3   5
ATOM      5  C   UNL     1       4.160   4.370  18.156  0.00  0.00    +0.000 A 
ATOM      6  C   UNL     1       3.250   3.689  17.340  0.00  0.00    +0.000 A 
ATOM      7  C   UNL     1       2.815   2.406  17.676  0.00  0.00    +0.000 A 
ATOM      8  C   UNL     1       3.342   1.758  18.789  0.00  0.00    +0.000 A 
ATOM      9  C   UNL     1       4.314   2.392  19.568  0.00  0.00    +0.000 A 
ATOM     10  C   UNL     1       4.711   3.698  19.258  0.00  0.00    +0.000 A 
BRANCH   9  11
ATOM     11  C   UNL     1       4.913   1.695  20.670  0.00  0.00    +0.000 C 
ATOM     12  N   UNL     1       5.378   1.125  21.567  0.00  0.00    +0.000 NA
ENDBRANCH   9  11
ENDBRANCH   3   5
BRANCH   2  13
ATOM     13  C   UNL     1       6.972   5.023  17.049  0.00  0.00    +0.000 C 
BRANCH  13  14
ATOM     14  C   UNL     1       6.812   4.657  15.610  0.00  0.00    +0.000 A 
ATOM     15  C   UNL     1       6.009   3.786  14.897  0.00  0.00    +0.000 A 
ATOM     16  C   UNL     1       6.355   3.938  13.530  0.00  0.00    +0.000 A 
ATOM     17  C   UNL     1       7.346   4.890  13.490  0.00  0.00    +0.000 A 
ATOM     18  O   UNL     1       7.631   5.328  14.742  0.00  0.00    +0.000 OA
ENDBRANCH  13  14
ENDBRANCH   2  13
TORSDOF 4
ENDMDL
MODEL 2
REMARK VINA RESULT:      -6.8      1.386      1.392
REMARK  Name = 
REMARK  5 active torsions:
REMARK  status: ('A' for Active; 'I' for Inactive)
REMARK    1  A    between atoms: C_1  and  N_2
REMARK    2  A    between atoms: N_2  and  C_3
REMARK    3  A    between atoms: C_3  and  C_4
REMARK    4  A    between atoms: C_9  and  C_11
REMARK    5  A    between atoms: C_15  and  C_16
REMARK                            x       y       z     vdW  Elec       q    Type
REMARK                         _______ _______ _______ _____ _____    ______ ____
ROOT
ATOM      1  C   UNL     1       6.303   7.177  17.274  0.00  0.00    +0.000 C 
ATOM      2  N   UNL     1       5.710   5.881  17.572  0.00  0.00    +0.000 N 
ATOM      3  C   UNL     1       4.340   5.902  17.873  0.00  0.00    +0.000 C 
ATOM      4  O   UNL     1       3.711   6.960  17.904  0.00  0.00    +0.000 OA
ENDROOT
BRANCH   3   5
ATOM      5  C   UNL     1       3.554   4.659  18.133  0.00  0.00    +0.000 A 
ATOM      6  C   UNL     1       3.238   3.726  17.140  0.00  0.00    +0.000 A 
ATOM      7  C   UNL     1       2.486   2.589  17.443  0.00  0.00    +0.000 A 
ATOM      8  C   UNL     1       2.108   2.333  18.759  0.00  0.00    +0.000 A 
ATOM      9  C   UNL     1       2.487   3.212  19.777  0.00  0.00    +0.000 A 
ATOM     10  C   UNL     1       3.197   4.377  19.460  0.00  0.00    +0.000 A 
BRANCH   9  11
ATOM     11  C   UNL     1       2.162   2.910  21.140  0.00  0.00    +0.000 C 
ATOM     12  N   UNL     1       1.883   2.676  22.242  0.00  0.00    +0.000 NA
ENDBRANCH   9  11
ENDBRANCH   3   5
BRANCH   2  13
ATOM     13  C   UNL     1       6.505   4.703  17.215  0.00  0.00    +0.000 C 
BRANCH  13  14
ATOM     14  C   UNL     1       6.563   4.499  15.736  0.00  0.00    +0.000 A 
ATOM     15  C   UNL     1       5.853   3.752  14.815  0.00  0.00    +0.000 A 
ATOM     16  C   UNL     1       6.417   4.028  13.544  0.00  0.00    +0.000 A 
ATOM     17  C   UNL     1       7.435   4.925  13.763  0.00  0.00    +0.000 A 
ATOM     18  O   UNL     1       7.534   5.213  15.086  0.00  0.00    +0.000 OA
ENDBRANCH  13  14
ENDBRANCH   2  13
TORSDOF 4
ENDMDL
MODEL 3
REMARK VINA RESULT:      -6.5      2.489      3.637
REMARK  Name = 
REMARK  5 active torsions:
REMARK  status: ('A' for Active; 'I' for Inactive)
REMARK    1  A    between atoms: C_1  and  N_2
REMARK    2  A    between atoms: N_2  and  C_3
REMARK    3  A    between atoms: C_3  and  C_4
REMARK    4  A    between atoms: C_9  and  C_11
REMARK    5  A    between atoms: C_15  and  C_16
REMARK                            x       y       z     vdW  Elec       q    Type
REMARK                         _______ _______ _______ _____ _____    ______ ____
ROOT
ATOM      1  C   UNL     1       6.044   3.775  15.840  0.00  0.00    +0.000 C 
ATOM      2  N   UNL     1       5.498   4.374  17.050  0.00  0.00    +0.000 N 
ATOM      3  C   UNL     1       4.105   4.286  17.188  0.00  0.00    +0.000 C 
ATOM      4  O   UNL     1       3.412   3.759  16.318  0.00  0.00    +0.000 OA
ENDROOT
BRANCH   3   5
ATOM      5  C   UNL     1       3.382   4.782  18.397  0.00  0.00    +0.000 A 
ATOM      6  C   UNL     1       3.007   6.117  18.577  0.00  0.00    +0.000 A 
ATOM      7  C   UNL     1       2.345   6.522  19.737  0.00  0.00    +0.000 A 
ATOM      8  C   UNL     1       1.982   5.581  20.698  0.00  0.00    +0.000 A 
ATOM      9  C   UNL     1       2.275   4.230  20.495  0.00  0.00    +0.000 A 
ATOM     10  C   UNL     1       2.983   3.835  19.354  0.00  0.00    +0.000 A 
BRANCH   9  11
ATOM     11  C   UNL     1       1.834   3.253  21.447  0.00  0.00    +0.000 C 
ATOM     12  N   UNL     1       1.495   2.452  22.217  0.00  0.00    +0.000 NA
ENDBRANCH   9  11
ENDBRANCH   3   5
BRANCH   2  13
ATOM     13  C   UNL     1       6.459   4.698  18.108  0.00  0.00    +0.000 C 
BRANCH  13  14
ATOM     14  C   UNL     1       6.995   6.085  17.968  0.00  0.00    +0.000 A 
ATOM     15  C   UNL     1       6.698   7.181  17.178  0.00  0.00    +0.000 A 
ATOM     16  C   UNL     1       7.590   8.214  17.565  0.00  0.00    +0.000 A 
ATOM     17  C   UNL     1       8.374   7.689  18.564  0.00  0.00    +0.000 A 
ATOM     18  O   UNL     1       8.024   6.402  18.812  0.00  0.00    +0.000 OA
ENDBRANCH  13  14
ENDBRANCH   2  13
TORSDOF 4
ENDMDL
MODEL 4
REMARK VINA RESULT:      -6.4      1.805      1.887
REMARK  Name = 
REMARK  5 active torsions:
REMARK  status: ('A' for Active; 'I' for Inactive)
REMARK    1  A    between atoms: C_1  and  N_2
REMARK    2  A    between atoms: N_2  and  C_3
REMARK    3  A    between atoms: C_3  and  C_4
REMARK    4  A    between atoms: C_9  and  C_11
REMARK    5  A    between atoms: C_15  and  C_16
REMARK                            x       y       z     vdW  Elec       q    Type
REMARK                         _______ _______ _______ _____ _____    ______ ____
ROOT
ATOM      1  C   UNL     1       7.474   6.296  17.849  0.00  0.00    +0.000 C 
ATOM      2  N   UNL     1       6.210   5.624  17.580  0.00  0.00    +0.000 N 
ATOM      3  C   UNL     1       5.665   4.914  18.661  0.00  0.00    +0.000 C 
ATOM      4  O   UNL     1       6.249   4.856  19.743  0.00  0.00    +0.000 OA
ENDROOT
BRANCH   3   5
ATOM      5  C   UNL     1       4.342   4.226  18.586  0.00  0.00    +0.000 A 
ATOM      6  C   UNL     1       3.764   3.795  17.388  0.00  0.00    +0.000 A 
ATOM      7  C   UNL     1       2.516   3.169  17.383  0.00  0.00    +0.000 A 
ATOM      8  C   UNL     1       1.867   2.897  18.584  0.00  0.00    +0.000 A 
ATOM      9  C   UNL     1       2.469   3.245  19.796  0.00  0.00    +0.000 A 
ATOM     10  C   UNL     1       3.697   3.918  19.794  0.00  0.00    +0.000 A 
BRANCH   9  11
ATOM     11  C   UNL     1       1.836   2.897  21.035  0.00  0.00    +0.000 C 
ATOM     12  N   UNL     1       1.330   2.596  22.035  0.00  0.00    +0.000 NA
ENDBRANCH   9  11
ENDBRANCH   3   5
BRANCH   2  13
ATOM     13  C   UNL     1       5.508   6.022  16.356  0.00  0.00    +0.000 C 
BRANCH  13  14
ATOM     14  C   UNL     1       5.986   5.254  15.168  0.00  0.00    +0.000 A 
ATOM     15  C   UNL     1       5.491   4.214  14.401  0.00  0.00    +0.000 A 
ATOM     16  C   UNL     1       6.451   3.963  13.388  0.00  0.00    +0.000 A 
ATOM     17  C   UNL     1       7.471   4.861  13.595  0.00  0.00    +0.000 A 
ATOM     18  O   UNL     1       7.200   5.643  14.670  0.00  0.00    +0.000 OA
ENDBRANCH  13  14
ENDBRANCH   2  13
TORSDOF 4
ENDMDL
MODEL 5
REMARK VINA RESULT:      -6.3      2.553      5.712
REMARK  Name = 
REMARK  5 active torsions:
REMARK  status: ('A' for Active; 'I' for Inactive)
REMARK    1  A    between atoms: C_1  and  N_2
REMARK    2  A    between atoms: N_2  and  C_3
REMARK    3  A    between atoms: C_3  and  C_4
REMARK    4  A    between atoms: C_9  and  C_11
REMARK    5  A    between atoms: C_15  and  C_16
REMARK                            x       y       z     vdW  Elec       q    Type
REMARK                         _______ _______ _______ _____ _____    ______ ____
ROOT
ATOM      1  C   UNL     1       2.256   2.560  20.136  0.00  0.00    +0.000 C 
ATOM      2  N   UNL     1       2.962   3.517  19.296  0.00  0.00    +0.000 N 
ATOM      3  C   UNL     1       4.359   3.389  19.284  0.00  0.00    +0.000 C 
ATOM      4  O   UNL     1       4.926   2.536  19.967  0.00  0.00    +0.000 OA
ENDROOT
BRANCH   3   5
ATOM      5  C   UNL     1       5.238   4.237  18.425  0.00  0.00    +0.000 A 
ATOM      6  C   UNL     1       6.020   5.286  18.921  0.00  0.00    +0.000 A 
ATOM      7  C   UNL     1       6.811   6.053  18.064  0.00  0.00    +0.000 A 
ATOM      8  C   UNL     1       6.890   5.730  16.712  0.00  0.00    +0.000 A 
ATOM      9  C   UNL     1       6.181   4.633  16.214  0.00  0.00    +0.000 A 
ATOM     10  C   UNL     1       5.349   3.898  17.068  0.00  0.00    +0.000 A 
BRANCH   9  11
ATOM     11  C   UNL     1       6.322   4.256  14.838  0.00  0.00    +0.000 C 
ATOM     12  N   UNL     1       6.429   3.968  13.719  0.00  0.00    +0.000 NA
ENDBRANCH   9  11
ENDBRANCH   3   5
BRANCH   2  13
ATOM     13  C   UNL     1       2.148   4.267  18.335  0.00  0.00    +0.000 C 
BRANCH  13  14
ATOM     14  C   UNL     1       2.248   5.741  18.553  0.00  0.00    +0.000 A 
ATOM     15  C   UNL     1       2.505   6.841  17.756  0.00  0.00    +0.000 A 
ATOM     16  C   UNL     1       2.435   7.980  18.598  0.00  0.00    +0.000 A 
ATOM     17  C   UNL     1       2.139   7.509  19.855  0.00  0.00    +0.000 A 
ATOM     18  O   UNL     1       2.027   6.157  19.839  0.00  0.00    +0.000 OA
ENDBRANCH  13  14
ENDBRANCH   2  13
TORSDOF 4
ENDMDL
MODEL 6
REMARK VINA RESULT:      -6.3      2.405      3.570
REMARK  Name = 
REMARK  5 active torsions:
REMARK  status: ('A' for Active; 'I' for Inactive)
REMARK    1  A    between atoms: C_1  and  N_2
REMARK    2  A    between atoms: N_2  and  C_3
REMARK    3  A    between atoms: C_3  and  C_4
REMARK    4  A    between atoms: C_9  and  C_11
REMARK    5  A    between atoms: C_15  and  C_16
REMARK                            x       y       z     vdW  Elec       q    Type
REMARK                         _______ _______ _______ _____ _____    ______ ____
ROOT
ATOM      1  C   UNL     1       5.900   4.347  15.156  0.00  0.00    +0.000 C 
ATOM      2  N   UNL     1       5.089   5.045  16.143  0.00  0.00    +0.000 N 
ATOM      3  C   UNL     1       4.416   4.222  17.058  0.00  0.00    +0.000 C 
ATOM      4  O   UNL     1       4.500   2.996  16.992  0.00  0.00    +0.000 OA
ENDROOT
BRANCH   3   5
ATOM      5  C   UNL     1       3.597   4.768  18.181  0.00  0.00    +0.000 A 
ATOM      6  C   UNL     1       3.076   6.066  18.195  0.00  0.00    +0.000 A 
ATOM      7  C   UNL     1       2.329   6.523  19.282  0.00  0.00    +0.000 A 
ATOM      8  C   UNL     1       2.028   5.662  20.334  0.00  0.00    +0.000 A 
ATOM      9  C   UNL     1       2.470   4.337  20.297  0.00  0.00    +0.000 A 
ATOM     10  C   UNL     1       3.262   3.897  19.229  0.00  0.00    +0.000 A 
BRANCH   9  11
ATOM     11  C   UNL     1       2.097   3.430  21.343  0.00  0.00    +0.000 C 
ATOM     12  N   UNL     1       1.784   2.711  22.199  0.00  0.00    +0.000 NA
ENDBRANCH   9  11
ENDBRANCH   3   5
BRANCH   2  13
ATOM     13  C   UNL     1       5.318   6.487  16.273  0.00  0.00    +0.000 C 
BRANCH  13  14
ATOM     14  C   UNL     1       6.468   6.788  17.176  0.00  0.00    +0.000 A 
ATOM     15  C   UNL     1       7.142   6.109  18.175  0.00  0.00    +0.000 A 
ATOM     16  C   UNL     1       8.172   6.971  18.630  0.00  0.00    +0.000 A 
ATOM     17  C   UNL     1       8.067   8.121  17.885  0.00  0.00    +0.000 A 
ATOM     18  O   UNL     1       7.038   8.021  17.005  0.00  0.00    +0.000 OA
ENDBRANCH  13  14
ENDBRANCH   2  13
TORSDOF 4
ENDMDL
MODEL 7
REMARK VINA RESULT:      -6.3      2.312      5.121
REMARK  Name = 
REMARK  5 active torsions:
REMARK  status: ('A' for Active; 'I' for Inactive)
REMARK    1  A    between atoms: C_1  and  N_2
REMARK    2  A    between atoms: N_2  and  C_3
REMARK    3  A    between atoms: C_3  and  C_4
REMARK    4  A    between atoms: C_9  and  C_11
REMARK    5  A    between atoms: C_15  and  C_16
REMARK                            x       y       z     vdW  Elec       q    Type
REMARK                         _______ _______ _______ _____ _____    ______ ____
ROOT
ATOM      1  C   UNL     1       2.165   7.132  19.352  0.00  0.00    +0.000 C 
ATOM      2  N   UNL     1       3.217   6.219  18.926  0.00  0.00    +0.000 N 
ATOM      3  C   UNL     1       4.020   6.677  17.871  0.00  0.00    +0.000 C 
ATOM      4  O   UNL     1       3.811   7.768  17.340  0.00  0.00    +0.000 OA
ENDROOT
BRANCH   3   5
ATOM      5  C   UNL     1       5.188   5.905  17.354  0.00  0.00    +0.000 A 
ATOM      6  C   UNL     1       6.304   5.581  18.133  0.00  0.00    +0.000 A 
ATOM      7  C   UNL     1       7.373   4.868  17.587  0.00  0.00    +0.000 A 
ATOM      8  C   UNL     1       7.304   4.402  16.277  0.00  0.00    +0.000 A 
ATOM      9  C   UNL     1       6.161   4.644  15.510  0.00  0.00    +0.000 A 
ATOM     10  C   UNL     1       5.113   5.404  16.045  0.00  0.00    +0.000 A 
BRANCH   9  11
ATOM     11  C   UNL     1       6.060   4.100  14.188  0.00  0.00    +0.000 C 
ATOM     12  N   UNL     1       5.978   3.640  13.125  0.00  0.00    +0.000 NA
ENDBRANCH   9  11
ENDBRANCH   3   5
BRANCH   2  13
ATOM     13  C   UNL     1       3.520   5.106  19.831  0.00  0.00    +0.000 C 
BRANCH  13  14
ATOM     14  C   UNL     1       3.386   3.784  19.149  0.00  0.00    +0.000 A 
ATOM     15  C   UNL     1       4.122   2.614  19.112  0.00  0.00    +0.000 A 
ATOM     16  C   UNL     1       3.419   1.717  18.269  0.00  0.00    +0.000 A 
ATOM     17  C   UNL     1       2.299   2.389  17.842  0.00  0.00    +0.000 A 
ATOM     18  O   UNL     1       2.271   3.640  18.367  0.00  0.00    +0.000 OA
ENDBRANCH  13  14
ENDBRANCH   2  13
TORSDOF 4
ENDMDL
MODEL 8
REMARK VINA RESULT:      -6.3      2.499      5.712
REMARK  Name = 
REMARK  5 active torsions:
REMARK  status: ('A' for Active; 'I' for Inactive)
REMARK    1  A    between atoms: C_1  and  N_2
REMARK    2  A    between atoms: N_2  and  C_3
REMARK    3  A    between atoms: C_3  and  C_4
REMARK    4  A    between atoms: C_9  and  C_11
REMARK    5  A    between atoms: C_15  and  C_16
REMARK                            x       y       z     vdW  Elec       q    Type
REMARK                         _______ _______ _______ _____ _____    ______ ____
ROOT
ATOM      1  C   UNL     1       2.660   3.068  20.377  0.00  0.00    +0.000 C 
ATOM      2  N   UNL     1       3.234   3.855  19.295  0.00  0.00    +0.000 N 
ATOM      3  C   UNL     1       4.596   3.628  19.044  0.00  0.00    +0.000 C 
ATOM      4  O   UNL     1       5.245   2.834  19.724  0.00  0.00    +0.000 OA
ENDROOT
BRANCH   3   5
ATOM      5  C   UNL     1       5.331   4.294  17.928  0.00  0.00    +0.000 A 
ATOM      6  C   UNL     1       5.266   3.864  16.598  0.00  0.00    +0.000 A 
ATOM      7  C   UNL     1       5.989   4.521  15.601  0.00  0.00    +0.000 A 
ATOM      8  C   UNL     1       6.723   5.664  15.908  0.00  0.00    +0.000 A 
ATOM      9  C   UNL     1       6.731   6.156  17.216  0.00  0.00    +0.000 A 
ATOM     10  C   UNL     1       6.046   5.465  18.223  0.00  0.00    +0.000 A 
BRANCH   9  11
ATOM     11  C   UNL     1       7.425   7.374  17.516  0.00  0.00    +0.000 C 
ATOM     12  N   UNL     1       7.969   8.371  17.759  0.00  0.00    +0.000 NA
ENDBRANCH   9  11
ENDBRANCH   3   5
BRANCH   2  13
ATOM     13  C   UNL     1       2.285   4.530  18.405  0.00  0.00    +0.000 C 
BRANCH  13  14
ATOM     14  C   UNL     1       2.253   6.005  18.642  0.00  0.00    +0.000 A 
ATOM     15  C   UNL     1       2.465   7.132  17.871  0.00  0.00    +0.000 A 
ATOM     16  C   UNL     1       2.256   8.251  18.718  0.00  0.00    +0.000 A 
ATOM     17  C   UNL     1       1.931   7.741  19.952  0.00  0.00    +0.000 A 
ATOM     18  O   UNL     1       1.929   6.384  19.917  0.00  0.00    +0.000 OA
ENDBRANCH  13  14
ENDBRANCH   2  13
TORSDOF 4
ENDMDL
MODEL 9
REMARK VINA RESULT:      -6.2      2.583      5.703
REMARK  Name = 
REMARK  5 active torsions:
REMARK  status: ('A' for Active; 'I' for Inactive)
REMARK    1  A    between atoms: C_1  and  N_2
REMARK    2  A    between atoms: N_2  and  C_3
REMARK    3  A    between atoms: C_3  and  C_4
REMARK    4  A    between atoms: C_9  and  C_11
REMARK    5  A    between atoms: C_15  and  C_16
REMARK                            x       y       z     vdW  Elec       q    Type
REMARK                         _______ _______ _______ _____ _____    ______ ____
ROOT
ATOM      1  C   UNL     1       1.984   3.746  19.654  0.00  0.00    +0.000 C 
ATOM      2  N   UNL     1       3.255   4.224  19.127  0.00  0.00    +0.000 N 
ATOM      3  C   UNL     1       3.681   3.611  17.939  0.00  0.00    +0.000 C 
ATOM      4  O   UNL     1       3.021   2.715  17.413  0.00  0.00    +0.000 OA
ENDROOT
BRANCH   3   5
ATOM      5  C   UNL     1       4.923   4.025  17.220  0.00  0.00    +0.000 A 
ATOM      6  C   UNL     1       6.050   4.544  17.866  0.00  0.00    +0.000 A 
ATOM      7  C   UNL     1       7.177   4.926  17.136  0.00  0.00    +0.000 A 
ATOM      8  C   UNL     1       7.219   4.722  15.759  0.00  0.00    +0.000 A 
ATOM      9  C   UNL     1       6.134   4.127  15.109  0.00  0.00    +0.000 A 
ATOM     10  C   UNL     1       4.986   3.792  15.838  0.00  0.00    +0.000 A 
BRANCH   9  11
ATOM     11  C   UNL     1       6.208   3.848  13.705  0.00  0.00    +0.000 C 
ATOM     12  N   UNL     1       6.285   3.632  12.567  0.00  0.00    +0.000 NA
ENDBRANCH   9  11
ENDBRANCH   3   5
BRANCH   2  13
ATOM     13  C   UNL     1       3.768   5.474  19.695  0.00  0.00    +0.000 C 
BRANCH  13  14
ATOM     14  C   UNL     1       3.157   6.671  19.045  0.00  0.00    +0.000 A 
ATOM     15  C   UNL     1       3.271   7.292  17.815  0.00  0.00    +0.000 A 
ATOM     16  C   UNL     1       2.384   8.398  17.832  0.00  0.00    +0.000 A 
ATOM     17  C   UNL     1       1.782   8.387  19.068  0.00  0.00    +0.000 A 
ATOM     18  O   UNL     1       2.245   7.349  19.809  0.00  0.00    +0.000 OA
ENDBRANCH  13  14
ENDBRANCH   2  13
TORSDOF 4
ENDMDL
