MODEL 1
REMARK VINA RESULT:      -8.1      0.000      0.000
REMARK  Name = 
REMARK  6 active torsions:
REMARK  status: ('A' for Active; 'I' for Inactive)
REMARK    1  A    between atoms: C_4  and  C_5
REMARK    2  A    between atoms: C_5  and  S_6
REMARK    3  A    between atoms: S_6  and  C_7
REMARK    4  A    between atoms: C_10  and  C_11
REMARK    5  A    between atoms: C_11  and  O_12
REMARK    6  A    between atoms: O_12  and  C_13
REMARK                            x       y       z     vdW  Elec       q    Type
REMARK                         _______ _______ _______ _____ _____    ______ ____
ROOT
ATOM      1  C   UNL     1       7.309   5.885  17.258  0.00  0.00    +0.000 A 
ATOM      2  N   UNL     1       7.801   5.672  18.462  0.00  0.00    +0.000 NA
ATOM      3  N   UNL     1       8.196   6.901  18.956  0.00  0.00    +0.000 NA
ATOM      4  C   UNL     1       7.909   7.785  18.022  0.00  0.00    +0.000 A 
ATOM      5  O   UNL     1       7.354   7.209  16.907  0.00  0.00    +0.000 OA
ENDROOT
BRANCH   1   6
ATOM      6  S   UNL     1       6.726   4.652  16.183  0.00  0.00    +0.000 S 
BRANCH   6   7
ATOM      7  C   UNL     1       5.029   5.243  15.921  0.00  0.00    +0.000 C 
BRANCH   7  11
ATOM      8  O   UNL     1       2.426   7.438  19.354  0.00  0.00    +0.000 OA
ATOM      9  C   UNL     1       2.943   6.404  18.946  0.00  0.00    +0.000 A 
ATOM     10  C   UNL     1       3.700   6.406  17.675  0.00  0.00    +0.000 A 
ATOM     11  C   UNL     1       4.278   5.273  17.238  0.00  0.00    +0.000 A 
ATOM     12  N   UNL     1       4.183   4.067  17.906  0.00  0.00    +0.000 NA
ATOM     13  C   UNL     1       3.511   4.084  19.004  0.00  0.00    +0.000 A 
ATOM     14  S   UNL     1       3.240   2.683  20.031  0.00  0.00    +0.000 S 
ATOM     15  C   UNL     1       2.315   3.647  21.150  0.00  0.00    +0.000 A 
ATOM     16  C   UNL     1       2.235   4.921  20.752  0.00  0.00    +0.000 A 
ATOM     17  N   UNL     1       2.889   5.179  19.566  0.00  0.00    +0.000 N 
ENDBRANCH   7  11
ENDBRANCH   6   7
ENDBRANCH   1   6
BRANCH   4  18
ATOM     18  C   UNL     1       8.263   9.223  17.927  0.00  0.00    +0.000 C 
BRANCH  18  19
ATOM     19  O   UNL     1       8.968   9.628  19.108  0.00  0.00    +0.000 OA
BRANCH  19  20
ATOM     20  C   UNL     1       9.639  10.825  18.982  0.00  0.00    +0.000 A 
ATOM     21  C   UNL     1      10.270  11.224  17.794  0.00  0.00    +0.000 A 
ATOM     22  C   UNL     1      10.948  12.443  17.715  0.00  0.00    +0.000 A 
ATOM     23  C   UNL     1      10.986  13.295  18.813  0.00  0.00    +0.000 A 
ATOM     24  C   UNL     1      10.335  12.931  19.991  0.00  0.00    +0.000 A 
ATOM     25  C   UNL     1       9.660  11.705  20.075  0.00  0.00    +0.000 A 
ATOM     26 CL   UNL     1       8.886  11.311  21.568  0.00  0.00    +0.000 Cl
ENDBRANCH  19  20
ENDBRANCH  18  19
ENDBRANCH   4  18
TORSDOF 6
ENDMDL
MODEL 2
REMARK VINA RESULT:      -8.1      1.541      1.774
REMARK  Name = 
REMARK  6 active torsions:
REMARK  status: ('A' for Active; 'I' for Inactive)
REMARK    1  A    between atoms: C_4  and  C_5
REMARK    2  A    between atoms: C_5  and  S_6
REMARK    3  A    between atoms: S_6  and  C_7
REMARK    4  A    between atoms: C_10  and  C_11
REMARK    5  A    between atoms: C_11  and  O_12
REMARK    6  A    between atoms: O_12  and  C_13
REMARK                            x       y       z     vdW  Elec       q    Type
REMARK                         _______ _______ _______ _____ _____    ______ ____
ROOT
ATOM      1  C   UNL     1       7.366   5.942  16.996  0.00  0.00    +0.000 A 
ATOM      2  N   UNL     1       7.746   5.687  18.233  0.00  0.00    +0.000 NA
ATOM      3  N   UNL     1       8.076   6.900  18.808  0.00  0.00    +0.000 NA
ATOM      4  C   UNL     1       7.867   7.816  17.886  0.00  0.00    +0.000 A 
ATOM      5  O   UNL     1       7.428   7.279  16.702  0.00  0.00    +0.000 OA
ENDROOT
BRANCH   1   6
ATOM      6  S   UNL     1       6.904   4.747  15.825  0.00  0.00    +0.000 S 
BRANCH   6   7
ATOM      7  C   UNL     1       5.145   5.157  15.638  0.00  0.00    +0.000 C 
BRANCH   7  11
ATOM      8  O   UNL     1       3.514   1.791  18.704  0.00  0.00    +0.000 OA
ATOM      9  C   UNL     1       3.581   2.978  18.407  0.00  0.00    +0.000 A 
ATOM     10  C   UNL     1       4.312   3.398  17.191  0.00  0.00    +0.000 A 
ATOM     11  C   UNL     1       4.371   4.700  16.860  0.00  0.00    +0.000 A 
ATOM     12  N   UNL     1       3.799   5.702  17.621  0.00  0.00    +0.000 NA
ATOM     13  C   UNL     1       3.177   5.317  18.681  0.00  0.00    +0.000 A 
ATOM     14  S   UNL     1       2.373   6.396  19.813  0.00  0.00    +0.000 S 
ATOM     15  C   UNL     1       1.888   5.043  20.800  0.00  0.00    +0.000 A 
ATOM     16  C   UNL     1       2.314   3.883  20.288  0.00  0.00    +0.000 A 
ATOM     17  N   UNL     1       3.030   4.018  19.117  0.00  0.00    +0.000 N 
ENDBRANCH   7  11
ENDBRANCH   6   7
ENDBRANCH   1   6
BRANCH   4  18
ATOM     18  C   UNL     1       8.210   9.260  17.879  0.00  0.00    +0.000 C 
BRANCH  18  19
ATOM     19  O   UNL     1       8.804   9.623  19.132  0.00  0.00    +0.000 OA
BRANCH  19  20
ATOM     20  C   UNL     1       9.651  10.708  19.063  0.00  0.00    +0.000 A 
ATOM     21  C   UNL     1      10.348  11.057  17.896  0.00  0.00    +0.000 A 
ATOM     22  C   UNL     1      11.205  12.161  17.874  0.00  0.00    +0.000 A 
ATOM     23  C   UNL     1      11.361  12.949  19.009  0.00  0.00    +0.000 A 
ATOM     24  C   UNL     1      10.649  12.638  20.167  0.00  0.00    +0.000 A 
ATOM     25  C   UNL     1       9.794  11.527  20.194  0.00  0.00    +0.000 A 
ATOM     26 CL   UNL     1       8.954  11.190  21.665  0.00  0.00    +0.000 Cl
ENDBRANCH  19  20
ENDBRANCH  18  19
ENDBRANCH   4  18
TORSDOF 6
ENDMDL
MODEL 3
REMARK VINA RESULT:      -8.0      1.571      1.589
REMARK  Name = 
REMARK  6 active torsions:
REMARK  status: ('A' for Active; 'I' for Inactive)
REMARK    1  A    between atoms: C_4  and  C_5
REMARK    2  A    between atoms: C_5  and  S_6
REMARK    3  A    between atoms: S_6  and  C_7
REMARK    4  A    between atoms: C_10  and  C_11
REMARK    5  A    between atoms: C_11  and  O_12
REMARK    6  A    between atoms: O_12  and  C_13
REMARK                            x       y       z     vdW  Elec       q    Type
REMARK                         _______ _______ _______ _____ _____    ______ ____
ROOT
ATOM      1  C   UNL     1       6.796   6.631  17.237  0.00  0.00    +0.000 A 
ATOM      2  N   UNL     1       7.545   6.134  18.201  0.00  0.00    +0.000 NA
ATOM      3  N   UNL     1       8.327   7.171  18.674  0.00  0.00    +0.000 NA
ATOM      4  C   UNL     1       7.995   8.235  17.973  0.00  0.00    +0.000 A 
ATOM      5  O   UNL     1       7.036   7.964  17.030  0.00  0.00    +0.000 OA
ENDROOT
BRANCH   1   6
ATOM      6  S   UNL     1       5.675   5.722  16.271  0.00  0.00    +0.000 S 
BRANCH   6   7
ATOM      7  C   UNL     1       5.644   4.167  17.210  0.00  0.00    +0.000 C 
BRANCH   7  11
ATOM      8  O   UNL     1       0.809   4.118  17.150  0.00  0.00    +0.000 OA
ATOM      9  C   UNL     1       1.840   3.936  17.787  0.00  0.00    +0.000 A 
ATOM     10  C   UNL     1       3.155   4.163  17.148  0.00  0.00    +0.000 A 
ATOM     11  C   UNL     1       4.284   3.975  17.854  0.00  0.00    +0.000 A 
ATOM     12  N   UNL     1       4.295   3.545  19.167  0.00  0.00    +0.000 NA
ATOM     13  C   UNL     1       3.140   3.344  19.701  0.00  0.00    +0.000 A 
ATOM     14  S   UNL     1       2.887   2.791  21.351  0.00  0.00    +0.000 S 
ATOM     15  C   UNL     1       1.158   2.827  21.127  0.00  0.00    +0.000 A 
ATOM     16  C   UNL     1       0.831   3.228  19.894  0.00  0.00    +0.000 A 
ATOM     17  N   UNL     1       1.915   3.516  19.093  0.00  0.00    +0.000 N 
ENDBRANCH   7  11
ENDBRANCH   6   7
ENDBRANCH   1   6
BRANCH   4  18
ATOM     18  C   UNL     1       8.620   9.580  17.925  0.00  0.00    +0.000 C 
BRANCH  18  19
ATOM     19  O   UNL     1       8.770  10.093  19.255  0.00  0.00    +0.000 OA
BRANCH  19  20
ATOM     20  C   UNL     1       9.813  10.981  19.404  0.00  0.00    +0.000 A 
ATOM     21  C   UNL     1      10.787  11.185  18.415  0.00  0.00    +0.000 A 
ATOM     22  C   UNL     1      11.835  12.089  18.613  0.00  0.00    +0.000 A 
ATOM     23  C   UNL     1      11.912  12.822  19.792  0.00  0.00    +0.000 A 
ATOM     24  C   UNL     1      10.934  12.659  20.771  0.00  0.00    +0.000 A 
ATOM     25  C   UNL     1       9.886  11.747  20.579  0.00  0.00    +0.000 A 
ATOM     26 CL   UNL     1       8.716  11.583  21.838  0.00  0.00    +0.000 Cl
ENDBRANCH  19  20
ENDBRANCH  18  19
ENDBRANCH   4  18
TORSDOF 6
ENDMDL
MODEL 4
REMARK VINA RESULT:      -7.8      1.256      1.361
REMARK  Name = 
REMARK  6 active torsions:
REMARK  status: ('A' for Active; 'I' for Inactive)
REMARK    1  A    between atoms: C_4  and  C_5
REMARK    2  A    between atoms: C_5  and  S_6
REMARK    3  A    between atoms: S_6  and  C_7
REMARK    4  A    between atoms: C_10  and  C_11
REMARK    5  A    between atoms: C_11  and  O_12
REMARK    6  A    between atoms: O_12  and  C_13
REMARK                            x       y       z     vdW  Elec       q    Type
REMARK                         _______ _______ _______ _____ _____    ______ ____
ROOT
ATOM      1  C   UNL     1       7.257   5.968  17.449  0.00  0.00    +0.000 A 
ATOM      2  N   UNL     1       7.857   5.950  18.623  0.00  0.00    +0.000 NA
ATOM      3  N   UNL     1       8.300   7.236  18.866  0.00  0.00    +0.000 NA
ATOM      4  C   UNL     1       7.932   7.957  17.827  0.00  0.00    +0.000 A 
ATOM      5  O   UNL     1       7.275   7.214  16.879  0.00  0.00    +0.000 OA
ENDROOT
BRANCH   1   6
ATOM      6  S   UNL     1       6.575   4.584  16.653  0.00  0.00    +0.000 S 
BRANCH   6   7
ATOM      7  C   UNL     1       4.946   5.253  16.207  0.00  0.00    +0.000 C 
BRANCH   7  11
ATOM      8  O   UNL     1       2.332   7.227  19.765  0.00  0.00    +0.000 OA
ATOM      9  C   UNL     1       2.680   6.211  19.174  0.00  0.00    +0.000 A 
ATOM     10  C   UNL     1       3.620   6.300  18.036  0.00  0.00    +0.000 A 
ATOM     11  C   UNL     1       4.010   5.182  17.399  0.00  0.00    +0.000 A 
ATOM     12  N   UNL     1       3.553   3.921  17.732  0.00  0.00    +0.000 NA
ATOM     13  C   UNL     1       2.727   3.866  18.719  0.00  0.00    +0.000 A 
ATOM     14  S   UNL     1       1.999   2.386  19.330  0.00  0.00    +0.000 S 
ATOM     15  C   UNL     1       1.126   3.283  20.542  0.00  0.00    +0.000 A 
ATOM     16  C   UNL     1       1.384   4.593  20.466  0.00  0.00    +0.000 A 
ATOM     17  N   UNL     1       2.266   4.932  19.461  0.00  0.00    +0.000 N 
ENDBRANCH   7  11
ENDBRANCH   6   7
ENDBRANCH   1   6
BRANCH   4  18
ATOM     18  C   UNL     1       8.281   9.352  17.461  0.00  0.00    +0.000 C 
BRANCH  18  19
ATOM     19  O   UNL     1       8.369  10.156  18.644  0.00  0.00    +0.000 OA
BRANCH  19  20
ATOM     20  C   UNL     1       9.354  11.120  18.600  0.00  0.00    +0.000 A 
ATOM     21  C   UNL     1      10.609  10.956  19.204  0.00  0.00    +0.000 A 
ATOM     22  C   UNL     1      11.574  11.965  19.143  0.00  0.00    +0.000 A 
ATOM     23  C   UNL     1      11.310  13.145  18.455  0.00  0.00    +0.000 A 
ATOM     24  C   UNL     1      10.081  13.311  17.819  0.00  0.00    +0.000 A 
ATOM     25  C   UNL     1       9.108  12.304  17.885  0.00  0.00    +0.000 A 
ATOM     26 CL   UNL     1       7.602  12.581  17.086  0.00  0.00    +0.000 Cl
ENDBRANCH  19  20
ENDBRANCH  18  19
ENDBRANCH   4  18
TORSDOF 6
ENDMDL
MODEL 5
REMARK VINA RESULT:      -7.7      1.603      1.913
REMARK  Name = 
REMARK  6 active torsions:
REMARK  status: ('A' for Active; 'I' for Inactive)
REMARK    1  A    between atoms: C_4  and  C_5
REMARK    2  A    between atoms: C_5  and  S_6
REMARK    3  A    between atoms: S_6  and  C_7
REMARK    4  A    between atoms: C_10  and  C_11
REMARK    5  A    between atoms: C_11  and  O_12
REMARK    6  A    between atoms: O_12  and  C_13
REMARK                            x       y       z     vdW  Elec       q    Type
REMARK                         _______ _______ _______ _____ _____    ______ ____
ROOT
ATOM      1  C   UNL     1       7.523   6.599  17.726  0.00  0.00    +0.000 A 
ATOM      2  N   UNL     1       7.041   7.496  16.889  0.00  0.00    +0.000 NA
ATOM      3  N   UNL     1       7.561   8.719  17.271  0.00  0.00    +0.000 NA
ATOM      4  C   UNL     1       8.334   8.484  18.311  0.00  0.00    +0.000 A 
ATOM      5  O   UNL     1       8.348   7.159  18.666  0.00  0.00    +0.000 OA
ENDROOT
BRANCH   1   6
ATOM      6  S   UNL     1       7.128   4.908  17.716  0.00  0.00    +0.000 S 
BRANCH   6   7
ATOM      7  C   UNL     1       5.535   4.965  16.845  0.00  0.00    +0.000 C 
BRANCH   7  11
ATOM      8  O   UNL     1       2.244   7.085  19.684  0.00  0.00    +0.000 OA
ATOM      9  C   UNL     1       2.725   6.044  19.252  0.00  0.00    +0.000 A 
ATOM     10  C   UNL     1       3.860   6.089  18.304  0.00  0.00    +0.000 A 
ATOM     11  C   UNL     1       4.394   4.943  17.844  0.00  0.00    +0.000 A 
ATOM     12  N   UNL     1       3.918   3.693  18.188  0.00  0.00    +0.000 NA
ATOM     13  C   UNL     1       2.922   3.676  19.005  0.00  0.00    +0.000 A 
ATOM     14  S   UNL     1       2.135   2.216  19.589  0.00  0.00    +0.000 S 
ATOM     15  C   UNL     1       1.024   3.163  20.541  0.00  0.00    +0.000 A 
ATOM     16  C   UNL     1       1.255   4.474  20.408  0.00  0.00    +0.000 A 
ATOM     17  N   UNL     1       2.301   4.774  19.560  0.00  0.00    +0.000 N 
ENDBRANCH   7  11
ENDBRANCH   6   7
ENDBRANCH   1   6
BRANCH   4  18
ATOM     18  C   UNL     1       9.007   9.431  19.233  0.00  0.00    +0.000 C 
BRANCH  18  19
ATOM     19  O   UNL     1       9.507  10.554  18.496  0.00  0.00    +0.000 OA
BRANCH  19  20
ATOM     20  C   UNL     1       9.836  11.641  19.276  0.00  0.00    +0.000 A 
ATOM     21  C   UNL     1       9.589  11.691  20.657  0.00  0.00    +0.000 A 
ATOM     22  C   UNL     1       9.930  12.819  21.408  0.00  0.00    +0.000 A 
ATOM     23  C   UNL     1      10.547  13.906  20.797  0.00  0.00    +0.000 A 
ATOM     24  C   UNL     1      10.832  13.860  19.433  0.00  0.00    +0.000 A 
ATOM     25  C   UNL     1      10.484  12.733  18.676  0.00  0.00    +0.000 A 
ATOM     26 CL   UNL     1      10.854  12.747  16.989  0.00  0.00    +0.000 Cl
ENDBRANCH  19  20
ENDBRANCH  18  19
ENDBRANCH   4  18
TORSDOF 6
ENDMDL
MODEL 6
REMARK VINA RESULT:      -7.6      4.611      6.465
REMARK  Name = 
REMARK  6 active torsions:
REMARK  status: ('A' for Active; 'I' for Inactive)
REMARK    1  A    between atoms: C_4  and  C_5
REMARK    2  A    between atoms: C_5  and  S_6
REMARK    3  A    between atoms: S_6  and  C_7
REMARK    4  A    between atoms: C_10  and  C_11
REMARK    5  A    between atoms: C_11  and  O_12
REMARK    6  A    between atoms: O_12  and  C_13
REMARK                            x       y       z     vdW  Elec       q    Type
REMARK                         _______ _______ _______ _____ _____    ______ ____
ROOT
ATOM      1  C   UNL     1       1.864   3.533  19.048  0.00  0.00    +0.000 A 
ATOM      2  N   UNL     1       1.294   2.803  18.110  0.00  0.00    +0.000 NA
ATOM      3  N   UNL     1       2.296   2.417  17.239  0.00  0.00    +0.000 NA
ATOM      4  C   UNL     1       3.413   2.931  17.710  0.00  0.00    +0.000 A 
ATOM      5  O   UNL     1       3.214   3.665  18.852  0.00  0.00    +0.000 OA
ENDROOT
BRANCH   1   6
ATOM      6  S   UNL     1       1.028   4.312  20.356  0.00  0.00    +0.000 S 
BRANCH   6   7
ATOM      7  C   UNL     1       2.293   5.512  20.864  0.00  0.00    +0.000 C 
BRANCH   7  11
ATOM      8  O   UNL     1       2.478   8.710  17.242  0.00  0.00    +0.000 OA
ATOM      9  C   UNL     1       2.100   8.451  18.379  0.00  0.00    +0.000 A 
ATOM     10  C   UNL     1       2.416   7.138  18.984  0.00  0.00    +0.000 A 
ATOM     11  C   UNL     1       2.011   6.863  20.237  0.00  0.00    +0.000 A 
ATOM     12  N   UNL     1       1.274   7.743  21.006  0.00  0.00    +0.000 NA
ATOM     13  C   UNL     1       1.000   8.876  20.457  0.00  0.00    +0.000 A 
ATOM     14  S   UNL     1       0.074  10.158  21.223  0.00  0.00    +0.000 S 
ATOM     15  C   UNL     1       0.241  11.163  19.809  0.00  0.00    +0.000 A 
ATOM     16  C   UNL     1       0.946  10.550  18.851  0.00  0.00    +0.000 A 
ATOM     17  N   UNL     1       1.371   9.284  19.193  0.00  0.00    +0.000 N 
ENDBRANCH   7  11
ENDBRANCH   6   7
ENDBRANCH   1   6
BRANCH   4  18
ATOM     18  C   UNL     1       4.766   2.991  17.103  0.00  0.00    +0.000 C 
BRANCH  18  19
ATOM     19  O   UNL     1       4.951   4.256  16.455  0.00  0.00    +0.000 OA
BRANCH  19  20
ATOM     20  C   UNL     1       5.876   5.075  17.067  0.00  0.00    +0.000 A 
ATOM     21  C   UNL     1       6.759   4.619  18.057  0.00  0.00    +0.000 A 
ATOM     22  C   UNL     1       7.674   5.488  18.659  0.00  0.00    +0.000 A 
ATOM     23  C   UNL     1       7.739   6.819  18.263  0.00  0.00    +0.000 A 
ATOM     24  C   UNL     1       6.893   7.281  17.256  0.00  0.00    +0.000 A 
ATOM     25  C   UNL     1       5.969   6.414  16.656  0.00  0.00    +0.000 A 
ATOM     26 CL   UNL     1       4.941   7.055  15.425  0.00  0.00    +0.000 Cl
ENDBRANCH  19  20
ENDBRANCH  18  19
ENDBRANCH   4  18
TORSDOF 6
ENDMDL
MODEL 7
REMARK VINA RESULT:      -7.6      2.323      2.509
REMARK  Name = 
REMARK  6 active torsions:
REMARK  status: ('A' for Active; 'I' for Inactive)
REMARK    1  A    between atoms: C_4  and  C_5
REMARK    2  A    between atoms: C_5  and  S_6
REMARK    3  A    between atoms: S_6  and  C_7
REMARK    4  A    between atoms: C_10  and  C_11
REMARK    5  A    between atoms: C_11  and  O_12
REMARK    6  A    between atoms: O_12  and  C_13
REMARK                            x       y       z     vdW  Elec       q    Type
REMARK                         _______ _______ _______ _____ _____    ______ ____
ROOT
ATOM      1  C   UNL     1       7.609   6.828  17.988  0.00  0.00    +0.000 A 
ATOM      2  N   UNL     1       7.015   7.590  17.091  0.00  0.00    +0.000 NA
ATOM      3  N   UNL     1       7.510   8.870  17.262  0.00  0.00    +0.000 NA
ATOM      4  C   UNL     1       8.381   8.801  18.248  0.00  0.00    +0.000 A 
ATOM      5  O   UNL     1       8.486   7.535  18.768  0.00  0.00    +0.000 OA
ENDROOT
BRANCH   1   6
ATOM      6  S   UNL     1       7.293   5.139  18.232  0.00  0.00    +0.000 S 
BRANCH   6   7
ATOM      7  C   UNL     1       6.067   4.858  16.922  0.00  0.00    +0.000 C 
BRANCH   7  11
ATOM      8  O   UNL     1       2.249   1.917  17.319  0.00  0.00    +0.000 OA
ATOM      9  C   UNL     1       2.837   2.913  17.723  0.00  0.00    +0.000 A 
ATOM     10  C   UNL     1       4.109   3.329  17.093  0.00  0.00    +0.000 A 
ATOM     11  C   UNL     1       4.744   4.432  17.529  0.00  0.00    +0.000 A 
ATOM     12  N   UNL     1       4.284   5.207  18.576  0.00  0.00    +0.000 NA
ATOM     13  C   UNL     1       3.180   4.822  19.118  0.00  0.00    +0.000 A 
ATOM     14  S   UNL     1       2.395   5.632  20.466  0.00  0.00    +0.000 S 
ATOM     15  C   UNL     1       1.107   4.457  20.458  0.00  0.00    +0.000 A 
ATOM     16  C   UNL     1       1.285   3.539  19.501  0.00  0.00    +0.000 A 
ATOM     17  N   UNL     1       2.429   3.726  18.753  0.00  0.00    +0.000 N 
ENDBRANCH   7  11
ENDBRANCH   6   7
ENDBRANCH   1   6
BRANCH   4  18
ATOM     18  C   UNL     1       9.087   9.884  18.975  0.00  0.00    +0.000 C 
BRANCH  18  19
ATOM     19  O   UNL     1       9.649  10.811  18.036  0.00  0.00    +0.000 OA
BRANCH  19  20
ATOM     20  C   UNL     1       9.141  12.089  18.131  0.00  0.00    +0.000 A 
ATOM     21  C   UNL     1       8.007  12.512  17.422  0.00  0.00    +0.000 A 
ATOM     22  C   UNL     1       7.533  13.821  17.540  0.00  0.00    +0.000 A 
ATOM     23  C   UNL     1       8.168  14.722  18.389  0.00  0.00    +0.000 A 
ATOM     24  C   UNL     1       9.275  14.308  19.128  0.00  0.00    +0.000 A 
ATOM     25  C   UNL     1       9.758  12.998  19.005  0.00  0.00    +0.000 A 
ATOM     26 CL   UNL     1      11.141  12.556  19.940  0.00  0.00    +0.000 Cl
ENDBRANCH  19  20
ENDBRANCH  18  19
ENDBRANCH   4  18
TORSDOF 6
ENDMDL
MODEL 8
REMARK VINA RESULT:      -7.6      1.187      1.561
REMARK  Name = 
REMARK  6 active torsions:
REMARK  status: ('A' for Active; 'I' for Inactive)
REMARK    1  A    between atoms: C_4  and  C_5
REMARK    2  A    between atoms: C_5  and  S_6
REMARK    3  A    between atoms: S_6  and  C_7
REMARK    4  A    between atoms: C_10  and  C_11
REMARK    5  A    between atoms: C_11  and  O_12
REMARK    6  A    between atoms: O_12  and  C_13
REMARK                            x       y       z     vdW  Elec       q    Type
REMARK                         _______ _______ _______ _____ _____    ______ ____
ROOT
ATOM      1  C   UNL     1       7.340   6.344  17.334  0.00  0.00    +0.000 A 
ATOM      2  N   UNL     1       7.985   6.198  18.474  0.00  0.00    +0.000 NA
ATOM      3  N   UNL     1       8.350   7.464  18.892  0.00  0.00    +0.000 NA
ATOM      4  C   UNL     1       7.894   8.300  17.982  0.00  0.00    +0.000 A 
ATOM      5  O   UNL     1       7.252   7.658  16.953  0.00  0.00    +0.000 OA
ENDROOT
BRANCH   1   6
ATOM      6  S   UNL     1       6.721   5.046  16.361  0.00  0.00    +0.000 S 
BRANCH   6   7
ATOM      7  C   UNL     1       5.045   5.668  16.040  0.00  0.00    +0.000 C 
BRANCH   7  11
ATOM      8  O   UNL     1       2.238   7.773  19.368  0.00  0.00    +0.000 OA
ATOM      9  C   UNL     1       2.798   6.755  18.977  0.00  0.00    +0.000 A 
ATOM     10  C   UNL     1       3.611   6.785  17.741  0.00  0.00    +0.000 A 
ATOM     11  C   UNL     1       4.236   5.670  17.323  0.00  0.00    +0.000 A 
ATOM     12  N   UNL     1       4.141   4.457  17.978  0.00  0.00    +0.000 NA
ATOM     13  C   UNL     1       3.421   4.450  19.046  0.00  0.00    +0.000 A 
ATOM     14  S   UNL     1       3.140   3.035  20.051  0.00  0.00    +0.000 S 
ATOM     15  C   UNL     1       2.142   3.967  21.134  0.00  0.00    +0.000 A 
ATOM     16  C   UNL     1       2.048   5.242  20.740  0.00  0.00    +0.000 A 
ATOM     17  N   UNL     1       2.748   5.525  19.586  0.00  0.00    +0.000 N 
ENDBRANCH   7  11
ENDBRANCH   6   7
ENDBRANCH   1   6
BRANCH   4  18
ATOM     18  C   UNL     1       8.134   9.755  17.816  0.00  0.00    +0.000 C 
BRANCH  18  19
ATOM     19  O   UNL     1       9.518  10.048  18.051  0.00  0.00    +0.000 OA
BRANCH  19  20
ATOM     20  C   UNL     1       9.741  10.929  19.087  0.00  0.00    +0.000 A 
ATOM     21  C   UNL     1       9.118  10.807  20.338  0.00  0.00    +0.000 A 
ATOM     22  C   UNL     1       9.367  11.731  21.357  0.00  0.00    +0.000 A 
ATOM     23  C   UNL     1      10.260  12.777  21.151  0.00  0.00    +0.000 A 
ATOM     24  C   UNL     1      10.914  12.893  19.926  0.00  0.00    +0.000 A 
ATOM     25  C   UNL     1      10.661  11.973  18.899  0.00  0.00    +0.000 A 
ATOM     26 CL   UNL     1      11.496  12.183  17.402  0.00  0.00    +0.000 Cl
ENDBRANCH  19  20
ENDBRANCH  18  19
ENDBRANCH   4  18
TORSDOF 6
ENDMDL
MODEL 9
REMARK VINA RESULT:      -7.5      3.710      7.038
REMARK  Name = 
REMARK  6 active torsions:
REMARK  status: ('A' for Active; 'I' for Inactive)
REMARK    1  A    between atoms: C_4  and  C_5
REMARK    2  A    between atoms: C_5  and  S_6
REMARK    3  A    between atoms: S_6  and  C_7
REMARK    4  A    between atoms: C_10  and  C_11
REMARK    5  A    between atoms: C_11  and  O_12
REMARK    6  A    between atoms: O_12  and  C_13
REMARK                            x       y       z     vdW  Elec       q    Type
REMARK                         _______ _______ _______ _____ _____    ______ ____
ROOT
ATOM      1  C   UNL     1       2.111   3.865  19.163  0.00  0.00    +0.000 A 
ATOM      2  N   UNL     1       2.433   3.323  20.321  0.00  0.00    +0.000 NA
ATOM      3  N   UNL     1       2.200   4.281  21.290  0.00  0.00    +0.000 NA
ATOM      4  C   UNL     1       1.741   5.341  20.659  0.00  0.00    +0.000 A 
ATOM      5  O   UNL     1       1.671   5.155  19.301  0.00  0.00    +0.000 OA
ENDROOT
BRANCH   1   6
ATOM      6  S   UNL     1       2.279   3.094  17.617  0.00  0.00    +0.000 S 
BRANCH   6   7
ATOM      7  C   UNL     1       4.048   2.685  17.661  0.00  0.00    +0.000 C 
BRANCH   7  11
ATOM      8  O   UNL     1       5.200   6.783  15.368  0.00  0.00    +0.000 OA
ATOM      9  C   UNL     1       5.421   6.019  16.300  0.00  0.00    +0.000 A 
ATOM     10  C   UNL     1       4.622   4.783  16.451  0.00  0.00    +0.000 A 
ATOM     11  C   UNL     1       4.877   3.940  17.467  0.00  0.00    +0.000 A 
ATOM     12  N   UNL     1       5.847   4.175  18.422  0.00  0.00    +0.000 NA
ATOM     13  C   UNL     1       6.525   5.262  18.279  0.00  0.00    +0.000 A 
ATOM     14  S   UNL     1       7.805   5.789  19.362  0.00  0.00    +0.000 S 
ATOM     15  C   UNL     1       8.062   7.223  18.405  0.00  0.00    +0.000 A 
ATOM     16  C   UNL     1       7.231   7.271  17.358  0.00  0.00    +0.000 A 
ATOM     17  N   UNL     1       6.373   6.194  17.276  0.00  0.00    +0.000 N 
ENDBRANCH   7  11
ENDBRANCH   6   7
ENDBRANCH   1   6
BRANCH   4  18
ATOM     18  C   UNL     1       1.486   6.715  21.160  0.00  0.00    +0.000 C 
BRANCH  18  19
ATOM     19  O   UNL     1       1.948   7.674  20.201  0.00  0.00    +0.000 OA
BRANCH  19  20
ATOM     20  C   UNL     1       1.170   8.810  20.118  0.00  0.00    +0.000 A 
ATOM     21  C   UNL     1       0.404   9.288  21.192  0.00  0.00    +0.000 A 
ATOM     22  C   UNL     1      -0.379  10.438  21.059  0.00  0.00    +0.000 A 
ATOM     23  C   UNL     1      -0.389  11.143  19.861  0.00  0.00    +0.000 A 
ATOM     24  C   UNL     1       0.393  10.703  18.795  0.00  0.00    +0.000 A 
ATOM     25  C   UNL     1       1.174   9.545  18.922  0.00  0.00    +0.000 A 
ATOM     26 CL   UNL     1       2.109   9.048  17.558  0.00  0.00    +0.000 Cl
ENDBRANCH  19  20
ENDBRANCH  18  19
ENDBRANCH   4  18
TORSDOF 6
ENDMDL
