MODEL 1
REMARK VINA RESULT:      -8.2      0.000      0.000
REMARK  Name = 
REMARK  7 active torsions:
REMARK  status: ('A' for Active; 'I' for Inactive)
REMARK    1  A    between atoms: C_1  and  O_2
REMARK    2  A    between atoms: O_2  and  C_3
REMARK    3  A    between atoms: C_6  and  C_7
REMARK    4  A    between atoms: C_7  and  C_8
REMARK    5  A    between atoms: N_10  and  C_11
REMARK    6  A    between atoms: C_15  and  C_16
REMARK    7  A    between atoms: C_19  and  C_20
REMARK                            x       y       z     vdW  Elec       q    Type
REMARK                         _______ _______ _______ _____ _____    ______ ____
ROOT
ATOM      1  C   UNL     1       3.103   4.739  20.143  0.00  0.00    +0.000 A 
ATOM      2  C   UNL     1       2.266   4.187  21.167  0.00  0.00    +0.000 A 
ATOM      3  C   UNL     1       2.520   2.859  21.418  0.00  0.00    +0.000 A 
ATOM      4  S   UNL     1       3.718   2.240  20.381  0.00  0.00    +0.000 S 
ATOM      5  C   UNL     1       3.946   3.764  19.627  0.00  0.00    +0.000 A 
ENDROOT
BRANCH   5   6
ATOM      6  C   UNL     1       4.992   3.980  18.571  0.00  0.00    +0.000 A 
ATOM      7  N   UNL     1       6.272   4.256  18.846  0.00  0.00    +0.000 NA
ATOM      8  N   UNL     1       6.792   4.449  17.628  0.00  0.00    +0.000 N 
ATOM      9  C   UNL     1       5.852   4.290  16.653  0.00  0.00    +0.000 A 
ATOM     10  N   UNL     1       4.703   3.956  17.222  0.00  0.00    +0.000 NA
ATOM     11  H   UNL     1       7.772   4.705  17.536  0.00  0.00    +0.000 HD
BRANCH   9  12
ATOM     12  C   UNL     1       6.208   4.519  15.237  0.00  0.00    +0.000 C 
ATOM     13  F   UNL     1       5.319   5.358  14.636  0.00  0.00    +0.000 F 
ATOM     14  F   UNL     1       7.431   5.088  15.100  0.00  0.00    +0.000 F 
ATOM     15  F   UNL     1       6.209   3.373  14.514  0.00  0.00    +0.000 F 
ENDBRANCH   9  12
ENDBRANCH   5   6
BRANCH   1  18
ATOM     16  C   UNL     1       2.490   6.507  18.539  0.00  0.00    +0.000 C 
ATOM     17  O   UNL     1       1.836   5.810  17.762  0.00  0.00    +0.000 OA
ATOM     18  N   UNL     1       3.096   6.069  19.704  0.00  0.00    +0.000 N 
ATOM     19  H   UNL     1       3.454   6.757  20.365  0.00  0.00    +0.000 HD
BRANCH  16  20
ATOM     20  C   UNL     1       2.657   7.991  18.270  0.00  0.00    +0.000 C 
BRANCH  20  24
ATOM     21  C   UNL     1      -0.495  10.524  19.817  0.00  0.00    +0.000 A 
ATOM     22  C   UNL     1      -0.228  10.462  18.449  0.00  0.00    +0.000 A 
ATOM     23  C   UNL     1       0.781   9.631  17.957  0.00  0.00    +0.000 A 
ATOM     24  C   UNL     1       1.561   8.864  18.833  0.00  0.00    +0.000 A 
ATOM     25  C   UNL     1       1.257   8.898  20.200  0.00  0.00    +0.000 A 
ATOM     26  C   UNL     1       0.247   9.732  20.691  0.00  0.00    +0.000 A 
BRANCH  21  28
ATOM     27  C   UNL     1      -2.154  12.059  19.109  0.00  0.00    +0.000 C 
ATOM     28  O   UNL     1      -1.475  11.407  20.175  0.00  0.00    +0.000 OA
ENDBRANCH  21  28
ENDBRANCH  20  24
ENDBRANCH  16  20
ENDBRANCH   1  18
TORSDOF 6
ENDMDL
MODEL 2
REMARK VINA RESULT:      -8.1      1.372      1.538
REMARK  Name = 
REMARK  7 active torsions:
REMARK  status: ('A' for Active; 'I' for Inactive)
REMARK    1  A    between atoms: C_1  and  O_2
REMARK    2  A    between atoms: O_2  and  C_3
REMARK    3  A    between atoms: C_6  and  C_7
REMARK    4  A    between atoms: C_7  and  C_8
REMARK    5  A    between atoms: N_10  and  C_11
REMARK    6  A    between atoms: C_15  and  C_16
REMARK    7  A    between atoms: C_19  and  C_20
REMARK                            x       y       z     vdW  Elec       q    Type
REMARK                         _______ _______ _______ _____ _____    ______ ____
ROOT
ATOM      1  C   UNL     1       2.160   4.896  19.328  0.00  0.00    +0.000 A 
ATOM      2  C   UNL     1       1.096   4.463  20.185  0.00  0.00    +0.000 A 
ATOM      3  C   UNL     1       1.412   3.345  20.921  0.00  0.00    +0.000 A 
ATOM      4  S   UNL     1       2.964   2.759  20.540  0.00  0.00    +0.000 S 
ATOM      5  C   UNL     1       3.245   4.035  19.430  0.00  0.00    +0.000 A 
ENDROOT
BRANCH   5   6
ATOM      6  C   UNL     1       4.557   4.192  18.715  0.00  0.00    +0.000 A 
ATOM      7  N   UNL     1       5.740   3.917  19.276  0.00  0.00    +0.000 NA
ATOM      8  N   UNL     1       6.603   4.281  18.319  0.00  0.00    +0.000 N 
ATOM      9  C   UNL     1       5.955   4.757  17.218  0.00  0.00    +0.000 A 
ATOM     10  N   UNL     1       4.649   4.679  17.427  0.00  0.00    +0.000 NA
ATOM     11  H   UNL     1       7.602   4.202  18.489  0.00  0.00    +0.000 HD
BRANCH   9  12
ATOM     12  C   UNL     1       6.729   5.270  16.068  0.00  0.00    +0.000 C 
ATOM     13  F   UNL     1       5.905   5.769  15.105  0.00  0.00    +0.000 F 
ATOM     14  F   UNL     1       7.568   6.275  16.419  0.00  0.00    +0.000 F 
ATOM     15  F   UNL     1       7.475   4.305  15.478  0.00  0.00    +0.000 F 
ENDBRANCH   9  12
ENDBRANCH   5   6
BRANCH   1  18
ATOM     16  C   UNL     1       2.181   7.330  18.944  0.00  0.00    +0.000 C 
ATOM     17  O   UNL     1       2.294   7.685  20.118  0.00  0.00    +0.000 OA
ATOM     18  N   UNL     1       2.139   6.021  18.495  0.00  0.00    +0.000 N 
ATOM     19  H   UNL     1       2.229   5.837  17.496  0.00  0.00    +0.000 HD
BRANCH  16  20
ATOM     20  C   UNL     1       2.109   8.370  17.841  0.00  0.00    +0.000 C 
BRANCH  20  24
ATOM     21  C   UNL     1      -0.536  11.701  18.650  0.00  0.00    +0.000 A 
ATOM     22  C   UNL     1       0.846  11.826  18.802  0.00  0.00    +0.000 A 
ATOM     23  C   UNL     1       1.692  10.750  18.525  0.00  0.00    +0.000 A 
ATOM     24  C   UNL     1       1.167   9.518  18.113  0.00  0.00    +0.000 A 
ATOM     25  C   UNL     1      -0.217   9.415  17.920  0.00  0.00    +0.000 A 
ATOM     26  C   UNL     1      -1.064  10.493  18.199  0.00  0.00    +0.000 A 
BRANCH  21  28
ATOM     27  C   UNL     1      -2.397  12.586  19.816  0.00  0.00    +0.000 C 
ATOM     28  O   UNL     1      -1.258  12.809  18.995  0.00  0.00    +0.000 OA
ENDBRANCH  21  28
ENDBRANCH  20  24
ENDBRANCH  16  20
ENDBRANCH   1  18
TORSDOF 6
ENDMDL
MODEL 3
REMARK VINA RESULT:      -8.0      1.408      1.528
REMARK  Name = 
REMARK  7 active torsions:
REMARK  status: ('A' for Active; 'I' for Inactive)
REMARK    1  A    between atoms: C_1  and  O_2
REMARK    2  A    between atoms: O_2  and  C_3
REMARK    3  A    between atoms: C_6  and  C_7
REMARK    4  A    between atoms: C_7  and  C_8
REMARK    5  A    between atoms: N_10  and  C_11
REMARK    6  A    between atoms: C_15  and  C_16
REMARK    7  A    between atoms: C_19  and  C_20
REMARK                            x       y       z     vdW  Elec       q    Type
REMARK                         _______ _______ _______ _____ _____    ______ ____
ROOT
ATOM      1  C   UNL     1       2.197   5.034  19.426  0.00  0.00    +0.000 A 
ATOM      2  C   UNL     1       1.122   4.627  20.284  0.00  0.00    +0.000 A 
ATOM      3  C   UNL     1       1.391   3.472  20.980  0.00  0.00    +0.000 A 
ATOM      4  S   UNL     1       2.907   2.823  20.562  0.00  0.00    +0.000 S 
ATOM      5  C   UNL     1       3.239   4.118  19.488  0.00  0.00    +0.000 A 
ENDROOT
BRANCH   5   6
ATOM      6  C   UNL     1       4.549   4.232  18.761  0.00  0.00    +0.000 A 
ATOM      7  N   UNL     1       5.718   3.845  19.283  0.00  0.00    +0.000 NA
ATOM      8  N   UNL     1       6.591   4.211  18.336  0.00  0.00    +0.000 N 
ATOM      9  C   UNL     1       5.962   4.797  17.277  0.00  0.00    +0.000 A 
ATOM     10  N   UNL     1       4.656   4.792  17.504  0.00  0.00    +0.000 NA
ATOM     11  H   UNL     1       7.584   4.055  18.483  0.00  0.00    +0.000 HD
BRANCH   9  12
ATOM     12  C   UNL     1       6.752   5.329  16.148  0.00  0.00    +0.000 C 
ATOM     13  F   UNL     1       5.943   5.782  15.152  0.00  0.00    +0.000 F 
ATOM     14  F   UNL     1       7.536   6.372  16.515  0.00  0.00    +0.000 F 
ATOM     15  F   UNL     1       7.558   4.389  15.596  0.00  0.00    +0.000 F 
ENDBRANCH   9  12
ENDBRANCH   5   6
BRANCH   1  18
ATOM     16  C   UNL     1       2.169   7.479  19.117  0.00  0.00    +0.000 C 
ATOM     17  O   UNL     1       2.144   7.798  20.306  0.00  0.00    +0.000 OA
ATOM     18  N   UNL     1       2.222   6.184  18.629  0.00  0.00    +0.000 N 
ATOM     19  H   UNL     1       2.423   6.036  17.640  0.00  0.00    +0.000 HD
BRANCH  16  20
ATOM     20  C   UNL     1       2.175   8.550  18.043  0.00  0.00    +0.000 C 
BRANCH  20  24
ATOM     21  C   UNL     1      -0.895  11.571  18.485  0.00  0.00    +0.000 A 
ATOM     22  C   UNL     1      -1.201  10.301  17.995  0.00  0.00    +0.000 A 
ATOM     23  C   UNL     1      -0.207   9.328  17.869  0.00  0.00    +0.000 A 
ATOM     24  C   UNL     1       1.121   9.619  18.209  0.00  0.00    +0.000 A 
ATOM     25  C   UNL     1       1.411  10.882  18.743  0.00  0.00    +0.000 A 
ATOM     26  C   UNL     1       0.414  11.856  18.867  0.00  0.00    +0.000 A 
BRANCH  21  28
ATOM     27  C   UNL     1      -3.233  11.876  18.712  0.00  0.00    +0.000 C 
ATOM     28  O   UNL     1      -1.945  12.446  18.518  0.00  0.00    +0.000 OA
ENDBRANCH  21  28
ENDBRANCH  20  24
ENDBRANCH  16  20
ENDBRANCH   1  18
TORSDOF 6
ENDMDL
MODEL 4
REMARK VINA RESULT:      -8.0      1.264      1.636
REMARK  Name = 
REMARK  7 active torsions:
REMARK  status: ('A' for Active; 'I' for Inactive)
REMARK    1  A    between atoms: C_1  and  O_2
REMARK    2  A    between atoms: O_2  and  C_3
REMARK    3  A    between atoms: C_6  and  C_7
REMARK    4  A    between atoms: C_7  and  C_8
REMARK    5  A    between atoms: N_10  and  C_11
REMARK    6  A    between atoms: C_15  and  C_16
REMARK    7  A    between atoms: C_19  and  C_20
REMARK                            x       y       z     vdW  Elec       q    Type
REMARK                         _______ _______ _______ _____ _____    ______ ____
ROOT
ATOM      1  C   UNL     1       2.231   4.995  19.418  0.00  0.00    +0.000 A 
ATOM      2  C   UNL     1       1.226   4.680  20.390  0.00  0.00    +0.000 A 
ATOM      3  C   UNL     1       1.511   3.550  21.120  0.00  0.00    +0.000 A 
ATOM      4  S   UNL     1       2.954   2.813  20.602  0.00  0.00    +0.000 S 
ATOM      5  C   UNL     1       3.237   4.037  19.435  0.00  0.00    +0.000 A 
ENDROOT
BRANCH   5   6
ATOM      6  C   UNL     1       4.477   4.055  18.587  0.00  0.00    +0.000 A 
ATOM      7  N   UNL     1       5.716   4.028  19.092  0.00  0.00    +0.000 NA
ATOM      8  N   UNL     1       6.475   4.147  17.996  0.00  0.00    +0.000 N 
ATOM      9  C   UNL     1       5.714   4.240  16.868  0.00  0.00    +0.000 A 
ATOM     10  N   UNL     1       4.437   4.148  17.211  0.00  0.00    +0.000 NA
ATOM     11  H   UNL     1       7.487   4.182  18.088  0.00  0.00    +0.000 HD
BRANCH   9  12
ATOM     12  C   UNL     1       6.358   4.438  15.554  0.00  0.00    +0.000 C 
ATOM     13  F   UNL     1       7.707   4.571  15.683  0.00  0.00    +0.000 F 
ATOM     14  F   UNL     1       6.150   3.393  14.716  0.00  0.00    +0.000 F 
ATOM     15  F   UNL     1       5.917   5.556  14.927  0.00  0.00    +0.000 F 
ENDBRANCH   9  12
ENDBRANCH   5   6
BRANCH   1  18
ATOM     16  C   UNL     1       2.175   7.420  18.982  0.00  0.00    +0.000 C 
ATOM     17  O   UNL     1       2.173   7.801  20.152  0.00  0.00    +0.000 OA
ATOM     18  N   UNL     1       2.229   6.102  18.561  0.00  0.00    +0.000 N 
ATOM     19  H   UNL     1       2.410   5.903  17.577  0.00  0.00    +0.000 HD
BRANCH  16  20
ATOM     20  C   UNL     1       2.148   8.433  17.853  0.00  0.00    +0.000 C 
BRANCH  20  24
ATOM     21  C   UNL     1      -0.062  12.051  18.732  0.00  0.00    +0.000 A 
ATOM     22  C   UNL     1      -0.718  10.833  18.555  0.00  0.00    +0.000 A 
ATOM     23  C   UNL     1       0.004   9.667  18.287  0.00  0.00    +0.000 A 
ATOM     24  C   UNL     1       1.400   9.708  18.163  0.00  0.00    +0.000 A 
ATOM     25  C   UNL     1       2.054  10.926  18.386  0.00  0.00    +0.000 A 
ATOM     26  C   UNL     1       1.329  12.092  18.654  0.00  0.00    +0.000 A 
BRANCH  21  28
ATOM     27  C   UNL     1      -1.949  12.925  19.863  0.00  0.00    +0.000 C 
ATOM     28  O   UNL     1      -0.882  13.124  18.945  0.00  0.00    +0.000 OA
ENDBRANCH  21  28
ENDBRANCH  20  24
ENDBRANCH  16  20
ENDBRANCH   1  18
TORSDOF 6
ENDMDL
MODEL 5
REMARK VINA RESULT:      -8.0      0.198      1.220
REMARK  Name = 
REMARK  7 active torsions:
REMARK  status: ('A' for Active; 'I' for Inactive)
REMARK    1  A    between atoms: C_1  and  O_2
REMARK    2  A    between atoms: O_2  and  C_3
REMARK    3  A    between atoms: C_6  and  C_7
REMARK    4  A    between atoms: C_7  and  C_8
REMARK    5  A    between atoms: N_10  and  C_11
REMARK    6  A    between atoms: C_15  and  C_16
REMARK    7  A    between atoms: C_19  and  C_20
REMARK                            x       y       z     vdW  Elec       q    Type
REMARK                         _______ _______ _______ _____ _____    ______ ____
ROOT
ATOM      1  C   UNL     1       2.977   4.815  20.200  0.00  0.00    +0.000 A 
ATOM      2  C   UNL     1       2.109   4.300  21.217  0.00  0.00    +0.000 A 
ATOM      3  C   UNL     1       2.340   2.975  21.508  0.00  0.00    +0.000 A 
ATOM      4  S   UNL     1       3.554   2.315  20.516  0.00  0.00    +0.000 S 
ATOM      5  C   UNL     1       3.819   3.816  19.730  0.00  0.00    +0.000 A 
ENDROOT
BRANCH   5   6
ATOM      6  C   UNL     1       4.893   3.992  18.693  0.00  0.00    +0.000 A 
ATOM      7  N   UNL     1       6.186   4.158  18.993  0.00  0.00    +0.000 NA
ATOM      8  N   UNL     1       6.736   4.357  17.788  0.00  0.00    +0.000 N 
ATOM      9  C   UNL     1       5.800   4.310  16.798  0.00  0.00    +0.000 A 
ATOM     10  N   UNL     1       4.621   4.043  17.341  0.00  0.00    +0.000 NA
ATOM     11  H   UNL     1       7.733   4.540  17.717  0.00  0.00    +0.000 HD
BRANCH   9  12
ATOM     12  C   UNL     1       6.191   4.566  15.396  0.00  0.00    +0.000 C 
ATOM     13  F   UNL     1       6.263   3.406  14.687  0.00  0.00    +0.000 F 
ATOM     14  F   UNL     1       5.302   5.360  14.751  0.00  0.00    +0.000 F 
ATOM     15  F   UNL     1       7.408   5.155  15.301  0.00  0.00    +0.000 F 
ENDBRANCH   9  12
ENDBRANCH   5   6
BRANCH   1  18
ATOM     16  C   UNL     1       2.422   6.549  18.539  0.00  0.00    +0.000 C 
ATOM     17  O   UNL     1       1.775   5.841  17.766  0.00  0.00    +0.000 OA
ATOM     18  N   UNL     1       2.998   6.133  19.727  0.00  0.00    +0.000 N 
ATOM     19  H   UNL     1       3.352   6.833  20.377  0.00  0.00    +0.000 HD
BRANCH  16  20
ATOM     20  C   UNL     1       2.616   8.023  18.236  0.00  0.00    +0.000 C 
BRANCH  20  24
ATOM     21  C   UNL     1      -0.486  10.586  19.835  0.00  0.00    +0.000 A 
ATOM     22  C   UNL     1       0.286   9.781  20.674  0.00  0.00    +0.000 A 
ATOM     23  C   UNL     1       1.294   8.968  20.151  0.00  0.00    +0.000 A 
ATOM     24  C   UNL     1       1.531   8.928  18.770  0.00  0.00    +0.000 A 
ATOM     25  C   UNL     1       0.782   9.772  17.940  0.00  0.00    +0.000 A 
ATOM     26  C   UNL     1      -0.228  10.585  18.466  0.00  0.00    +0.000 A 
BRANCH  21  28
ATOM     27  C   UNL     1      -2.146  12.267  19.670  0.00  0.00    +0.000 C 
ATOM     28  O   UNL     1      -1.468  11.300  20.462  0.00  0.00    +0.000 OA
ENDBRANCH  21  28
ENDBRANCH  20  24
ENDBRANCH  16  20
ENDBRANCH   1  18
TORSDOF 6
ENDMDL
MODEL 6
REMARK VINA RESULT:      -8.0      2.038      2.276
REMARK  Name = 
REMARK  7 active torsions:
REMARK  status: ('A' for Active; 'I' for Inactive)
REMARK    1  A    between atoms: C_1  and  O_2
REMARK    2  A    between atoms: O_2  and  C_3
REMARK    3  A    between atoms: C_6  and  C_7
REMARK    4  A    between atoms: C_7  and  C_8
REMARK    5  A    between atoms: N_10  and  C_11
REMARK    6  A    between atoms: C_15  and  C_16
REMARK    7  A    between atoms: C_19  and  C_20
REMARK                            x       y       z     vdW  Elec       q    Type
REMARK                         _______ _______ _______ _____ _____    ______ ____
ROOT
ATOM      1  C   UNL     1       2.440   4.776  18.168  0.00  0.00    +0.000 A 
ATOM      2  C   UNL     1       1.313   3.894  18.252  0.00  0.00    +0.000 A 
ATOM      3  C   UNL     1       1.652   2.614  18.626  0.00  0.00    +0.000 A 
ATOM      4  S   UNL     1       3.334   2.438  18.812  0.00  0.00    +0.000 S 
ATOM      5  C   UNL     1       3.614   4.091  18.451  0.00  0.00    +0.000 A 
ENDROOT
BRANCH   5   6
ATOM      6  C   UNL     1       4.989   4.694  18.502  0.00  0.00    +0.000 A 
ATOM      7  N   UNL     1       5.950   4.269  19.332  0.00  0.00    +0.000 NA
ATOM      8  N   UNL     1       6.941   5.137  19.091  0.00  0.00    +0.000 N 
ATOM      9  C   UNL     1       6.585   6.051  18.143  0.00  0.00    +0.000 A 
ATOM     10  N   UNL     1       5.359   5.772  17.725  0.00  0.00    +0.000 NA
ATOM     11  H   UNL     1       7.809   5.064  19.614  0.00  0.00    +0.000 HD
BRANCH   9  12
ATOM     12  C   UNL     1       7.517   7.136  17.774  0.00  0.00    +0.000 C 
ATOM     13  F   UNL     1       6.881   8.339  17.738  0.00  0.00    +0.000 F 
ATOM     14  F   UNL     1       8.535   7.263  18.660  0.00  0.00    +0.000 F 
ATOM     15  F   UNL     1       8.065   6.950  16.549  0.00  0.00    +0.000 F 
ENDBRANCH   9  12
ENDBRANCH   5   6
BRANCH   1  18
ATOM     16  C   UNL     1       2.297   7.159  18.780  0.00  0.00    +0.000 C 
ATOM     17  O   UNL     1       2.287   7.018  20.003  0.00  0.00    +0.000 OA
ATOM     18  N   UNL     1       2.396   6.139  17.850  0.00  0.00    +0.000 N 
ATOM     19  H   UNL     1       2.579   6.374  16.875  0.00  0.00    +0.000 HD
BRANCH  16  20
ATOM     20  C   UNL     1       2.230   8.549  18.175  0.00  0.00    +0.000 C 
BRANCH  20  24
ATOM     21  C   UNL     1      -1.123  10.962  19.472  0.00  0.00    +0.000 A 
ATOM     22  C   UNL     1      -1.098  10.390  18.200  0.00  0.00    +0.000 A 
ATOM     23  C   UNL     1      -0.019   9.601  17.795  0.00  0.00    +0.000 A 
ATOM     24  C   UNL     1       1.070   9.392  18.651  0.00  0.00    +0.000 A 
ATOM     25  C   UNL     1       1.016   9.933  19.943  0.00  0.00    +0.000 A 
ATOM     26  C   UNL     1      -0.064  10.724  20.346  0.00  0.00    +0.000 A 
BRANCH  21  28
ATOM     27  C   UNL     1      -1.939  13.085  20.131  0.00  0.00    +0.000 C 
ATOM     28  O   UNL     1      -2.211  11.748  19.731  0.00  0.00    +0.000 OA
ENDBRANCH  21  28
ENDBRANCH  20  24
ENDBRANCH  16  20
ENDBRANCH   1  18
TORSDOF 6
ENDMDL
MODEL 7
REMARK VINA RESULT:      -7.9      1.895      2.219
REMARK  Name = 
REMARK  7 active torsions:
REMARK  status: ('A' for Active; 'I' for Inactive)
REMARK    1  A    between atoms: C_1  and  O_2
REMARK    2  A    between atoms: O_2  and  C_3
REMARK    3  A    between atoms: C_6  and  C_7
REMARK    4  A    between atoms: C_7  and  C_8
REMARK    5  A    between atoms: N_10  and  C_11
REMARK    6  A    between atoms: C_15  and  C_16
REMARK    7  A    between atoms: C_19  and  C_20
REMARK                            x       y       z     vdW  Elec       q    Type
REMARK                         _______ _______ _______ _____ _____    ______ ____
ROOT
ATOM      1  C   UNL     1       2.136   5.026  19.430  0.00  0.00    +0.000 A 
ATOM      2  C   UNL     1       1.016   4.499  20.155  0.00  0.00    +0.000 A 
ATOM      3  C   UNL     1       1.338   3.417  20.940  0.00  0.00    +0.000 A 
ATOM      4  S   UNL     1       2.972   2.976  20.765  0.00  0.00    +0.000 S 
ATOM      5  C   UNL     1       3.273   4.269  19.680  0.00  0.00    +0.000 A 
ENDROOT
BRANCH   5   6
ATOM      6  C   UNL     1       4.645   4.543  19.131  0.00  0.00    +0.000 A 
ATOM      7  N   UNL     1       5.661   3.677  19.219  0.00  0.00    +0.000 NA
ATOM      8  N   UNL     1       6.676   4.370  18.688  0.00  0.00    +0.000 N 
ATOM      9  C   UNL     1       6.278   5.613  18.292  0.00  0.00    +0.000 A 
ATOM     10  N   UNL     1       4.981   5.738  18.529  0.00  0.00    +0.000 NA
ATOM     11  H   UNL     1       7.601   3.952  18.648  0.00  0.00    +0.000 HD
BRANCH   9  12
ATOM     12  C   UNL     1       7.263   6.562  17.733  0.00  0.00    +0.000 C 
ATOM     13  F   UNL     1       6.705   7.787  17.531  0.00  0.00    +0.000 F 
ATOM     14  F   UNL     1       8.321   6.750  18.558  0.00  0.00    +0.000 F 
ATOM     15  F   UNL     1       7.748   6.154  16.535  0.00  0.00    +0.000 F 
ENDBRANCH   9  12
ENDBRANCH   5   6
BRANCH   1  18
ATOM     16  C   UNL     1       2.055   7.454  19.020  0.00  0.00    +0.000 C 
ATOM     17  O   UNL     1       2.059   7.824  20.195  0.00  0.00    +0.000 OA
ATOM     18  N   UNL     1       2.117   6.142  18.585  0.00  0.00    +0.000 N 
ATOM     19  H   UNL     1       2.292   5.955  17.598  0.00  0.00    +0.000 HD
BRANCH  16  20
ATOM     20  C   UNL     1       2.010   8.480  17.902  0.00  0.00    +0.000 C 
BRANCH  20  24
ATOM     21  C   UNL     1      -0.485  11.928  18.695  0.00  0.00    +0.000 A 
ATOM     22  C   UNL     1       0.902  11.999  18.825  0.00  0.00    +0.000 A 
ATOM     23  C   UNL     1       1.700  10.885  18.553  0.00  0.00    +0.000 A 
ATOM     24  C   UNL     1       1.119   9.670  18.170  0.00  0.00    +0.000 A 
ATOM     25  C   UNL     1      -0.271   9.620  17.998  0.00  0.00    +0.000 A 
ATOM     26  C   UNL     1      -1.069  10.735  18.272  0.00  0.00    +0.000 A 
BRANCH  21  28
ATOM     27  C   UNL     1      -1.244  13.360  20.421  0.00  0.00    +0.000 C 
ATOM     28  O   UNL     1      -1.157  13.070  19.032  0.00  0.00    +0.000 OA
ENDBRANCH  21  28
ENDBRANCH  20  24
ENDBRANCH  16  20
ENDBRANCH   1  18
TORSDOF 6
ENDMDL
MODEL 8
REMARK VINA RESULT:      -7.9      2.105      2.529
REMARK  Name = 
REMARK  7 active torsions:
REMARK  status: ('A' for Active; 'I' for Inactive)
REMARK    1  A    between atoms: C_1  and  O_2
REMARK    2  A    between atoms: O_2  and  C_3
REMARK    3  A    between atoms: C_6  and  C_7
REMARK    4  A    between atoms: C_7  and  C_8
REMARK    5  A    between atoms: N_10  and  C_11
REMARK    6  A    between atoms: C_15  and  C_16
REMARK    7  A    between atoms: C_19  and  C_20
REMARK                            x       y       z     vdW  Elec       q    Type
REMARK                         _______ _______ _______ _____ _____    ______ ____
ROOT
ATOM      1  C   UNL     1       2.511   4.996  18.715  0.00  0.00    +0.000 A 
ATOM      2  C   UNL     1       1.374   4.189  19.049  0.00  0.00    +0.000 A 
ATOM      3  C   UNL     1       1.705   3.038  19.725  0.00  0.00    +0.000 A 
ATOM      4  S   UNL     1       3.389   2.876  19.906  0.00  0.00    +0.000 S 
ATOM      5  C   UNL     1       3.683   4.378  19.132  0.00  0.00    +0.000 A 
ENDROOT
BRANCH   5   6
ATOM      6  C   UNL     1       5.068   4.943  18.994  0.00  0.00    +0.000 A 
ATOM      7  N   UNL     1       6.097   4.570  19.764  0.00  0.00    +0.000 NA
ATOM      8  N   UNL     1       7.076   5.383  19.348  0.00  0.00    +0.000 N 
ATOM      9  C   UNL     1       6.646   6.215  18.357  0.00  0.00    +0.000 A 
ATOM     10  N   UNL     1       5.381   5.934  18.086  0.00  0.00    +0.000 NA
ATOM     11  H   UNL     1       7.990   5.334  19.791  0.00  0.00    +0.000 HD
BRANCH   9  12
ATOM     12  C   UNL     1       7.559   7.235  17.799  0.00  0.00    +0.000 C 
ATOM     13  F   UNL     1       8.641   7.420  18.606  0.00  0.00    +0.000 F 
ATOM     14  F   UNL     1       8.040   6.883  16.582  0.00  0.00    +0.000 F 
ATOM     15  F   UNL     1       6.962   8.444  17.667  0.00  0.00    +0.000 F 
ENDBRANCH   9  12
ENDBRANCH   5   6
BRANCH   1  18
ATOM     16  C   UNL     1       2.278   7.449  18.697  0.00  0.00    +0.000 C 
ATOM     17  O   UNL     1       2.154   7.616  19.911  0.00  0.00    +0.000 OA
ATOM     18  N   UNL     1       2.478   6.235  18.064  0.00  0.00    +0.000 N 
ATOM     19  H   UNL     1       2.749   6.228  17.081  0.00  0.00    +0.000 HD
BRANCH  16  20
ATOM     20  C   UNL     1       2.248   8.643  17.760  0.00  0.00    +0.000 C 
BRANCH  20  24
ATOM     21  C   UNL     1      -0.686  11.669  18.748  0.00  0.00    +0.000 A 
ATOM     22  C   UNL     1       0.677  11.901  18.935  0.00  0.00    +0.000 A 
ATOM     23  C   UNL     1       1.618  10.924  18.600  0.00  0.00    +0.000 A 
ATOM     24  C   UNL     1       1.206   9.684  18.094  0.00  0.00    +0.000 A 
ATOM     25  C   UNL     1      -0.161   9.477  17.867  0.00  0.00    +0.000 A 
ATOM     26  C   UNL     1      -1.101  10.456  18.204  0.00  0.00    +0.000 A 
BRANCH  21  28
ATOM     27  C   UNL     1      -0.959  13.592  20.103  0.00  0.00    +0.000 C 
ATOM     28  O   UNL     1      -1.506  12.684  19.155  0.00  0.00    +0.000 OA
ENDBRANCH  21  28
ENDBRANCH  20  24
ENDBRANCH  16  20
ENDBRANCH   1  18
TORSDOF 6
ENDMDL
MODEL 9
REMARK VINA RESULT:      -7.8      3.447      4.460
REMARK  Name = 
REMARK  7 active torsions:
REMARK  status: ('A' for Active; 'I' for Inactive)
REMARK    1  A    between atoms: C_1  and  O_2
REMARK    2  A    between atoms: O_2  and  C_3
REMARK    3  A    between atoms: C_6  and  C_7
REMARK    4  A    between atoms: C_7  and  C_8
REMARK    5  A    between atoms: N_10  and  C_11
REMARK    6  A    between atoms: C_15  and  C_16
REMARK    7  A    between atoms: C_19  and  C_20
REMARK                            x       y       z     vdW  Elec       q    Type
REMARK                         _______ _______ _______ _____ _____    ______ ____
ROOT
ATOM      1  C   UNL     1       5.292   5.290  17.144  0.00  0.00    +0.000 A 
ATOM      2  C   UNL     1       4.826   4.281  16.238  0.00  0.00    +0.000 A 
ATOM      3  C   UNL     1       5.744   3.959  15.266  0.00  0.00    +0.000 A 
ATOM      4  S   UNL     1       7.149   4.911  15.387  0.00  0.00    +0.000 S 
ATOM      5  C   UNL     1       6.560   5.721  16.778  0.00  0.00    +0.000 A 
ENDROOT
BRANCH   5   6
ATOM      6  C   UNL     1       7.385   6.737  17.516  0.00  0.00    +0.000 A 
ATOM      7  N   UNL     1       7.995   6.486  18.681  0.00  0.00    +0.000 NA
ATOM      8  N   UNL     1       8.520   7.678  18.992  0.00  0.00    +0.000 N 
ATOM      9  C   UNL     1       8.235   8.613  18.041  0.00  0.00    +0.000 A 
ATOM     10  N   UNL     1       7.544   8.033  17.070  0.00  0.00    +0.000 NA
ATOM     11  H   UNL     1       9.031   7.788  19.864  0.00  0.00    +0.000 HD
BRANCH   9  12
ATOM     12  C   UNL     1       8.673  10.012  18.223  0.00  0.00    +0.000 C 
ATOM     13  F   UNL     1       9.887  10.226  17.645  0.00  0.00    +0.000 F 
ATOM     14  F   UNL     1       7.815  10.897  17.661  0.00  0.00    +0.000 F 
ATOM     15  F   UNL     1       8.802  10.344  19.531  0.00  0.00    +0.000 F 
ENDBRANCH   9  12
ENDBRANCH   5   6
BRANCH   1  18
ATOM     16  C   UNL     1       3.241   5.588  18.478  0.00  0.00    +0.000 C 
ATOM     17  O   UNL     1       2.486   4.910  17.780  0.00  0.00    +0.000 OA
ATOM     18  N   UNL     1       4.592   5.788  18.249  0.00  0.00    +0.000 N 
ATOM     19  H   UNL     1       5.161   6.212  18.982  0.00  0.00    +0.000 HD
BRANCH  16  20
ATOM     20  C   UNL     1       2.715   6.264  19.730  0.00  0.00    +0.000 C 
BRANCH  20  24
ATOM     21  C   UNL     1       0.862  10.133  19.140  0.00  0.00    +0.000 A 
ATOM     22  C   UNL     1       0.812   9.493  20.378  0.00  0.00    +0.000 A 
ATOM     23  C   UNL     1       1.425   8.252  20.564  0.00  0.00    +0.000 A 
ATOM     24  C   UNL     1       2.079   7.615  19.501  0.00  0.00    +0.000 A 
ATOM     25  C   UNL     1       2.163   8.284  18.273  0.00  0.00    +0.000 A 
ATOM     26  C   UNL     1       1.548   9.527  18.089  0.00  0.00    +0.000 A 
BRANCH  21  28
ATOM     27  C   UNL     1      -0.934  11.453  19.938  0.00  0.00    +0.000 C 
ATOM     28  O   UNL     1       0.187  11.319  19.074  0.00  0.00    +0.000 OA
ENDBRANCH  21  28
ENDBRANCH  20  24
ENDBRANCH  16  20
ENDBRANCH   1  18
TORSDOF 6
ENDMDL
