MODEL 1
REMARK VINA RESULT:      -7.0      0.000      0.000
REMARK  Name = 
REMARK  4 active torsions:
REMARK  status: ('A' for Active; 'I' for Inactive)
REMARK    1  A    between atoms: C_2  and  C_3
REMARK    2  A    between atoms: C_17  and  O_18
REMARK    3  A    between atoms: O_18  and  C_19
REMARK    4  A    between atoms: C_19  and  C_20
REMARK                            x       y       z     vdW  Elec       q    Type
REMARK                         _______ _______ _______ _____ _____    ______ ____
ROOT
ATOM      1  O   UNL     1       5.027   3.289  20.171  0.00  0.00    +0.000 OA
ATOM      2  C   UNL     1       4.140   4.010  19.707  0.00  0.00    +0.000 C 
ATOM      3  N   UNL     1       4.309   5.374  19.445  0.00  0.00    +0.000 N 
ATOM      4  C   UNL     1       3.220   6.309  19.100  0.00  0.00    +0.000 C 
ATOM      5  C   UNL     1       3.347   6.801  17.642  0.00  0.00    +0.000 C 
ATOM      6  O   UNL     1       4.671   7.299  17.350  0.00  0.00    +0.000 OA
ATOM      7  C   UNL     1       5.638   6.274  17.639  0.00  0.00    +0.000 C 
ATOM      8  C   UNL     1       5.616   5.963  19.140  0.00  0.00    +0.000 C 
ATOM      9  C   UNL     1       6.919   5.203  19.325  0.00  0.00    +0.000 C 
ATOM     10  C   UNL     1       7.914   5.908  18.389  0.00  0.00    +0.000 C 
ATOM     11  C   UNL     1       7.082   6.702  17.363  0.00  0.00    +0.000 C 
ENDROOT
BRANCH   2  12
ATOM     12  C   UNL     1       2.816   3.369  19.437  0.00  0.00    +0.000 A 
ATOM     13  C   UNL     1       2.519   2.880  18.177  0.00  0.00    +0.000 A 
ATOM     14  N   UNL     1       1.353   2.215  17.907  0.00  0.00    +0.000 NA
ATOM     15  C   UNL     1       0.507   2.077  18.957  0.00  0.00    +0.000 A 
ATOM     16  C   UNL     1       0.789   2.597  20.207  0.00  0.00    +0.000 A 
ATOM     17  N   UNL     1       1.922   3.278  20.466  0.00  0.00    +0.000 NA
ENDBRANCH   2  12
BRANCH  11  18
ATOM     18  O   UNL     1       7.505   6.362  16.033  0.00  0.00    +0.000 OA
BRANCH  18  19
ATOM     19  C   UNL     1       7.476   4.951  15.791  0.00  0.00    +0.000 C 
BRANCH  19  20
ATOM     20  C   UNL     1       7.080   4.614  14.377  0.00  0.00    +0.000 A 
ATOM     21  C   UNL     1       7.790   5.031  13.250  0.00  0.00    +0.000 A 
ATOM     22  C   UNL     1       7.349   4.663  11.980  0.00  0.00    +0.000 A 
ATOM     23  C   UNL     1       6.208   3.885  11.875  0.00  0.00    +0.000 A 
ATOM     24  N   UNL     1       5.490   3.464  12.937  0.00  0.00    +0.000 NA
ATOM     25  C   UNL     1       5.942   3.838  14.156  0.00  0.00    +0.000 A 
ENDBRANCH  19  20
ENDBRANCH  18  19
ENDBRANCH  11  18
TORSDOF 4
ENDMDL
MODEL 2
REMARK VINA RESULT:      -6.8      0.637      1.023
REMARK  Name = 
REMARK  4 active torsions:
REMARK  status: ('A' for Active; 'I' for Inactive)
REMARK    1  A    between atoms: C_2  and  C_3
REMARK    2  A    between atoms: C_17  and  O_18
REMARK    3  A    between atoms: O_18  and  C_19
REMARK    4  A    between atoms: C_19  and  C_20
REMARK                            x       y       z     vdW  Elec       q    Type
REMARK                         _______ _______ _______ _____ _____    ______ ____
ROOT
ATOM      1  O   UNL     1       5.136   3.233  20.278  0.00  0.00    +0.000 OA
ATOM      2  C   UNL     1       4.229   3.939  19.829  0.00  0.00    +0.000 C 
ATOM      3  N   UNL     1       4.382   5.298  19.532  0.00  0.00    +0.000 N 
ATOM      4  C   UNL     1       3.277   6.221  19.206  0.00  0.00    +0.000 C 
ATOM      5  C   UNL     1       3.350   6.682  17.734  0.00  0.00    +0.000 C 
ATOM      6  O   UNL     1       4.661   7.179  17.384  0.00  0.00    +0.000 OA
ATOM      7  C   UNL     1       5.643   6.163  17.662  0.00  0.00    +0.000 C 
ATOM      8  C   UNL     1       5.675   5.885  19.168  0.00  0.00    +0.000 C 
ATOM      9  C   UNL     1       6.987   5.134  19.323  0.00  0.00    +0.000 C 
ATOM     10  C   UNL     1       7.945   5.823  18.338  0.00  0.00    +0.000 C 
ATOM     11  C   UNL     1       7.074   6.591  17.325  0.00  0.00    +0.000 C 
ENDROOT
BRANCH   2  12
ATOM     12  C   UNL     1       2.899   3.287  19.620  0.00  0.00    +0.000 A 
ATOM     13  C   UNL     1       2.013   3.153  20.674  0.00  0.00    +0.000 A 
ATOM     14  N   UNL     1       0.755   2.637  20.509  0.00  0.00    +0.000 NA
ATOM     15  C   UNL     1       0.444   2.257  19.246  0.00  0.00    +0.000 A 
ATOM     16  C   UNL     1       1.344   2.358  18.200  0.00  0.00    +0.000 A 
ATOM     17  N   UNL     1       2.592   2.838  18.367  0.00  0.00    +0.000 NA
ENDBRANCH   2  12
BRANCH  11  18
ATOM     18  O   UNL     1       7.451   6.224  15.989  0.00  0.00    +0.000 OA
BRANCH  18  19
ATOM     19  C   UNL     1       7.034   4.897  15.645  0.00  0.00    +0.000 C 
BRANCH  19  20
ATOM     20  C   UNL     1       7.025   4.661  14.157  0.00  0.00    +0.000 A 
ATOM     21  C   UNL     1       7.824   5.363  13.253  0.00  0.00    +0.000 A 
ATOM     22  C   UNL     1       7.752   5.069  11.893  0.00  0.00    +0.000 A 
ATOM     23  C   UNL     1       6.880   4.076  11.476  0.00  0.00    +0.000 A 
ATOM     24  N   UNL     1       6.089   3.375  12.315  0.00  0.00    +0.000 NA
ATOM     25  C   UNL     1       6.180   3.685  13.628  0.00  0.00    +0.000 A 
ENDBRANCH  19  20
ENDBRANCH  18  19
ENDBRANCH  11  18
TORSDOF 4
ENDMDL
MODEL 3
REMARK VINA RESULT:      -6.8      1.127      1.607
REMARK  Name = 
REMARK  4 active torsions:
REMARK  status: ('A' for Active; 'I' for Inactive)
REMARK    1  A    between atoms: C_2  and  C_3
REMARK    2  A    between atoms: C_17  and  O_18
REMARK    3  A    between atoms: O_18  and  C_19
REMARK    4  A    between atoms: C_19  and  C_20
REMARK                            x       y       z     vdW  Elec       q    Type
REMARK                         _______ _______ _______ _____ _____    ______ ____
ROOT
ATOM      1  O   UNL     1       5.252   2.851  19.517  0.00  0.00    +0.000 OA
ATOM      2  C   UNL     1       4.353   3.695  19.470  0.00  0.00    +0.000 C 
ATOM      3  N   UNL     1       4.574   5.045  19.174  0.00  0.00    +0.000 N 
ATOM      4  C   UNL     1       3.571   6.117  19.320  0.00  0.00    +0.000 C 
ATOM      5  C   UNL     1       3.150   6.680  17.946  0.00  0.00    +0.000 C 
ATOM      6  O   UNL     1       4.289   7.042  17.134  0.00  0.00    +0.000 OA
ATOM      7  C   UNL     1       5.148   5.896  16.987  0.00  0.00    +0.000 C 
ATOM      8  C   UNL     1       5.705   5.498  18.358  0.00  0.00    +0.000 C 
ATOM      9  C   UNL     1       6.858   4.585  17.978  0.00  0.00    +0.000 C 
ATOM     10  C   UNL     1       7.463   5.229  16.719  0.00  0.00    +0.000 C 
ATOM     11  C   UNL     1       6.393   6.174  16.139  0.00  0.00    +0.000 C 
ENDROOT
BRANCH   2  12
ATOM     12  C   UNL     1       2.965   3.227  19.770  0.00  0.00    +0.000 A 
ATOM     13  C   UNL     1       2.531   3.116  21.078  0.00  0.00    +0.000 A 
ATOM     14  N   UNL     1       1.244   2.770  21.395  0.00  0.00    +0.000 NA
ATOM     15  C   UNL     1       0.429   2.534  20.338  0.00  0.00    +0.000 A 
ATOM     16  C   UNL     1       0.874   2.610  19.030  0.00  0.00    +0.000 A 
ATOM     17  N   UNL     1       2.147   2.921  18.718  0.00  0.00    +0.000 NA
ENDBRANCH   2  12
BRANCH  11  18
ATOM     18  O   UNL     1       6.183   5.871  14.751  0.00  0.00    +0.000 OA
BRANCH  18  19
ATOM     19  C   UNL     1       7.102   4.889  14.257  0.00  0.00    +0.000 C 
BRANCH  19  20
ATOM     20  C   UNL     1       6.497   4.013  13.192  0.00  0.00    +0.000 A 
ATOM     21  C   UNL     1       7.245   3.248  12.296  0.00  0.00    +0.000 A 
ATOM     22  C   UNL     1       6.595   2.461  11.348  0.00  0.00    +0.000 A 
ATOM     23  C   UNL     1       5.210   2.461  11.325  0.00  0.00    +0.000 A 
ATOM     24  N   UNL     1       4.448   3.187  12.170  0.00  0.00    +0.000 NA
ATOM     25  C   UNL     1       5.108   3.942  13.077  0.00  0.00    +0.000 A 
ENDBRANCH  19  20
ENDBRANCH  18  19
ENDBRANCH  11  18
TORSDOF 4
ENDMDL
MODEL 4
REMARK VINA RESULT:      -6.7      5.685      8.804
REMARK  Name = 
REMARK  4 active torsions:
REMARK  status: ('A' for Active; 'I' for Inactive)
REMARK    1  A    between atoms: C_2  and  C_3
REMARK    2  A    between atoms: C_17  and  O_18
REMARK    3  A    between atoms: O_18  and  C_19
REMARK    4  A    between atoms: C_19  and  C_20
REMARK                            x       y       z     vdW  Elec       q    Type
REMARK                         _______ _______ _______ _____ _____    ______ ____
ROOT
ATOM      1  O   UNL     1       2.663  12.464  17.940  0.00  0.00    +0.000 OA
ATOM      2  C   UNL     1       1.863  12.548  18.876  0.00  0.00    +0.000 C 
ATOM      3  N   UNL     1       0.840  11.622  19.103  0.00  0.00    +0.000 N 
ATOM      4  C   UNL     1      -0.262  11.800  20.070  0.00  0.00    +0.000 C 
ATOM      5  C   UNL     1      -0.146  10.801  21.241  0.00  0.00    +0.000 C 
ATOM      6  O   UNL     1       0.024   9.442  20.780  0.00  0.00    +0.000 OA
ATOM      7  C   UNL     1       1.176   9.373  19.921  0.00  0.00    +0.000 C 
ATOM      8  C   UNL     1       0.930  10.224  18.670  0.00  0.00    +0.000 C 
ATOM      9  C   UNL     1       2.015   9.727  17.730  0.00  0.00    +0.000 C 
ATOM     10  C   UNL     1       2.099   8.216  18.001  0.00  0.00    +0.000 C 
ATOM     11  C   UNL     1       1.446   7.968  19.375  0.00  0.00    +0.000 C 
ENDROOT
BRANCH   2  12
ATOM     12  C   UNL     1       2.006  13.724  19.789  0.00  0.00    +0.000 A 
ATOM     13  C   UNL     1       1.462  14.948  19.443  0.00  0.00    +0.000 A 
ATOM     14  N   UNL     1       1.499  16.027  20.285  0.00  0.00    +0.000 NA
ATOM     15  C   UNL     1       2.115  15.817  21.474  0.00  0.00    +0.000 A 
ATOM     16  C   UNL     1       2.690  14.603  21.803  0.00  0.00    +0.000 A 
ATOM     17  N   UNL     1       2.680  13.548  20.964  0.00  0.00    +0.000 NA
ENDBRANCH   2  12
BRANCH  11  18
ATOM     18  O   UNL     1       2.348   7.225  20.210  0.00  0.00    +0.000 OA
BRANCH  18  19
ATOM     19  C   UNL     1       3.041   6.196  19.493  0.00  0.00    +0.000 C 
BRANCH  19  20
ATOM     20  C   UNL     1       2.235   4.930  19.373  0.00  0.00    +0.000 A 
ATOM     21  C   UNL     1       1.684   4.253  20.462  0.00  0.00    +0.000 A 
ATOM     22  C   UNL     1       0.945   3.090  20.252  0.00  0.00    +0.000 A 
ATOM     23  C   UNL     1       0.777   2.639  18.953  0.00  0.00    +0.000 A 
ATOM     24  N   UNL     1       1.294   3.260  17.873  0.00  0.00    +0.000 NA
ATOM     25  C   UNL     1       2.008   4.384  18.110  0.00  0.00    +0.000 A 
ENDBRANCH  19  20
ENDBRANCH  18  19
ENDBRANCH  11  18
TORSDOF 4
ENDMDL
MODEL 5
REMARK VINA RESULT:      -6.7      0.769      1.370
REMARK  Name = 
REMARK  4 active torsions:
REMARK  status: ('A' for Active; 'I' for Inactive)
REMARK    1  A    between atoms: C_2  and  C_3
REMARK    2  A    between atoms: C_17  and  O_18
REMARK    3  A    between atoms: O_18  and  C_19
REMARK    4  A    between atoms: C_19  and  C_20
REMARK                            x       y       z     vdW  Elec       q    Type
REMARK                         _______ _______ _______ _____ _____    ______ ____
ROOT
ATOM      1  O   UNL     1       5.259   3.166  20.153  0.00  0.00    +0.000 OA
ATOM      2  C   UNL     1       4.321   3.857  19.748  0.00  0.00    +0.000 C 
ATOM      3  N   UNL     1       4.424   5.230  19.499  0.00  0.00    +0.000 N 
ATOM      4  C   UNL     1       3.283   6.127  19.227  0.00  0.00    +0.000 C 
ATOM      5  C   UNL     1       3.313   6.644  17.773  0.00  0.00    +0.000 C 
ATOM      6  O   UNL     1       4.600   7.197  17.419  0.00  0.00    +0.000 OA
ATOM      7  C   UNL     1       5.619   6.206  17.640  0.00  0.00    +0.000 C 
ATOM      8  C   UNL     1       5.690   5.874  19.134  0.00  0.00    +0.000 C 
ATOM      9  C   UNL     1       7.029   5.162  19.238  0.00  0.00    +0.000 C 
ATOM     10  C   UNL     1       7.945   5.919  18.262  0.00  0.00    +0.000 C 
ATOM     11  C   UNL     1       7.029   6.694  17.295  0.00  0.00    +0.000 C 
ENDROOT
BRANCH   2  12
ATOM     12  C   UNL     1       3.010   3.169  19.538  0.00  0.00    +0.000 A 
ATOM     13  C   UNL     1       2.094   3.080  20.571  0.00  0.00    +0.000 A 
ATOM     14  N   UNL     1       0.851   2.532  20.399  0.00  0.00    +0.000 NA
ATOM     15  C   UNL     1       0.585   2.072  19.152  0.00  0.00    +0.000 A 
ATOM     16  C   UNL     1       1.515   2.129  18.130  0.00  0.00    +0.000 A 
ATOM     17  N   UNL     1       2.749   2.641  18.305  0.00  0.00    +0.000 NA
ENDBRANCH   2  12
BRANCH  11  18
ATOM     18  O   UNL     1       7.392   6.389  15.939  0.00  0.00    +0.000 OA
BRANCH  18  19
ATOM     19  C   UNL     1       7.532   4.982  15.710  0.00  0.00    +0.000 C 
BRANCH  19  20
ATOM     20  C   UNL     1       6.909   4.542  14.411  0.00  0.00    +0.000 A 
ATOM     21  C   UNL     1       5.630   3.994  14.308  0.00  0.00    +0.000 A 
ATOM     22  C   UNL     1       5.135   3.623  13.060  0.00  0.00    +0.000 A 
ATOM     23  C   UNL     1       5.937   3.813  11.947  0.00  0.00    +0.000 A 
ATOM     24  N   UNL     1       7.179   4.336  12.001  0.00  0.00    +0.000 NA
ATOM     25  C   UNL     1       7.632   4.685  13.227  0.00  0.00    +0.000 A 
ENDBRANCH  19  20
ENDBRANCH  18  19
ENDBRANCH  11  18
TORSDOF 4
ENDMDL
MODEL 6
REMARK VINA RESULT:      -6.7      5.827      8.869
REMARK  Name = 
REMARK  4 active torsions:
REMARK  status: ('A' for Active; 'I' for Inactive)
REMARK    1  A    between atoms: C_2  and  C_3
REMARK    2  A    between atoms: C_17  and  O_18
REMARK    3  A    between atoms: O_18  and  C_19
REMARK    4  A    between atoms: C_19  and  C_20
REMARK                            x       y       z     vdW  Elec       q    Type
REMARK                         _______ _______ _______ _____ _____    ______ ____
ROOT
ATOM      1  O   UNL     1       2.132  12.706  18.243  0.00  0.00    +0.000 OA
ATOM      2  C   UNL     1       1.350  12.626  19.195  0.00  0.00    +0.000 C 
ATOM      3  N   UNL     1       0.437  11.580  19.359  0.00  0.00    +0.000 N 
ATOM      4  C   UNL     1      -0.654  11.558  20.354  0.00  0.00    +0.000 C 
ATOM      5  C   UNL     1      -0.405  10.484  21.434  0.00  0.00    +0.000 C 
ATOM      6  O   UNL     1      -0.103   9.194  20.858  0.00  0.00    +0.000 OA
ATOM      7  C   UNL     1       1.029   9.321  19.978  0.00  0.00    +0.000 C 
ATOM      8  C   UNL     1       0.664  10.240  18.808  0.00  0.00    +0.000 C 
ATOM      9  C   UNL     1       1.772   9.942  17.813  0.00  0.00    +0.000 C 
ATOM     10  C   UNL     1       2.023   8.432  17.954  0.00  0.00    +0.000 C 
ATOM     11  C   UNL     1       1.433   8.003  19.311  0.00  0.00    +0.000 C 
ENDROOT
BRANCH   2  12
ATOM     12  C   UNL     1       1.390  13.731  20.202  0.00  0.00    +0.000 A 
ATOM     13  C   UNL     1       2.323  13.714  21.223  0.00  0.00    +0.000 A 
ATOM     14  N   UNL     1       2.447  14.744  22.117  0.00  0.00    +0.000 NA
ATOM     15  C   UNL     1       1.586  15.776  21.938  0.00  0.00    +0.000 A 
ATOM     16  C   UNL     1       0.630  15.776  20.938  0.00  0.00    +0.000 A 
ATOM     17  N   UNL     1       0.487  14.749  20.077  0.00  0.00    +0.000 NA
ENDBRANCH   2  12
BRANCH  11  18
ATOM     18  O   UNL     1       2.428   7.294  20.067  0.00  0.00    +0.000 OA
BRANCH  18  19
ATOM     19  C   UNL     1       3.065   6.261  19.306  0.00  0.00    +0.000 C 
BRANCH  19  20
ATOM     20  C   UNL     1       2.263   4.987  19.274  0.00  0.00    +0.000 A 
ATOM     21  C   UNL     1       1.754   4.360  20.413  0.00  0.00    +0.000 A 
ATOM     22  C   UNL     1       1.015   3.185  20.283  0.00  0.00    +0.000 A 
ATOM     23  C   UNL     1       0.805   2.672  19.014  0.00  0.00    +0.000 A 
ATOM     24  N   UNL     1       1.281   3.243  17.888  0.00  0.00    +0.000 NA
ATOM     25  C   UNL     1       1.996   4.381  18.046  0.00  0.00    +0.000 A 
ENDBRANCH  19  20
ENDBRANCH  18  19
ENDBRANCH  11  18
TORSDOF 4
ENDMDL
MODEL 7
REMARK VINA RESULT:      -6.7      1.255      1.662
REMARK  Name = 
REMARK  4 active torsions:
REMARK  status: ('A' for Active; 'I' for Inactive)
REMARK    1  A    between atoms: C_2  and  C_3
REMARK    2  A    between atoms: C_17  and  O_18
REMARK    3  A    between atoms: O_18  and  C_19
REMARK    4  A    between atoms: C_19  and  C_20
REMARK                            x       y       z     vdW  Elec       q    Type
REMARK                         _______ _______ _______ _____ _____    ______ ____
ROOT
ATOM      1  O   UNL     1       5.194   2.839  19.440  0.00  0.00    +0.000 OA
ATOM      2  C   UNL     1       4.351   3.740  19.431  0.00  0.00    +0.000 C 
ATOM      3  N   UNL     1       4.644   5.069  19.108  0.00  0.00    +0.000 N 
ATOM      4  C   UNL     1       3.722   6.207  19.295  0.00  0.00    +0.000 C 
ATOM      5  C   UNL     1       3.266   6.786  17.939  0.00  0.00    +0.000 C 
ATOM      6  O   UNL     1       4.381   7.065  17.064  0.00  0.00    +0.000 OA
ATOM      7  C   UNL     1       5.154   5.864  16.884  0.00  0.00    +0.000 C 
ATOM      8  C   UNL     1       5.756   5.441  18.228  0.00  0.00    +0.000 C 
ATOM      9  C   UNL     1       6.826   4.451  17.798  0.00  0.00    +0.000 C 
ATOM     10  C   UNL     1       7.403   5.043  16.502  0.00  0.00    +0.000 C 
ATOM     11  C   UNL     1       6.367   6.052  15.969  0.00  0.00    +0.000 C 
ENDROOT
BRANCH   2  12
ATOM     12  C   UNL     1       2.953   3.367  19.809  0.00  0.00    +0.000 A 
ATOM     13  C   UNL     1       2.010   3.106  18.831  0.00  0.00    +0.000 A 
ATOM     14  N   UNL     1       0.743   2.683  19.131  0.00  0.00    +0.000 NA
ATOM     15  C   UNL     1       0.474   2.548  20.453  0.00  0.00    +0.000 A 
ATOM     16  C   UNL     1       1.406   2.843  21.431  0.00  0.00    +0.000 A 
ATOM     17  N   UNL     1       2.644   3.288  21.137  0.00  0.00    +0.000 NA
ENDBRANCH   2  12
BRANCH  11  18
ATOM     18  O   UNL     1       6.064   5.753  14.597  0.00  0.00    +0.000 OA
BRANCH  18  19
ATOM     19  C   UNL     1       6.989   4.823  14.020  0.00  0.00    +0.000 C 
BRANCH  19  20
ATOM     20  C   UNL     1       6.340   3.915  13.009  0.00  0.00    +0.000 A 
ATOM     21  C   UNL     1       4.979   3.940  12.699  0.00  0.00    +0.000 A 
ATOM     22  C   UNL     1       4.471   3.065  11.741  0.00  0.00    +0.000 A 
ATOM     23  C   UNL     1       5.343   2.187  11.119  0.00  0.00    +0.000 A 
ATOM     24  N   UNL     1       6.663   2.126  11.389  0.00  0.00    +0.000 NA
ATOM     25  C   UNL     1       7.126   2.987  12.324  0.00  0.00    +0.000 A 
ENDBRANCH  19  20
ENDBRANCH  18  19
ENDBRANCH  11  18
TORSDOF 4
ENDMDL
MODEL 8
REMARK VINA RESULT:      -6.6      1.171      1.774
REMARK  Name = 
REMARK  4 active torsions:
REMARK  status: ('A' for Active; 'I' for Inactive)
REMARK    1  A    between atoms: C_2  and  C_3
REMARK    2  A    between atoms: C_17  and  O_18
REMARK    3  A    between atoms: O_18  and  C_19
REMARK    4  A    between atoms: C_19  and  C_20
REMARK                            x       y       z     vdW  Elec       q    Type
REMARK                         _______ _______ _______ _____ _____    ______ ____
ROOT
ATOM      1  O   UNL     1       5.250   2.865  19.613  0.00  0.00    +0.000 OA
ATOM      2  C   UNL     1       4.354   3.710  19.538  0.00  0.00    +0.000 C 
ATOM      3  N   UNL     1       4.588   5.062  19.261  0.00  0.00    +0.000 N 
ATOM      4  C   UNL     1       3.581   6.135  19.378  0.00  0.00    +0.000 C 
ATOM      5  C   UNL     1       3.212   6.709  17.993  0.00  0.00    +0.000 C 
ATOM      6  O   UNL     1       4.382   7.075  17.228  0.00  0.00    +0.000 OA
ATOM      7  C   UNL     1       5.245   5.930  17.104  0.00  0.00    +0.000 C 
ATOM      8  C   UNL     1       5.749   5.520  18.491  0.00  0.00    +0.000 C 
ATOM      9  C   UNL     1       6.915   4.608  18.148  0.00  0.00    +0.000 C 
ATOM     10  C   UNL     1       7.567   5.261  16.918  0.00  0.00    +0.000 C 
ATOM     11  C   UNL     1       6.521   6.212  16.306  0.00  0.00    +0.000 C 
ENDROOT
BRANCH   2  12
ATOM     12  C   UNL     1       2.955   3.242  19.781  0.00  0.00    +0.000 A 
ATOM     13  C   UNL     1       2.494   3.057  21.072  0.00  0.00    +0.000 A 
ATOM     14  N   UNL     1       1.197   2.708  21.342  0.00  0.00    +0.000 NA
ATOM     15  C   UNL     1       0.401   2.546  20.256  0.00  0.00    +0.000 A 
ATOM     16  C   UNL     1       0.873   2.696  18.965  0.00  0.00    +0.000 A 
ATOM     17  N   UNL     1       2.156   3.010  18.697  0.00  0.00    +0.000 NA
ENDBRANCH   2  12
BRANCH  11  18
ATOM     18  O   UNL     1       6.363   5.920  14.908  0.00  0.00    +0.000 OA
BRANCH  18  19
ATOM     19  C   UNL     1       5.384   4.903  14.666  0.00  0.00    +0.000 C 
BRANCH  19  20
ATOM     20  C   UNL     1       5.709   4.061  13.460  0.00  0.00    +0.000 A 
ATOM     21  C   UNL     1       4.763   3.322  12.749  0.00  0.00    +0.000 A 
ATOM     22  C   UNL     1       5.159   2.577  11.639  0.00  0.00    +0.000 A 
ATOM     23  C   UNL     1       6.495   2.596  11.272  0.00  0.00    +0.000 A 
ATOM     24  N   UNL     1       7.442   3.293  11.932  0.00  0.00    +0.000 NA
ATOM     25  C   UNL     1       7.027   4.004  13.005  0.00  0.00    +0.000 A 
ENDBRANCH  19  20
ENDBRANCH  18  19
ENDBRANCH  11  18
TORSDOF 4
ENDMDL
MODEL 9
REMARK VINA RESULT:      -6.4      5.918      9.056
REMARK  Name = 
REMARK  4 active torsions:
REMARK  status: ('A' for Active; 'I' for Inactive)
REMARK    1  A    between atoms: C_2  and  C_3
REMARK    2  A    between atoms: C_17  and  O_18
REMARK    3  A    between atoms: O_18  and  C_19
REMARK    4  A    between atoms: C_19  and  C_20
REMARK                            x       y       z     vdW  Elec       q    Type
REMARK                         _______ _______ _______ _____ _____    ______ ____
ROOT
ATOM      1  O   UNL     1       2.855  12.768  18.064  0.00  0.00    +0.000 OA
ATOM      2  C   UNL     1       2.076  12.898  19.012  0.00  0.00    +0.000 C 
ATOM      3  N   UNL     1       0.980  12.057  19.233  0.00  0.00    +0.000 N 
ATOM      4  C   UNL     1      -0.092  12.307  20.217  0.00  0.00    +0.000 C 
ATOM      5  C   UNL     1      -0.049  11.274  21.364  0.00  0.00    +0.000 C 
ATOM      6  O   UNL     1      -0.000   9.917  20.872  0.00  0.00    +0.000 OA
ATOM      7  C   UNL     1       1.132   9.770  19.997  0.00  0.00    +0.000 C 
ATOM      8  C   UNL     1       0.945  10.667  18.768  0.00  0.00    +0.000 C 
ATOM      9  C   UNL     1       1.974  10.101  17.803  0.00  0.00    +0.000 C 
ATOM     10  C   UNL     1       1.932   8.582  18.040  0.00  0.00    +0.000 C 
ATOM     11  C   UNL     1       1.275   8.360  19.417  0.00  0.00    +0.000 C 
ENDROOT
BRANCH   2  12
ATOM     12  C   UNL     1       2.329  14.036  19.949  0.00  0.00    +0.000 A 
ATOM     13  C   UNL     1       1.957  15.323  19.602  0.00  0.00    +0.000 A 
ATOM     14  N   UNL     1       2.095  16.380  20.462  0.00  0.00    +0.000 NA
ATOM     15  C   UNL     1       2.631  16.080  21.670  0.00  0.00    +0.000 A 
ATOM     16  C   UNL     1       3.036  14.800  22.002  0.00  0.00    +0.000 A 
ATOM     17  N   UNL     1       2.928  13.764  21.146  0.00  0.00    +0.000 NA
ENDBRANCH   2  12
BRANCH  11  18
ATOM     18  O   UNL     1       2.120   7.524  20.224  0.00  0.00    +0.000 OA
BRANCH  18  19
ATOM     19  C   UNL     1       2.832   6.551  19.450  0.00  0.00    +0.000 C 
BRANCH  19  20
ATOM     20  C   UNL     1       2.141   5.214  19.422  0.00  0.00    +0.000 A 
ATOM     21  C   UNL     1       1.936   4.468  18.260  0.00  0.00    +0.000 A 
ATOM     22  C   UNL     1       1.291   3.235  18.335  0.00  0.00    +0.000 A 
ATOM     23  C   UNL     1       0.869   2.783  19.574  0.00  0.00    +0.000 A 
ATOM     24  N   UNL     1       1.043   3.472  20.721  0.00  0.00    +0.000 NA
ATOM     25  C   UNL     1       1.671   4.665  20.616  0.00  0.00    +0.000 A 
ENDBRANCH  19  20
ENDBRANCH  18  19
ENDBRANCH  11  18
TORSDOF 4
ENDMDL
