MODEL 1
REMARK VINA RESULT:      -8.4      0.000      0.000
REMARK  Name = 
REMARK  4 active torsions:
REMARK  status: ('A' for Active; 'I' for Inactive)
REMARK    1  A    between atoms: N_1  and  C_2
REMARK    2  A    between atoms: C_8  and  C_9
REMARK    3  A    between atoms: C_15  and  C_16
REMARK    4  A    between atoms: C_16  and  C_17
REMARK                            x       y       z     vdW  Elec       q    Type
REMARK                         _______ _______ _______ _____ _____    ______ ____
ROOT
ATOM      1  C   UNL     1       4.399   3.451  19.531  0.00  0.00    +0.000 C 
ATOM      2  O   UNL     1       5.063   2.454  19.842  0.00  0.00    +0.000 OA
ATOM      3  N   UNL     1       3.161   3.696  20.141  0.00  0.00    +0.000 N 
ATOM      4  C   UNL     1       2.673   2.744  21.134  0.00  0.00    +0.000 C 
ATOM      5  C   UNL     1       1.181   2.732  20.907  0.00  0.00    +0.000 C 
ATOM      6  C   UNL     1       0.868   4.189  20.592  0.00  0.00    +0.000 C 
ATOM      7  C   UNL     1       2.154   4.768  19.967  0.00  0.00    +0.000 C 
ENDROOT
BRANCH   1  14
ATOM      8  C   UNL     1       4.484   4.330  17.153  0.00  0.00    +0.000 A 
ATOM      9  C   UNL     1       5.135   5.089  16.162  0.00  0.00    +0.000 A 
ATOM     10  C   UNL     1       6.179   5.951  16.487  0.00  0.00    +0.000 A 
ATOM     11  C   UNL     1       6.560   6.081  17.812  0.00  0.00    +0.000 A 
ATOM     12 BR   UNL     1       7.939   7.287  18.283  0.00  0.00    +0.000 Br
ATOM     13  C   UNL     1       5.945   5.318  18.805  0.00  0.00    +0.000 A 
ATOM     14  C   UNL     1       4.984   4.353  18.482  0.00  0.00    +0.000 A 
BRANCH   8  15
ATOM     15  N   UNL     1       3.478   3.440  16.722  0.00  0.00    +0.000 N 
ATOM     16  H   UNL     1       3.061   3.699  15.833  0.00  0.00    +0.000 HD
ATOM     17  H   UNL     1       2.759   3.333  17.451  0.00  0.00    +0.000 HD
ENDBRANCH   8  15
ENDBRANCH   1  14
BRANCH   7  18
ATOM     18  C   UNL     1       2.582   6.120  20.589  0.00  0.00    +0.000 C 
BRANCH  18  19
ATOM     19  C   UNL     1       2.250   7.316  19.719  0.00  0.00    +0.000 A 
ATOM     20  C   UNL     1       2.719   7.324  18.392  0.00  0.00    +0.000 A 
ATOM     21  C   UNL     1       2.375   8.350  17.507  0.00  0.00    +0.000 A 
ATOM     22  C   UNL     1       1.538   9.378  17.924  0.00  0.00    +0.000 A 
ATOM     23  C   UNL     1       1.092   9.409  19.242  0.00  0.00    +0.000 A 
ATOM     24  C   UNL     1       1.473   8.408  20.144  0.00  0.00    +0.000 A 
ATOM     25 CL   UNL     1       0.999   8.637  21.790  0.00  0.00    +0.000 Cl
ENDBRANCH  18  19
ENDBRANCH   7  18
TORSDOF 4
ENDMDL
MODEL 2
REMARK VINA RESULT:      -7.8      1.958      2.486
REMARK  Name = 
REMARK  4 active torsions:
REMARK  status: ('A' for Active; 'I' for Inactive)
REMARK    1  A    between atoms: N_1  and  C_2
REMARK    2  A    between atoms: C_8  and  C_9
REMARK    3  A    between atoms: C_15  and  C_16
REMARK    4  A    between atoms: C_16  and  C_17
REMARK                            x       y       z     vdW  Elec       q    Type
REMARK                         _______ _______ _______ _____ _____    ______ ____
ROOT
ATOM      1  C   UNL     1       4.579   3.294  19.309  0.00  0.00    +0.000 C 
ATOM      2  O   UNL     1       5.090   2.253  19.740  0.00  0.00    +0.000 OA
ATOM      3  N   UNL     1       3.351   3.742  19.815  0.00  0.00    +0.000 N 
ATOM      4  C   UNL     1       2.691   2.947  20.845  0.00  0.00    +0.000 C 
ATOM      5  C   UNL     1       1.224   3.101  20.523  0.00  0.00    +0.000 C 
ATOM      6  C   UNL     1       1.119   4.553  20.074  0.00  0.00    +0.000 C 
ATOM      7  C   UNL     1       2.502   4.912  19.491  0.00  0.00    +0.000 C 
ENDROOT
BRANCH   1  14
ATOM      8  C   UNL     1       6.372   4.931  18.570  0.00  0.00    +0.000 A 
ATOM      9  C   UNL     1       6.971   5.696  17.552  0.00  0.00    +0.000 A 
ATOM     10  C   UNL     1       6.650   5.489  16.214  0.00  0.00    +0.000 A 
ATOM     11  C   UNL     1       5.745   4.494  15.882  0.00  0.00    +0.000 A 
ATOM     12 BR   UNL     1       5.335   4.159  14.066  0.00  0.00    +0.000 Br
ATOM     13  C   UNL     1       5.120   3.743  16.878  0.00  0.00    +0.000 A 
ATOM     14  C   UNL     1       5.333   4.023  18.233  0.00  0.00    +0.000 A 
BRANCH   8  15
ATOM     15  N   UNL     1       6.715   5.252  19.901  0.00  0.00    +0.000 N 
ATOM     16  H   UNL     1       6.137   5.984  20.302  0.00  0.00    +0.000 HD
ATOM     17  H   UNL     1       7.714   5.492  19.965  0.00  0.00    +0.000 HD
ENDBRANCH   8  15
ENDBRANCH   1  14
BRANCH   7  18
ATOM     18  C   UNL     1       3.065   6.249  20.032  0.00  0.00    +0.000 C 
BRANCH  18  19
ATOM     19  C   UNL     1       2.353   7.470  19.484  0.00  0.00    +0.000 A 
ATOM     20  C   UNL     1       1.424   8.126  20.312  0.00  0.00    +0.000 A 
ATOM     21  C   UNL     1       0.798   9.309  19.907  0.00  0.00    +0.000 A 
ATOM     22  C   UNL     1       1.105   9.872  18.674  0.00  0.00    +0.000 A 
ATOM     23  C   UNL     1       1.994   9.221  17.824  0.00  0.00    +0.000 A 
ATOM     24  C   UNL     1       2.587   8.011  18.208  0.00  0.00    +0.000 A 
ATOM     25 CL   UNL     1       3.540   7.209  17.010  0.00  0.00    +0.000 Cl
ENDBRANCH  18  19
ENDBRANCH   7  18
TORSDOF 4
ENDMDL
MODEL 3
REMARK VINA RESULT:      -7.8      1.248      1.599
REMARK  Name = 
REMARK  4 active torsions:
REMARK  status: ('A' for Active; 'I' for Inactive)
REMARK    1  A    between atoms: N_1  and  C_2
REMARK    2  A    between atoms: C_8  and  C_9
REMARK    3  A    between atoms: C_15  and  C_16
REMARK    4  A    between atoms: C_16  and  C_17
REMARK                            x       y       z     vdW  Elec       q    Type
REMARK                         _______ _______ _______ _____ _____    ______ ____
ROOT
ATOM      1  C   UNL     1       4.458   3.267  19.665  0.00  0.00    +0.000 C 
ATOM      2  O   UNL     1       4.986   2.239  20.107  0.00  0.00    +0.000 OA
ATOM      3  N   UNL     1       3.219   3.695  20.162  0.00  0.00    +0.000 N 
ATOM      4  C   UNL     1       2.568   2.896  21.194  0.00  0.00    +0.000 C 
ATOM      5  C   UNL     1       1.100   3.019  20.863  0.00  0.00    +0.000 C 
ATOM      6  C   UNL     1       0.970   4.465  20.402  0.00  0.00    +0.000 C 
ATOM      7  C   UNL     1       2.350   4.846  19.825  0.00  0.00    +0.000 C 
ENDROOT
BRANCH   1  14
ATOM      8  C   UNL     1       5.008   3.667  17.221  0.00  0.00    +0.000 A 
ATOM      9  C   UNL     1       5.814   4.279  16.243  0.00  0.00    +0.000 A 
ATOM     10  C   UNL     1       6.708   5.292  16.580  0.00  0.00    +0.000 A 
ATOM     11  C   UNL     1       6.782   5.718  17.896  0.00  0.00    +0.000 A 
ATOM     12 BR   UNL     1       7.950   7.129  18.366  0.00  0.00    +0.000 Br
ATOM     13  C   UNL     1       6.011   5.105  18.884  0.00  0.00    +0.000 A 
ATOM     14  C   UNL     1       5.203   4.001  18.588  0.00  0.00    +0.000 A 
BRANCH   8  15
ATOM     15  N   UNL     1       4.176   2.609  16.796  0.00  0.00    +0.000 N 
ATOM     16  H   UNL     1       4.538   2.107  15.992  0.00  0.00    +0.000 HD
ATOM     17  H   UNL     1       3.222   2.954  16.618  0.00  0.00    +0.000 HD
ENDBRANCH   8  15
ENDBRANCH   1  14
BRANCH   7  18
ATOM     18  C   UNL     1       2.885   6.197  20.358  0.00  0.00    +0.000 C 
BRANCH  18  19
ATOM     19  C   UNL     1       2.208   7.403  19.735  0.00  0.00    +0.000 A 
ATOM     20  C   UNL     1       1.300   8.136  20.521  0.00  0.00    +0.000 A 
ATOM     21  C   UNL     1       0.709   9.310  20.044  0.00  0.00    +0.000 A 
ATOM     22  C   UNL     1       1.031   9.787  18.778  0.00  0.00    +0.000 A 
ATOM     23  C   UNL     1       1.899   9.058  17.970  0.00  0.00    +0.000 A 
ATOM     24  C   UNL     1       2.455   7.857  18.428  0.00  0.00    +0.000 A 
ATOM     25 CL   UNL     1       3.383   6.955  17.282  0.00  0.00    +0.000 Cl
ENDBRANCH  18  19
ENDBRANCH   7  18
TORSDOF 4
ENDMDL
MODEL 4
REMARK VINA RESULT:      -7.7      1.563      1.953
REMARK  Name = 
REMARK  4 active torsions:
REMARK  status: ('A' for Active; 'I' for Inactive)
REMARK    1  A    between atoms: N_1  and  C_2
REMARK    2  A    between atoms: C_8  and  C_9
REMARK    3  A    between atoms: C_15  and  C_16
REMARK    4  A    between atoms: C_16  and  C_17
REMARK                            x       y       z     vdW  Elec       q    Type
REMARK                         _______ _______ _______ _____ _____    ______ ____
ROOT
ATOM      1  C   UNL     1       4.556   3.340  19.268  0.00  0.00    +0.000 C 
ATOM      2  O   UNL     1       5.073   2.298  19.690  0.00  0.00    +0.000 OA
ATOM      3  N   UNL     1       3.329   3.781  19.785  0.00  0.00    +0.000 N 
ATOM      4  C   UNL     1       2.678   2.978  20.814  0.00  0.00    +0.000 C 
ATOM      5  C   UNL     1       1.208   3.128  20.501  0.00  0.00    +0.000 C 
ATOM      6  C   UNL     1       1.096   4.582  20.061  0.00  0.00    +0.000 C 
ATOM      7  C   UNL     1       2.474   4.950  19.472  0.00  0.00    +0.000 C 
ENDROOT
BRANCH   1  14
ATOM      8  C   UNL     1       6.323   5.004  18.529  0.00  0.00    +0.000 A 
ATOM      9  C   UNL     1       6.913   5.775  17.511  0.00  0.00    +0.000 A 
ATOM     10  C   UNL     1       6.600   5.557  16.172  0.00  0.00    +0.000 A 
ATOM     11  C   UNL     1       5.713   4.546  15.841  0.00  0.00    +0.000 A 
ATOM     12 BR   UNL     1       5.314   4.197  14.025  0.00  0.00    +0.000 Br
ATOM     13  C   UNL     1       5.097   3.789  16.838  0.00  0.00    +0.000 A 
ATOM     14  C   UNL     1       5.300   4.077  18.192  0.00  0.00    +0.000 A 
BRANCH   8  15
ATOM     15  N   UNL     1       6.656   5.335  19.860  0.00  0.00    +0.000 N 
ATOM     16  H   UNL     1       7.617   5.117  20.104  0.00  0.00    +0.000 HD
ATOM     17  H   UNL     1       5.998   4.890  20.515  0.00  0.00    +0.000 HD
ENDBRANCH   8  15
ENDBRANCH   1  14
BRANCH   7  18
ATOM     18  C   UNL     1       3.037   6.285  20.017  0.00  0.00    +0.000 C 
BRANCH  18  19
ATOM     19  C   UNL     1       2.374   7.509  19.416  0.00  0.00    +0.000 A 
ATOM     20  C   UNL     1       2.584   7.776  18.050  0.00  0.00    +0.000 A 
ATOM     21  C   UNL     1       1.932   8.834  17.408  0.00  0.00    +0.000 A 
ATOM     22  C   UNL     1       1.040   9.632  18.114  0.00  0.00    +0.000 A 
ATOM     23  C   UNL     1       0.844   9.408  19.473  0.00  0.00    +0.000 A 
ATOM     24  C   UNL     1       1.532   8.379  20.129  0.00  0.00    +0.000 A 
ATOM     25 CL   UNL     1       1.338   8.300  21.845  0.00  0.00    +0.000 Cl
ENDBRANCH  18  19
ENDBRANCH   7  18
TORSDOF 4
ENDMDL
MODEL 5
REMARK VINA RESULT:      -7.4      3.109      5.702
REMARK  Name = 
REMARK  4 active torsions:
REMARK  status: ('A' for Active; 'I' for Inactive)
REMARK    1  A    between atoms: N_1  and  C_2
REMARK    2  A    between atoms: C_8  and  C_9
REMARK    3  A    between atoms: C_15  and  C_16
REMARK    4  A    between atoms: C_16  and  C_17
REMARK                            x       y       z     vdW  Elec       q    Type
REMARK                         _______ _______ _______ _____ _____    ______ ____
ROOT
ATOM      1  C   UNL     1       6.022   6.187  16.934  0.00  0.00    +0.000 C 
ATOM      2  O   UNL     1       6.989   6.949  17.055  0.00  0.00    +0.000 OA
ATOM      3  N   UNL     1       6.047   5.157  15.983  0.00  0.00    +0.000 N 
ATOM      4  C   UNL     1       7.228   5.017  15.138  0.00  0.00    +0.000 C 
ATOM      5  C   UNL     1       6.662   4.571  13.811  0.00  0.00    +0.000 C 
ATOM      6  C   UNL     1       5.530   3.635  14.216  0.00  0.00    +0.000 C 
ATOM      7  C   UNL     1       5.056   4.125  15.600  0.00  0.00    +0.000 C 
ENDROOT
BRANCH   1  14
ATOM      8  C   UNL     1       4.754   5.772  19.092  0.00  0.00    +0.000 A 
ATOM      9  C   UNL     1       3.584   5.921  19.860  0.00  0.00    +0.000 A 
ATOM     10  C   UNL     1       2.576   6.799  19.471  0.00  0.00    +0.000 A 
ATOM     11  C   UNL     1       2.746   7.556  18.323  0.00  0.00    +0.000 A 
ATOM     12 BR   UNL     1       1.414   8.795  17.806  0.00  0.00    +0.000 Br
ATOM     13  C   UNL     1       3.886   7.403  17.535  0.00  0.00    +0.000 A 
ATOM     14  C   UNL     1       4.849   6.434  17.839  0.00  0.00    +0.000 A 
BRANCH   8  15
ATOM     15  N   UNL     1       5.693   4.815  19.532  0.00  0.00    +0.000 N 
ATOM     16  H   UNL     1       6.491   4.715  18.912  0.00  0.00    +0.000 HD
ATOM     17  H   UNL     1       5.232   3.908  19.690  0.00  0.00    +0.000 HD
ENDBRANCH   8  15
ENDBRANCH   1  14
BRANCH   7  18
ATOM     18  C   UNL     1       4.922   2.986  16.640  0.00  0.00    +0.000 C 
BRANCH  18  19
ATOM     19  C   UNL     1       3.629   3.038  17.429  0.00  0.00    +0.000 A 
ATOM     20  C   UNL     1       2.589   3.856  16.949  0.00  0.00    +0.000 A 
ATOM     21  C   UNL     1       1.338   3.883  17.573  0.00  0.00    +0.000 A 
ATOM     22  C   UNL     1       1.095   3.076  18.679  0.00  0.00    +0.000 A 
ATOM     23  C   UNL     1       2.119   2.287  19.193  0.00  0.00    +0.000 A 
ATOM     24  C   UNL     1       3.387   2.294  18.597  0.00  0.00    +0.000 A 
ATOM     25 CL   UNL     1       4.625   1.408  19.416  0.00  0.00    +0.000 Cl
ENDBRANCH  18  19
ENDBRANCH   7  18
TORSDOF 4
ENDMDL
MODEL 6
REMARK VINA RESULT:      -7.0      2.895      5.192
REMARK  Name = 
REMARK  4 active torsions:
REMARK  status: ('A' for Active; 'I' for Inactive)
REMARK    1  A    between atoms: N_1  and  C_2
REMARK    2  A    between atoms: C_8  and  C_9
REMARK    3  A    between atoms: C_15  and  C_16
REMARK    4  A    between atoms: C_16  and  C_17
REMARK                            x       y       z     vdW  Elec       q    Type
REMARK                         _______ _______ _______ _____ _____    ______ ____
ROOT
ATOM      1  C   UNL     1       2.072   5.509  19.850  0.00  0.00    +0.000 C 
ATOM      2  O   UNL     1       1.324   5.523  20.835  0.00  0.00    +0.000 OA
ATOM      3  N   UNL     1       2.425   6.708  19.213  0.00  0.00    +0.000 N 
ATOM      4  C   UNL     1       1.880   7.958  19.730  0.00  0.00    +0.000 C 
ATOM      5  C   UNL     1       1.660   8.788  18.488  0.00  0.00    +0.000 C 
ATOM      6  C   UNL     1       2.859   8.433  17.619  0.00  0.00    +0.000 C 
ATOM      7  C   UNL     1       3.266   7.002  18.029  0.00  0.00    +0.000 C 
ENDROOT
BRANCH   1  14
ATOM      8  C   UNL     1       2.107   3.623  18.154  0.00  0.00    +0.000 A 
ATOM      9  C   UNL     1       2.475   2.309  17.807  0.00  0.00    +0.000 A 
ATOM     10  C   UNL     1       3.369   1.583  18.590  0.00  0.00    +0.000 A 
ATOM     11  C   UNL     1       3.922   2.178  19.711  0.00  0.00    +0.000 A 
ATOM     12 BR   UNL     1       5.180   1.230  20.758  0.00  0.00    +0.000 Br
ATOM     13  C   UNL     1       3.550   3.469  20.086  0.00  0.00    +0.000 A 
ATOM     14  C   UNL     1       2.558   4.166  19.387  0.00  0.00    +0.000 A 
BRANCH   8  15
ATOM     15  N   UNL     1       1.150   4.258  17.335  0.00  0.00    +0.000 N 
ATOM     16  H   UNL     1       0.347   4.610  17.848  0.00  0.00    +0.000 HD
ATOM     17  H   UNL     1       0.856   3.629  16.574  0.00  0.00    +0.000 HD
ENDBRANCH   8  15
ENDBRANCH   1  14
BRANCH   7  18
ATOM     18  C   UNL     1       4.782   6.850  18.299  0.00  0.00    +0.000 C 
BRANCH  18  19
ATOM     19  C   UNL     1       5.448   5.803  17.427  0.00  0.00    +0.000 A 
ATOM     20  C   UNL     1       4.681   5.194  16.416  0.00  0.00    +0.000 A 
ATOM     21  C   UNL     1       5.253   4.288  15.517  0.00  0.00    +0.000 A 
ATOM     22  C   UNL     1       6.608   3.990  15.597  0.00  0.00    +0.000 A 
ATOM     23  C   UNL     1       7.377   4.553  16.611  0.00  0.00    +0.000 A 
ATOM     24  C   UNL     1       6.796   5.424  17.542  0.00  0.00    +0.000 A 
ATOM     25 CL   UNL     1       7.804   5.930  18.852  0.00  0.00    +0.000 Cl
ENDBRANCH  18  19
ENDBRANCH   7  18
TORSDOF 4
ENDMDL
MODEL 7
REMARK VINA RESULT:      -6.5      8.352     10.931
REMARK  Name = 
REMARK  4 active torsions:
REMARK  status: ('A' for Active; 'I' for Inactive)
REMARK    1  A    between atoms: N_1  and  C_2
REMARK    2  A    between atoms: C_8  and  C_9
REMARK    3  A    between atoms: C_15  and  C_16
REMARK    4  A    between atoms: C_16  and  C_17
REMARK                            x       y       z     vdW  Elec       q    Type
REMARK                         _______ _______ _______ _____ _____    ______ ____
ROOT
ATOM      1  C   UNL     1      -5.182  11.966  17.700  0.00  0.00    +0.000 C 
ATOM      2  O   UNL     1      -5.946  12.299  16.786  0.00  0.00    +0.000 OA
ATOM      3  N   UNL     1      -3.927  11.413  17.409  0.00  0.00    +0.000 N 
ATOM      4  C   UNL     1      -3.555  11.229  16.010  0.00  0.00    +0.000 C 
ATOM      5  C   UNL     1      -2.757   9.948  16.022  0.00  0.00    +0.000 C 
ATOM      6  C   UNL     1      -1.972  10.042  17.325  0.00  0.00    +0.000 C 
ATOM      7  C   UNL     1      -2.830  10.911  18.269  0.00  0.00    +0.000 C 
ENDROOT
BRANCH   1  14
ATOM      8  C   UNL     1      -6.570  11.250  19.700  0.00  0.00    +0.000 A 
ATOM      9  C   UNL     1      -7.116  11.540  20.965  0.00  0.00    +0.000 A 
ATOM     10  C   UNL     1      -6.699  12.654  21.689  0.00  0.00    +0.000 A 
ATOM     11  C   UNL     1      -5.712  13.471  21.163  0.00  0.00    +0.000 A 
ATOM     12 BR   UNL     1      -5.093  14.959  22.154  0.00  0.00    +0.000 Br
ATOM     13  C   UNL     1      -5.178  13.215  19.900  0.00  0.00    +0.000 A 
ATOM     14  C   UNL     1      -5.674  12.177  19.103  0.00  0.00    +0.000 A 
BRANCH   8  15
ATOM     15  N   UNL     1      -7.095  10.134  19.015  0.00  0.00    +0.000 N 
ATOM     16  H   UNL     1      -7.266  10.308  18.030  0.00  0.00    +0.000 HD
ATOM     17  H   UNL     1      -7.947   9.795  19.484  0.00  0.00    +0.000 HD
ENDBRANCH   8  15
ENDBRANCH   1  14
BRANCH   7  18
ATOM     18  C   UNL     1      -2.028  12.039  18.961  0.00  0.00    +0.000 C 
BRANCH  18  19
ATOM     19  C   UNL     1      -1.589  11.689  20.370  0.00  0.00    +0.000 A 
ATOM     20  C   UNL     1      -2.313  12.233  21.447  0.00  0.00    +0.000 A 
ATOM     21  C   UNL     1      -2.022  11.883  22.769  0.00  0.00    +0.000 A 
ATOM     22  C   UNL     1      -1.015  10.963  23.040  0.00  0.00    +0.000 A 
ATOM     23  C   UNL     1      -0.262  10.441  21.992  0.00  0.00    +0.000 A 
ATOM     24  C   UNL     1      -0.521  10.827  20.671  0.00  0.00    +0.000 A 
ATOM     25 CL   UNL     1       0.580  10.245  19.472  0.00  0.00    +0.000 Cl
ENDBRANCH  18  19
ENDBRANCH   7  18
TORSDOF 4
ENDMDL
MODEL 8
REMARK VINA RESULT:      -6.5      1.851      2.485
REMARK  Name = 
REMARK  4 active torsions:
REMARK  status: ('A' for Active; 'I' for Inactive)
REMARK    1  A    between atoms: N_1  and  C_2
REMARK    2  A    between atoms: C_8  and  C_9
REMARK    3  A    between atoms: C_15  and  C_16
REMARK    4  A    between atoms: C_16  and  C_17
REMARK                            x       y       z     vdW  Elec       q    Type
REMARK                         _______ _______ _______ _____ _____    ______ ____
ROOT
ATOM      1  C   UNL     1       4.721   3.940  19.379  0.00  0.00    +0.000 C 
ATOM      2  O   UNL     1       5.317   2.902  19.691  0.00  0.00    +0.000 OA
ATOM      3  N   UNL     1       3.408   4.162  19.819  0.00  0.00    +0.000 N 
ATOM      4  C   UNL     1       2.765   3.139  20.635  0.00  0.00    +0.000 C 
ATOM      5  C   UNL     1       1.323   3.186  20.190  0.00  0.00    +0.000 C 
ATOM      6  C   UNL     1       1.080   4.674  19.967  0.00  0.00    +0.000 C 
ATOM      7  C   UNL     1       2.453   5.272  19.597  0.00  0.00    +0.000 C 
ENDROOT
BRANCH   1  14
ATOM      8  C   UNL     1       6.707   5.461  18.951  0.00  0.00    +0.000 A 
ATOM      9  C   UNL     1       7.320   6.470  18.185  0.00  0.00    +0.000 A 
ATOM     10  C   UNL     1       6.798   6.853  16.953  0.00  0.00    +0.000 A 
ATOM     11  C   UNL     1       5.672   6.209  16.466  0.00  0.00    +0.000 A 
ATOM     12 BR   UNL     1       4.978   6.677  14.769  0.00  0.00    +0.000 Br
ATOM     13  C   UNL     1       5.035   5.225  17.222  0.00  0.00    +0.000 A 
ATOM     14  C   UNL     1       5.468   4.917  18.517  0.00  0.00    +0.000 A 
BRANCH   8  15
ATOM     15  N   UNL     1       7.272   5.181  20.213  0.00  0.00    +0.000 N 
ATOM     16  H   UNL     1       7.927   5.888  20.530  0.00  0.00    +0.000 HD
ATOM     17  H   UNL     1       7.708   4.248  20.211  0.00  0.00    +0.000 HD
ENDBRANCH   8  15
ENDBRANCH   1  14
BRANCH   7  18
ATOM     18  C   UNL     1       2.799   6.551  20.398  0.00  0.00    +0.000 C 
BRANCH  18  19
ATOM     19  C   UNL     1       1.848   7.702  20.139  0.00  0.00    +0.000 A 
ATOM     20  C   UNL     1       0.927   8.044  21.147  0.00  0.00    +0.000 A 
ATOM     21  C   UNL     1       0.082   9.150  21.014  0.00  0.00    +0.000 A 
ATOM     22  C   UNL     1       0.156   9.951  19.879  0.00  0.00    +0.000 A 
ATOM     23  C   UNL     1       1.034   9.610  18.855  0.00  0.00    +0.000 A 
ATOM     24  C   UNL     1       1.848   8.475  18.965  0.00  0.00    +0.000 A 
ATOM     25 CL   UNL     1       2.774   8.056  17.567  0.00  0.00    +0.000 Cl
ENDBRANCH  18  19
ENDBRANCH   7  18
TORSDOF 4
ENDMDL
MODEL 9
REMARK VINA RESULT:      -6.4      3.206      5.648
REMARK  Name = 
REMARK  4 active torsions:
REMARK  status: ('A' for Active; 'I' for Inactive)
REMARK    1  A    between atoms: N_1  and  C_2
REMARK    2  A    between atoms: C_8  and  C_9
REMARK    3  A    between atoms: C_15  and  C_16
REMARK    4  A    between atoms: C_16  and  C_17
REMARK                            x       y       z     vdW  Elec       q    Type
REMARK                         _______ _______ _______ _____ _____    ______ ____
ROOT
ATOM      1  C   UNL     1       5.744   5.404  18.491  0.00  0.00    +0.000 C 
ATOM      2  O   UNL     1       6.704   5.859  19.123  0.00  0.00    +0.000 OA
ATOM      3  N   UNL     1       5.932   4.852  17.216  0.00  0.00    +0.000 N 
ATOM      4  C   UNL     1       7.279   4.842  16.654  0.00  0.00    +0.000 C 
ATOM      5  C   UNL     1       7.048   5.074  15.180  0.00  0.00    +0.000 C 
ATOM      6  C   UNL     1       5.776   4.283  14.901  0.00  0.00    +0.000 C 
ATOM      7  C   UNL     1       4.996   4.261  16.232  0.00  0.00    +0.000 C 
ENDROOT
BRANCH   1  14
ATOM      8  C   UNL     1       3.491   6.526  18.816  0.00  0.00    +0.000 A 
ATOM      9  C   UNL     1       2.294   6.655  19.544  0.00  0.00    +0.000 A 
ATOM     10  C   UNL     1       1.928   5.710  20.499  0.00  0.00    +0.000 A 
ATOM     11  C   UNL     1       2.748   4.614  20.714  0.00  0.00    +0.000 A 
ATOM     12 BR   UNL     1       2.244   3.290  21.968  0.00  0.00    +0.000 Br
ATOM     13  C   UNL     1       3.952   4.483  20.021  0.00  0.00    +0.000 A 
ATOM     14  C   UNL     1       4.398   5.485  19.153  0.00  0.00    +0.000 A 
BRANCH   8  15
ATOM     15  N   UNL     1       3.808   7.563  17.913  0.00  0.00    +0.000 N 
ATOM     16  H   UNL     1       3.808   8.484  18.338  0.00  0.00    +0.000 HD
ATOM     17  H   UNL     1       3.178   7.531  17.098  0.00  0.00    +0.000 HD
ENDBRANCH   8  15
ENDBRANCH   1  14
BRANCH   7  18
ATOM     18  C   UNL     1       4.498   2.850  16.627  0.00  0.00    +0.000 C 
BRANCH  18  19
ATOM     19  C   UNL     1       3.164   2.860  17.346  0.00  0.00    +0.000 A 
ATOM     20  C   UNL     1       2.239   3.870  17.018  0.00  0.00    +0.000 A 
ATOM     21  C   UNL     1       0.956   3.887  17.573  0.00  0.00    +0.000 A 
ATOM     22  C   UNL     1       0.563   2.884  18.451  0.00  0.00    +0.000 A 
ATOM     23  C   UNL     1       1.473   1.897  18.817  0.00  0.00    +0.000 A 
ATOM     24  C   UNL     1       2.774   1.903  18.299  0.00  0.00    +0.000 A 
ATOM     25 CL   UNL     1       3.865   0.731  18.950  0.00  0.00    +0.000 Cl
ENDBRANCH  18  19
ENDBRANCH   7  18
TORSDOF 4
ENDMDL
