MODEL 1
REMARK VINA RESULT:      -9.5      0.000      0.000
REMARK  Name = 
REMARK  8 active torsions:
REMARK  status: ('A' for Active; 'I' for Inactive)
REMARK    1  A    between atoms: C_2  and  O_3
REMARK    2  A    between atoms: C_2  and  C_4
REMARK    3  A    between atoms: C_7  and  C_8
REMARK    4  A    between atoms: N_10  and  C_11
REMARK    5  A    between atoms: C_11  and  C_12
REMARK    6  A    between atoms: C_11  and  C_24
REMARK    7  A    between atoms: C_15  and  O_16
REMARK    8  A    between atoms: O_16  and  C_17
REMARK                            x       y       z     vdW  Elec       q    Type
REMARK                         _______ _______ _______ _____ _____    ______ ____
ROOT
ATOM      1  C   UNL     1       3.263   6.028  19.328  0.00  0.00    +0.000 C 
ENDROOT
BRANCH   1   2
ATOM      2  C   UNL     1       2.408   7.288  19.199  0.00  0.00    +0.000 A 
ATOM      3  C   UNL     1       2.340   7.979  17.980  0.00  0.00    +0.000 A 
ATOM      4  C   UNL     1       1.643   9.190  17.881  0.00  0.00    +0.000 A 
ATOM      5  C   UNL     1       1.005   9.739  18.992  0.00  0.00    +0.000 A 
ATOM      6  C   UNL     1       1.079   9.064  20.210  0.00  0.00    +0.000 A 
ATOM      7  F   UNL     1       0.611   9.606  21.340  0.00  0.00    +0.000 F 
ATOM      8  C   UNL     1       1.732   7.832  20.304  0.00  0.00    +0.000 A 
BRANCH   5   9
ATOM      9  O   UNL     1       0.435  10.957  18.774  0.00  0.00    +0.000 OA
BRANCH   9  10
ATOM     10  C   UNL     1      -0.981  11.086  18.697  0.00  0.00    +0.000 C 
ATOM     11  F   UNL     1      -1.616  10.047  18.116  0.00  0.00    +0.000 F 
ATOM     12  F   UNL     1      -1.481  11.281  19.937  0.00  0.00    +0.000 F 
ATOM     13  F   UNL     1      -1.261  12.186  17.962  0.00  0.00    +0.000 F 
ENDBRANCH   9  10
ENDBRANCH   5   9
ENDBRANCH   1   2
BRANCH   1  14
ATOM     14  C   UNL     1       2.463   4.872  19.936  0.00  0.00    +0.000 A 
ATOM     15  N   UNL     1       2.734   4.502  21.228  0.00  0.00    +0.000 NA
ATOM     16  C   UNL     1       2.069   3.416  21.701  0.00  0.00    +0.000 A 
ATOM     17  C   UNL     1       1.168   2.669  20.956  0.00  0.00    +0.000 A 
ATOM     18  C   UNL     1       0.896   3.069  19.654  0.00  0.00    +0.000 A 
ATOM     19  C   UNL     1       1.546   4.184  19.144  0.00  0.00    +0.000 A 
ATOM     20  F   UNL     1       1.288   4.579  17.891  0.00  0.00    +0.000 F 
ENDBRANCH   1  14
BRANCH   1  23
ATOM     21  C   UNL     1       5.164   5.389  17.878  0.00  0.00    +0.000 C 
ATOM     22  O   UNL     1       5.945   5.441  18.819  0.00  0.00    +0.000 OA
ATOM     23  N   UNL     1       3.818   5.653  18.033  0.00  0.00    +0.000 N 
ATOM     24  H   UNL     1       3.143   5.553  17.288  0.00  0.00    +0.000 HD
BRANCH  21  28
ATOM     25  C   UNL     1       6.486   4.269  13.924  0.00  0.00    +0.000 A 
ATOM     26  C   UNL     1       5.167   4.054  14.333  0.00  0.00    +0.000 A 
ATOM     27  C   UNL     1       4.767   4.429  15.621  0.00  0.00    +0.000 A 
ATOM     28  C   UNL     1       5.672   5.029  16.516  0.00  0.00    +0.000 A 
ATOM     29  C   UNL     1       6.985   5.256  16.091  0.00  0.00    +0.000 A 
ATOM     30  C   UNL     1       7.388   4.887  14.800  0.00  0.00    +0.000 A 
BRANCH  25  32
ATOM     31  O   UNL     1       7.450   4.613  11.774  0.00  0.00    +0.000 OA
ATOM     32  C   UNL     1       6.873   3.869  12.552  0.00  0.00    +0.000 C 
BRANCH  32  33
ATOM     33  O   UNL     1       6.498   2.611  12.222  0.00  0.00    +0.000 OA
ATOM     34  H   UNL     1       5.831   2.213  12.811  0.00  0.00    +0.000 HD
ENDBRANCH  32  33
ENDBRANCH  25  32
ENDBRANCH  21  28
ENDBRANCH   1  23
TORSDOF 8
ENDMDL
MODEL 2
REMARK VINA RESULT:      -9.2      1.002      1.220
REMARK  Name = 
REMARK  8 active torsions:
REMARK  status: ('A' for Active; 'I' for Inactive)
REMARK    1  A    between atoms: C_2  and  O_3
REMARK    2  A    between atoms: C_2  and  C_4
REMARK    3  A    between atoms: C_7  and  C_8
REMARK    4  A    between atoms: N_10  and  C_11
REMARK    5  A    between atoms: C_11  and  C_12
REMARK    6  A    between atoms: C_11  and  C_24
REMARK    7  A    between atoms: C_15  and  O_16
REMARK    8  A    between atoms: O_16  and  C_17
REMARK                            x       y       z     vdW  Elec       q    Type
REMARK                         _______ _______ _______ _____ _____    ______ ____
ROOT
ATOM      1  C   UNL     1       3.238   6.020  19.321  0.00  0.00    +0.000 C 
ENDROOT
BRANCH   1   2
ATOM      2  C   UNL     1       2.381   7.277  19.178  0.00  0.00    +0.000 A 
ATOM      3  C   UNL     1       2.273   7.927  17.938  0.00  0.00    +0.000 A 
ATOM      4  C   UNL     1       1.575   9.136  17.821  0.00  0.00    +0.000 A 
ATOM      5  C   UNL     1       0.977   9.724  18.934  0.00  0.00    +0.000 A 
ATOM      6  C   UNL     1       1.090   9.092  20.171  0.00  0.00    +0.000 A 
ATOM      7  F   UNL     1       0.662   9.674  21.297  0.00  0.00    +0.000 F 
ATOM      8  C   UNL     1       1.744   7.861  20.286  0.00  0.00    +0.000 A 
BRANCH   5   9
ATOM      9  O   UNL     1       0.401  10.936  18.692  0.00  0.00    +0.000 OA
BRANCH   9  10
ATOM     10  C   UNL     1       1.132  12.137  18.915  0.00  0.00    +0.000 C 
ATOM     11  F   UNL     1       2.448  12.063  18.627  0.00  0.00    +0.000 F 
ATOM     12  F   UNL     1       0.572  13.140  18.203  0.00  0.00    +0.000 F 
ATOM     13  F   UNL     1       1.027  12.452  20.226  0.00  0.00    +0.000 F 
ENDBRANCH   9  10
ENDBRANCH   5   9
ENDBRANCH   1   2
BRANCH   1  14
ATOM     14  C   UNL     1       2.439   4.871  19.943  0.00  0.00    +0.000 A 
ATOM     15  N   UNL     1       2.714   4.514  21.239  0.00  0.00    +0.000 NA
ATOM     16  C   UNL     1       2.051   3.434  21.725  0.00  0.00    +0.000 A 
ATOM     17  C   UNL     1       1.147   2.678  20.990  0.00  0.00    +0.000 A 
ATOM     18  C   UNL     1       0.872   3.065  19.684  0.00  0.00    +0.000 A 
ATOM     19  C   UNL     1       1.521   4.175  19.161  0.00  0.00    +0.000 A 
ATOM     20  F   UNL     1       1.260   4.557  17.904  0.00  0.00    +0.000 F 
ENDBRANCH   1  14
BRANCH   1  23
ATOM     21  C   UNL     1       5.151   5.453  17.857  0.00  0.00    +0.000 C 
ATOM     22  O   UNL     1       5.944   5.598  18.778  0.00  0.00    +0.000 OA
ATOM     23  N   UNL     1       3.793   5.631  18.030  0.00  0.00    +0.000 N 
ATOM     24  H   UNL     1       3.113   5.454  17.305  0.00  0.00    +0.000 HD
BRANCH  21  28
ATOM     25  C   UNL     1       6.466   4.272  13.919  0.00  0.00    +0.000 A 
ATOM     26  C   UNL     1       5.150   4.059  14.335  0.00  0.00    +0.000 A 
ATOM     27  C   UNL     1       4.751   4.454  15.618  0.00  0.00    +0.000 A 
ATOM     28  C   UNL     1       5.656   5.072  16.500  0.00  0.00    +0.000 A 
ATOM     29  C   UNL     1       6.968   5.297  16.067  0.00  0.00    +0.000 A 
ATOM     30  C   UNL     1       7.368   4.908  14.781  0.00  0.00    +0.000 A 
BRANCH  25  32
ATOM     31  O   UNL     1       7.460   4.570  11.775  0.00  0.00    +0.000 OA
ATOM     32  C   UNL     1       6.851   3.851  12.552  0.00  0.00    +0.000 C 
BRANCH  32  33
ATOM     33  O   UNL     1       6.437   2.604  12.226  0.00  0.00    +0.000 OA
ATOM     34  H   UNL     1       6.093   2.077  12.972  0.00  0.00    +0.000 HD
ENDBRANCH  32  33
ENDBRANCH  25  32
ENDBRANCH  21  28
ENDBRANCH   1  23
TORSDOF 8
ENDMDL
MODEL 3
REMARK VINA RESULT:      -9.1      0.516      1.135
REMARK  Name = 
REMARK  8 active torsions:
REMARK  status: ('A' for Active; 'I' for Inactive)
REMARK    1  A    between atoms: C_2  and  O_3
REMARK    2  A    between atoms: C_2  and  C_4
REMARK    3  A    between atoms: C_7  and  C_8
REMARK    4  A    between atoms: N_10  and  C_11
REMARK    5  A    between atoms: C_11  and  C_12
REMARK    6  A    between atoms: C_11  and  C_24
REMARK    7  A    between atoms: C_15  and  O_16
REMARK    8  A    between atoms: O_16  and  C_17
REMARK                            x       y       z     vdW  Elec       q    Type
REMARK                         _______ _______ _______ _____ _____    ______ ____
ROOT
ATOM      1  C   UNL     1       3.163   6.118  19.475  0.00  0.00    +0.000 C 
ENDROOT
BRANCH   1   2
ATOM      2  C   UNL     1       2.275   7.361  19.428  0.00  0.00    +0.000 A 
ATOM      3  C   UNL     1       2.164   8.111  18.247  0.00  0.00    +0.000 A 
ATOM      4  C   UNL     1       1.436   9.307  18.223  0.00  0.00    +0.000 A 
ATOM      5  C   UNL     1       0.809   9.783  19.374  0.00  0.00    +0.000 A 
ATOM      6  C   UNL     1       0.925   9.050  20.554  0.00  0.00    +0.000 A 
ATOM      7  F   UNL     1       0.468   9.523  21.720  0.00  0.00    +0.000 F 
ATOM      8  C   UNL     1       1.609   7.831  20.572  0.00  0.00    +0.000 A 
BRANCH   5   9
ATOM      9  O   UNL     1       0.204  10.996  19.229  0.00  0.00    +0.000 OA
BRANCH   9  10
ATOM     10  C   UNL     1      -1.215  11.088  19.146  0.00  0.00    +0.000 C 
ATOM     11  F   UNL     1      -1.834   9.963  18.735  0.00  0.00    +0.000 F 
ATOM     12  F   UNL     1      -1.710  11.462  20.346  0.00  0.00    +0.000 F 
ATOM     13  F   UNL     1      -1.518  12.058  18.254  0.00  0.00    +0.000 F 
ENDBRANCH   9  10
ENDBRANCH   5   9
ENDBRANCH   1   2
BRANCH   1  14
ATOM     14  C   UNL     1       2.383   4.896  19.970  0.00  0.00    +0.000 A 
ATOM     15  N   UNL     1       2.587   4.472  21.258  0.00  0.00    +0.000 NA
ATOM     16  C   UNL     1       1.948   3.333  21.630  0.00  0.00    +0.000 A 
ATOM     17  C   UNL     1       1.137   2.584  20.789  0.00  0.00    +0.000 A 
ATOM     18  C   UNL     1       0.932   3.039  19.492  0.00  0.00    +0.000 A 
ATOM     19  C   UNL     1       1.557   4.208  19.084  0.00  0.00    +0.000 A 
ATOM     20  F   UNL     1       1.364   4.656  17.836  0.00  0.00    +0.000 F 
ENDBRANCH   1  14
BRANCH   1  23
ATOM     21  C   UNL     1       5.016   5.314  18.046  0.00  0.00    +0.000 C 
ATOM     22  O   UNL     1       5.682   5.001  19.025  0.00  0.00    +0.000 OA
ATOM     23  N   UNL     1       3.756   5.865  18.168  0.00  0.00    +0.000 N 
ATOM     24  H   UNL     1       3.162   6.071  17.378  0.00  0.00    +0.000 HD
BRANCH  21  28
ATOM     25  C   UNL     1       6.744   4.803  14.124  0.00  0.00    +0.000 A 
ATOM     26  C   UNL     1       7.412   5.521  15.119  0.00  0.00    +0.000 A 
ATOM     27  C   UNL     1       6.827   5.668  16.383  0.00  0.00    +0.000 A 
ATOM     28  C   UNL     1       5.574   5.099  16.674  0.00  0.00    +0.000 A 
ATOM     29  C   UNL     1       4.922   4.367  15.674  0.00  0.00    +0.000 A 
ATOM     30  C   UNL     1       5.507   4.212  14.410  0.00  0.00    +0.000 A 
BRANCH  25  32
ATOM     31  O   UNL     1       7.180   3.723  12.046  0.00  0.00    +0.000 OA
ATOM     32  C   UNL     1       7.396   4.658  12.801  0.00  0.00    +0.000 C 
BRANCH  32  33
ATOM     33  O   UNL     1       8.282   5.641  12.517  0.00  0.00    +0.000 OA
ATOM     34  H   UNL     1       8.986   5.765  13.180  0.00  0.00    +0.000 HD
ENDBRANCH  32  33
ENDBRANCH  25  32
ENDBRANCH  21  28
ENDBRANCH   1  23
TORSDOF 8
ENDMDL
MODEL 4
REMARK VINA RESULT:      -8.9      1.062      1.521
REMARK  Name = 
REMARK  8 active torsions:
REMARK  status: ('A' for Active; 'I' for Inactive)
REMARK    1  A    between atoms: C_2  and  O_3
REMARK    2  A    between atoms: C_2  and  C_4
REMARK    3  A    between atoms: C_7  and  C_8
REMARK    4  A    between atoms: N_10  and  C_11
REMARK    5  A    between atoms: C_11  and  C_12
REMARK    6  A    between atoms: C_11  and  C_24
REMARK    7  A    between atoms: C_15  and  O_16
REMARK    8  A    between atoms: O_16  and  C_17
REMARK                            x       y       z     vdW  Elec       q    Type
REMARK                         _______ _______ _______ _____ _____    ______ ____
ROOT
ATOM      1  C   UNL     1       3.256   5.971  19.244  0.00  0.00    +0.000 C 
ENDROOT
BRANCH   1   2
ATOM      2  C   UNL     1       2.428   7.251  19.137  0.00  0.00    +0.000 A 
ATOM      3  C   UNL     1       2.357   7.952  17.924  0.00  0.00    +0.000 A 
ATOM      4  C   UNL     1       1.686   9.179  17.844  0.00  0.00    +0.000 A 
ATOM      5  C   UNL     1       1.078   9.734  18.969  0.00  0.00    +0.000 A 
ATOM      6  C   UNL     1       1.155   9.049  20.181  0.00  0.00    +0.000 A 
ATOM      7  F   UNL     1       0.716   9.593  21.322  0.00  0.00    +0.000 F 
ATOM      8  C   UNL     1       1.781   7.801  20.256  0.00  0.00    +0.000 A 
BRANCH   5   9
ATOM      9  O   UNL     1       0.532  10.966  18.768  0.00  0.00    +0.000 OA
BRANCH   9  10
ATOM     10  C   UNL     1       1.278  12.142  19.063  0.00  0.00    +0.000 C 
ATOM     11  F   UNL     1       1.565  12.320  20.369  0.00  0.00    +0.000 F 
ATOM     12  F   UNL     1       2.424  12.137  18.347  0.00  0.00    +0.000 F 
ATOM     13  F   UNL     1       0.549  13.210  18.667  0.00  0.00    +0.000 F 
ENDBRANCH   9  10
ENDBRANCH   5   9
ENDBRANCH   1   2
BRANCH   1  14
ATOM     14  C   UNL     1       2.458   4.846  19.910  0.00  0.00    +0.000 A 
ATOM     15  N   UNL     1       2.763   4.509  21.204  0.00  0.00    +0.000 NA
ATOM     16  C   UNL     1       2.097   3.448  21.728  0.00  0.00    +0.000 A 
ATOM     17  C   UNL     1       1.163   2.693  21.033  0.00  0.00    +0.000 A 
ATOM     18  C   UNL     1       0.858   3.060  19.728  0.00  0.00    +0.000 A 
ATOM     19  C   UNL     1       1.508   4.149  19.166  0.00  0.00    +0.000 A 
ATOM     20  F   UNL     1       1.218   4.512  17.910  0.00  0.00    +0.000 F 
ENDBRANCH   1  14
BRANCH   1  23
ATOM     21  C   UNL     1       5.075   5.316  17.699  0.00  0.00    +0.000 C 
ATOM     22  O   UNL     1       5.912   5.415  18.587  0.00  0.00    +0.000 OA
ATOM     23  N   UNL     1       3.737   5.562  17.929  0.00  0.00    +0.000 N 
ATOM     24  H   UNL     1       3.018   5.426  17.233  0.00  0.00    +0.000 HD
BRANCH  21  28
ATOM     25  C   UNL     1       6.450   4.261  13.746  0.00  0.00    +0.000 A 
ATOM     26  C   UNL     1       7.296   4.894  14.659  0.00  0.00    +0.000 A 
ATOM     27  C   UNL     1       6.822   5.222  15.936  0.00  0.00    +0.000 A 
ATOM     28  C   UNL     1       5.503   4.920  16.320  0.00  0.00    +0.000 A 
ATOM     29  C   UNL     1       4.670   4.269  15.403  0.00  0.00    +0.000 A 
ATOM     30  C   UNL     1       5.143   3.934  14.127  0.00  0.00    +0.000 A 
BRANCH  25  32
ATOM     31  O   UNL     1       7.578   4.716  11.698  0.00  0.00    +0.000 OA
ATOM     32  C   UNL     1       6.986   3.918  12.408  0.00  0.00    +0.000 C 
BRANCH  32  33
ATOM     33  O   UNL     1       6.730   2.645  12.026  0.00  0.00    +0.000 OA
ATOM     34  H   UNL     1       7.492   2.169  11.645  0.00  0.00    +0.000 HD
ENDBRANCH  32  33
ENDBRANCH  25  32
ENDBRANCH  21  28
ENDBRANCH   1  23
TORSDOF 8
ENDMDL
MODEL 5
REMARK VINA RESULT:      -8.9      1.028      1.616
REMARK  Name = 
REMARK  8 active torsions:
REMARK  status: ('A' for Active; 'I' for Inactive)
REMARK    1  A    between atoms: C_2  and  O_3
REMARK    2  A    between atoms: C_2  and  C_4
REMARK    3  A    between atoms: C_7  and  C_8
REMARK    4  A    between atoms: N_10  and  C_11
REMARK    5  A    between atoms: C_11  and  C_12
REMARK    6  A    between atoms: C_11  and  C_24
REMARK    7  A    between atoms: C_15  and  O_16
REMARK    8  A    between atoms: O_16  and  C_17
REMARK                            x       y       z     vdW  Elec       q    Type
REMARK                         _______ _______ _______ _____ _____    ______ ____
ROOT
ATOM      1  C   UNL     1       3.275   5.898  19.673  0.00  0.00    +0.000 C 
ENDROOT
BRANCH   1   2
ATOM      2  C   UNL     1       2.457   7.188  19.668  0.00  0.00    +0.000 A 
ATOM      3  C   UNL     1       1.706   7.559  20.794  0.00  0.00    +0.000 A 
ATOM      4  C   UNL     1       0.873   8.685  20.762  0.00  0.00    +0.000 A 
ATOM      5  C   UNL     1       0.767   9.460  19.608  0.00  0.00    +0.000 A 
ATOM      6  C   UNL     1       1.500   9.091  18.481  0.00  0.00    +0.000 A 
ATOM      7  F   UNL     1       1.334   9.708  17.305  0.00  0.00    +0.000 F 
ATOM      8  C   UNL     1       2.370   7.997  18.522  0.00  0.00    +0.000 A 
BRANCH   5   9
ATOM      9  O   UNL     1      -0.138  10.476  19.690  0.00  0.00    +0.000 OA
BRANCH   9  10
ATOM     10  C   UNL     1       0.298  11.811  19.926  0.00  0.00    +0.000 C 
ATOM     11  F   UNL     1       1.622  11.946  20.145  0.00  0.00    +0.000 F 
ATOM     12  F   UNL     1      -0.068  12.591  18.885  0.00  0.00    +0.000 F 
ATOM     13  F   UNL     1      -0.338  12.268  21.029  0.00  0.00    +0.000 F 
ENDBRANCH   9  10
ENDBRANCH   5   9
ENDBRANCH   1   2
BRANCH   1  14
ATOM     14  C   UNL     1       2.427   4.703  20.119  0.00  0.00    +0.000 A 
ATOM     15  N   UNL     1       2.616   4.207  21.384  0.00  0.00    +0.000 NA
ATOM     16  C   UNL     1       1.912   3.093  21.709  0.00  0.00    +0.000 A 
ATOM     17  C   UNL     1       1.049   2.435  20.844  0.00  0.00    +0.000 A 
ATOM     18  C   UNL     1       0.861   2.962  19.572  0.00  0.00    +0.000 A 
ATOM     19  C   UNL     1       1.553   4.109  19.211  0.00  0.00    +0.000 A 
ATOM     20  F   UNL     1       1.376   4.626  17.989  0.00  0.00    +0.000 F 
ENDBRANCH   1  14
BRANCH   1  23
ATOM     21  C   UNL     1       5.064   4.995  18.219  0.00  0.00    +0.000 C 
ATOM     22  O   UNL     1       5.679   4.563  19.186  0.00  0.00    +0.000 OA
ATOM     23  N   UNL     1       3.862   5.660  18.359  0.00  0.00    +0.000 N 
ATOM     24  H   UNL     1       3.303   5.968  17.577  0.00  0.00    +0.000 HD
BRANCH  21  28
ATOM     25  C   UNL     1       6.533   4.348  14.213  0.00  0.00    +0.000 A 
ATOM     26  C   UNL     1       5.231   3.991  14.571  0.00  0.00    +0.000 A 
ATOM     27  C   UNL     1       4.781   4.215  15.878  0.00  0.00    +0.000 A 
ATOM     28  C   UNL     1       5.620   4.802  16.843  0.00  0.00    +0.000 A 
ATOM     29  C   UNL     1       6.917   5.173  16.469  0.00  0.00    +0.000 A 
ATOM     30  C   UNL     1       7.368   4.956  15.160  0.00  0.00    +0.000 A 
BRANCH  25  32
ATOM     31  O   UNL     1       7.649   4.900  12.182  0.00  0.00    +0.000 OA
ATOM     32  C   UNL     1       6.973   4.107  12.819  0.00  0.00    +0.000 C 
BRANCH  32  33
ATOM     33  O   UNL     1       6.529   2.939  12.300  0.00  0.00    +0.000 OA
ATOM     34  H   UNL     1       6.644   2.848  11.335  0.00  0.00    +0.000 HD
ENDBRANCH  32  33
ENDBRANCH  25  32
ENDBRANCH  21  28
ENDBRANCH   1  23
TORSDOF 8
ENDMDL
MODEL 6
REMARK VINA RESULT:      -8.8      0.923      1.511
REMARK  Name = 
REMARK  8 active torsions:
REMARK  status: ('A' for Active; 'I' for Inactive)
REMARK    1  A    between atoms: C_2  and  O_3
REMARK    2  A    between atoms: C_2  and  C_4
REMARK    3  A    between atoms: C_7  and  C_8
REMARK    4  A    between atoms: N_10  and  C_11
REMARK    5  A    between atoms: C_11  and  C_12
REMARK    6  A    between atoms: C_11  and  C_24
REMARK    7  A    between atoms: C_15  and  O_16
REMARK    8  A    between atoms: O_16  and  C_17
REMARK                            x       y       z     vdW  Elec       q    Type
REMARK                         _______ _______ _______ _____ _____    ______ ____
ROOT
ATOM      1  C   UNL     1       3.192   5.980  19.647  0.00  0.00    +0.000 C 
ENDROOT
BRANCH   1   2
ATOM      2  C   UNL     1       2.400   7.286  19.691  0.00  0.00    +0.000 A 
ATOM      3  C   UNL     1       1.652   7.625  20.830  0.00  0.00    +0.000 A 
ATOM      4  C   UNL     1       0.842   8.768  20.841  0.00  0.00    +0.000 A 
ATOM      5  C   UNL     1       0.756   9.591  19.719  0.00  0.00    +0.000 A 
ATOM      6  C   UNL     1       1.485   9.254  18.581  0.00  0.00    +0.000 A 
ATOM      7  F   UNL     1       1.336   9.921  17.430  0.00  0.00    +0.000 F 
ATOM      8  C   UNL     1       2.333   8.142  18.580  0.00  0.00    +0.000 A 
BRANCH   5   9
ATOM      9  O   UNL     1      -0.129  10.621  19.840  0.00  0.00    +0.000 OA
BRANCH   9  10
ATOM     10  C   UNL     1      -1.257  10.706  18.975  0.00  0.00    +0.000 C 
ATOM     11  F   UNL     1      -1.037  11.362  17.817  0.00  0.00    +0.000 F 
ATOM     12  F   UNL     1      -1.712   9.462  18.709  0.00  0.00    +0.000 F 
ATOM     13  F   UNL     1      -2.235  11.372  19.630  0.00  0.00    +0.000 F 
ENDBRANCH   9  10
ENDBRANCH   5   9
ENDBRANCH   1   2
BRANCH   1  14
ATOM     14  C   UNL     1       2.294   4.774  19.939  0.00  0.00    +0.000 A 
ATOM     15  N   UNL     1       2.348   4.211  21.189  0.00  0.00    +0.000 NA
ATOM     16  C   UNL     1       1.606   3.090  21.381  0.00  0.00    +0.000 A 
ATOM     17  C   UNL     1       0.833   2.488  20.398  0.00  0.00    +0.000 A 
ATOM     18  C   UNL     1       0.781   3.083  19.143  0.00  0.00    +0.000 A 
ATOM     19  C   UNL     1       1.514   4.239  18.917  0.00  0.00    +0.000 A 
ATOM     20  F   UNL     1       1.468   4.820  17.711  0.00  0.00    +0.000 F 
ENDBRANCH   1  14
BRANCH   1  23
ATOM     21  C   UNL     1       4.996   5.059  18.224  0.00  0.00    +0.000 C 
ATOM     22  O   UNL     1       5.481   4.454  19.172  0.00  0.00    +0.000 OA
ATOM     23  N   UNL     1       3.861   5.832  18.359  0.00  0.00    +0.000 N 
ATOM     24  H   UNL     1       3.404   6.289  17.583  0.00  0.00    +0.000 HD
BRANCH  21  28
ATOM     25  C   UNL     1       6.730   4.714  14.287  0.00  0.00    +0.000 A 
ATOM     26  C   UNL     1       5.388   4.400  14.515  0.00  0.00    +0.000 A 
ATOM     27  C   UNL     1       4.853   4.524  15.803  0.00  0.00    +0.000 A 
ATOM     28  C   UNL     1       5.645   4.967  16.879  0.00  0.00    +0.000 A 
ATOM     29  C   UNL     1       6.983   5.296  16.635  0.00  0.00    +0.000 A 
ATOM     30  C   UNL     1       7.521   5.179  15.346  0.00  0.00    +0.000 A 
BRANCH  25  32
ATOM     31  O   UNL     1       6.953   3.672  12.157  0.00  0.00    +0.000 OA
ATOM     32  C   UNL     1       7.262   4.582  12.911  0.00  0.00    +0.000 C 
BRANCH  32  33
ATOM     33  O   UNL     1       8.151   5.545  12.572  0.00  0.00    +0.000 OA
ATOM     34  H   UNL     1       9.010   5.491  13.030  0.00  0.00    +0.000 HD
ENDBRANCH  32  33
ENDBRANCH  25  32
ENDBRANCH  21  28
ENDBRANCH   1  23
TORSDOF 8
ENDMDL
MODEL 7
REMARK VINA RESULT:      -8.7      1.161      1.476
REMARK  Name = 
REMARK  8 active torsions:
REMARK  status: ('A' for Active; 'I' for Inactive)
REMARK    1  A    between atoms: C_2  and  O_3
REMARK    2  A    between atoms: C_2  and  C_4
REMARK    3  A    between atoms: C_7  and  C_8
REMARK    4  A    between atoms: N_10  and  C_11
REMARK    5  A    between atoms: C_11  and  C_12
REMARK    6  A    between atoms: C_11  and  C_24
REMARK    7  A    between atoms: C_15  and  O_16
REMARK    8  A    between atoms: O_16  and  C_17
REMARK                            x       y       z     vdW  Elec       q    Type
REMARK                         _______ _______ _______ _____ _____    ______ ____
ROOT
ATOM      1  C   UNL     1       3.101   6.162  19.717  0.00  0.00    +0.000 C 
ENDROOT
BRANCH   1   2
ATOM      2  C   UNL     1       2.169   7.372  19.686  0.00  0.00    +0.000 A 
ATOM      3  C   UNL     1       2.103   8.189  18.546  0.00  0.00    +0.000 A 
ATOM      4  C   UNL     1       1.330   9.358  18.547  0.00  0.00    +0.000 A 
ATOM      5  C   UNL     1       0.614   9.739  19.680  0.00  0.00    +0.000 A 
ATOM      6  C   UNL     1       0.685   8.939  20.820  0.00  0.00    +0.000 A 
ATOM      7  F   UNL     1       0.137   9.322  21.979  0.00  0.00    +0.000 F 
ATOM      8  C   UNL     1       1.415   7.747  20.810  0.00  0.00    +0.000 A 
BRANCH   5   9
ATOM      9  O   UNL     1      -0.029  10.936  19.568  0.00  0.00    +0.000 OA
BRANCH   9  10
ATOM     10  C   UNL     1       0.458  12.081  20.260  0.00  0.00    +0.000 C 
ATOM     11  F   UNL     1       1.766  12.036  20.583  0.00  0.00    +0.000 F 
ATOM     12  F   UNL     1       0.215  13.186  19.521  0.00  0.00    +0.000 F 
ATOM     13  F   UNL     1      -0.235  12.196  21.416  0.00  0.00    +0.000 F 
ENDBRANCH   9  10
ENDBRANCH   5   9
ENDBRANCH   1   2
BRANCH   1  14
ATOM     14  C   UNL     1       2.347   4.889  20.111  0.00  0.00    +0.000 A 
ATOM     15  N   UNL     1       2.526   4.392  21.377  0.00  0.00    +0.000 NA
ATOM     16  C   UNL     1       1.913   3.213  21.658  0.00  0.00    +0.000 A 
ATOM     17  C   UNL     1       1.150   2.494  20.749  0.00  0.00    +0.000 A 
ATOM     18  C   UNL     1       0.969   3.022  19.476  0.00  0.00    +0.000 A 
ATOM     19  C   UNL     1       1.568   4.233  19.160  0.00  0.00    +0.000 A 
ATOM     20  F   UNL     1       1.397   4.751  17.937  0.00  0.00    +0.000 F 
ENDBRANCH   1  14
BRANCH   1  23
ATOM     21  C   UNL     1       4.939   5.278  18.315  0.00  0.00    +0.000 C 
ATOM     22  O   UNL     1       5.462   4.736  19.281  0.00  0.00    +0.000 OA
ATOM     23  N   UNL     1       3.767   5.996  18.430  0.00  0.00    +0.000 N 
ATOM     24  H   UNL     1       3.281   6.397  17.640  0.00  0.00    +0.000 HD
BRANCH  21  28
ATOM     25  C   UNL     1       6.677   4.834  14.389  0.00  0.00    +0.000 A 
ATOM     26  C   UNL     1       5.454   4.239  14.709  0.00  0.00    +0.000 A 
ATOM     27  C   UNL     1       4.914   4.403  15.990  0.00  0.00    +0.000 A 
ATOM     28  C   UNL     1       5.581   5.164  16.967  0.00  0.00    +0.000 A 
ATOM     29  C   UNL     1       6.797   5.770  16.631  0.00  0.00    +0.000 A 
ATOM     30  C   UNL     1       7.337   5.614  15.347  0.00  0.00    +0.000 A 
BRANCH  25  32
ATOM     31  O   UNL     1       6.887   3.729  12.289  0.00  0.00    +0.000 OA
ATOM     32  C   UNL     1       7.215   4.650  13.021  0.00  0.00    +0.000 C 
BRANCH  32  33
ATOM     33  O   UNL     1       8.133   5.579  12.664  0.00  0.00    +0.000 OA
ATOM     34  H   UNL     1       8.346   6.234  13.355  0.00  0.00    +0.000 HD
ENDBRANCH  32  33
ENDBRANCH  25  32
ENDBRANCH  21  28
ENDBRANCH   1  23
TORSDOF 8
ENDMDL
MODEL 8
REMARK VINA RESULT:      -8.7      0.796      1.494
REMARK  Name = 
REMARK  8 active torsions:
REMARK  status: ('A' for Active; 'I' for Inactive)
REMARK    1  A    between atoms: C_2  and  O_3
REMARK    2  A    between atoms: C_2  and  C_4
REMARK    3  A    between atoms: C_7  and  C_8
REMARK    4  A    between atoms: N_10  and  C_11
REMARK    5  A    between atoms: C_11  and  C_12
REMARK    6  A    between atoms: C_11  and  C_24
REMARK    7  A    between atoms: C_15  and  O_16
REMARK    8  A    between atoms: O_16  and  C_17
REMARK                            x       y       z     vdW  Elec       q    Type
REMARK                         _______ _______ _______ _____ _____    ______ ____
ROOT
ATOM      1  C   UNL     1       3.289   5.890  19.566  0.00  0.00    +0.000 C 
ENDROOT
BRANCH   1   2
ATOM      2  C   UNL     1       2.523   7.212  19.578  0.00  0.00    +0.000 A 
ATOM      3  C   UNL     1       1.797   7.604  20.714  0.00  0.00    +0.000 A 
ATOM      4  C   UNL     1       1.010   8.762  20.697  0.00  0.00    +0.000 A 
ATOM      5  C   UNL     1       0.924   9.549  19.551  0.00  0.00    +0.000 A 
ATOM      6  C   UNL     1       1.631   9.160  18.414  0.00  0.00    +0.000 A 
ATOM      7  F   UNL     1       1.479   9.792  17.244  0.00  0.00    +0.000 F 
ATOM      8  C   UNL     1       2.457   8.032  18.439  0.00  0.00    +0.000 A 
BRANCH   5   9
ATOM      9  O   UNL     1       0.061  10.600  19.648  0.00  0.00    +0.000 OA
BRANCH   9  10
ATOM     10  C   UNL     1      -1.164  10.595  18.923  0.00  0.00    +0.000 C 
ATOM     11  F   UNL     1      -1.652   9.370  18.640  0.00  0.00    +0.000 F 
ATOM     12  F   UNL     1      -2.091  11.302  19.605  0.00  0.00    +0.000 F 
ATOM     13  F   UNL     1      -0.953  11.221  17.743  0.00  0.00    +0.000 F 
ENDBRANCH   9  10
ENDBRANCH   5   9
ENDBRANCH   1   2
BRANCH   1  14
ATOM     14  C   UNL     1       2.419   4.738  20.079  0.00  0.00    +0.000 A 
ATOM     15  N   UNL     1       2.624   4.288  21.358  0.00  0.00    +0.000 NA
ATOM     16  C   UNL     1       1.898   3.208  21.745  0.00  0.00    +0.000 A 
ATOM     17  C   UNL     1       0.997   2.540  20.927  0.00  0.00    +0.000 A 
ATOM     18  C   UNL     1       0.794   3.022  19.639  0.00  0.00    +0.000 A 
ATOM     19  C   UNL     1       1.508   4.134  19.217  0.00  0.00    +0.000 A 
ATOM     20  F   UNL     1       1.316   4.607  17.979  0.00  0.00    +0.000 F 
ENDBRANCH   1  14
BRANCH   1  23
ATOM     21  C   UNL     1       5.013   4.982  18.041  0.00  0.00    +0.000 C 
ATOM     22  O   UNL     1       5.710   4.628  18.983  0.00  0.00    +0.000 OA
ATOM     23  N   UNL     1       3.796   5.606  18.229  0.00  0.00    +0.000 N 
ATOM     24  H   UNL     1       3.173   5.849  17.473  0.00  0.00    +0.000 HD
BRANCH  21  28
ATOM     25  C   UNL     1       6.503   4.372  14.036  0.00  0.00    +0.000 A 
ATOM     26  C   UNL     1       7.294   4.977  15.016  0.00  0.00    +0.000 A 
ATOM     27  C   UNL     1       6.784   5.159  16.308  0.00  0.00    +0.000 A 
ATOM     28  C   UNL     1       5.484   4.738  16.641  0.00  0.00    +0.000 A 
ATOM     29  C   UNL     1       4.706   4.118  15.656  0.00  0.00    +0.000 A 
ATOM     30  C   UNL     1       5.216   3.928  14.364  0.00  0.00    +0.000 A 
BRANCH  25  32
ATOM     31  O   UNL     1       7.777   5.019  12.130  0.00  0.00    +0.000 OA
ATOM     32  C   UNL     1       7.077   4.185  12.683  0.00  0.00    +0.000 C 
BRANCH  32  33
ATOM     33  O   UNL     1       6.727   3.017  12.097  0.00  0.00    +0.000 OA
ATOM     34  H   UNL     1       7.248   2.781  11.306  0.00  0.00    +0.000 HD
ENDBRANCH  32  33
ENDBRANCH  25  32
ENDBRANCH  21  28
ENDBRANCH   1  23
TORSDOF 8
ENDMDL
MODEL 9
REMARK VINA RESULT:      -8.7      1.139      1.941
REMARK  Name = 
REMARK  8 active torsions:
REMARK  status: ('A' for Active; 'I' for Inactive)
REMARK    1  A    between atoms: C_2  and  O_3
REMARK    2  A    between atoms: C_2  and  C_4
REMARK    3  A    between atoms: C_7  and  C_8
REMARK    4  A    between atoms: N_10  and  C_11
REMARK    5  A    between atoms: C_11  and  C_12
REMARK    6  A    between atoms: C_11  and  C_24
REMARK    7  A    between atoms: C_15  and  O_16
REMARK    8  A    between atoms: O_16  and  C_17
REMARK                            x       y       z     vdW  Elec       q    Type
REMARK                         _______ _______ _______ _____ _____    ______ ____
ROOT
ATOM      1  C   UNL     1       3.247   5.890  19.634  0.00  0.00    +0.000 C 
ENDROOT
BRANCH   1   2
ATOM      2  C   UNL     1       2.429   7.179  19.696  0.00  0.00    +0.000 A 
ATOM      3  C   UNL     1       1.673   7.488  20.837  0.00  0.00    +0.000 A 
ATOM      4  C   UNL     1       0.841   8.615  20.862  0.00  0.00    +0.000 A 
ATOM      5  C   UNL     1       0.740   9.452  19.752  0.00  0.00    +0.000 A 
ATOM      6  C   UNL     1       1.478   9.145  18.610  0.00  0.00    +0.000 A 
ATOM      7  F   UNL     1       1.318   9.825  17.469  0.00  0.00    +0.000 F 
ATOM      8  C   UNL     1       2.347   8.050  18.596  0.00  0.00    +0.000 A 
BRANCH   5   9
ATOM      9  O   UNL     1      -0.165  10.462  19.885  0.00  0.00    +0.000 OA
BRANCH   9  10
ATOM     10  C   UNL     1       0.217  11.697  20.482  0.00  0.00    +0.000 C 
ATOM     11  F   UNL     1      -0.371  12.789  19.952  0.00  0.00    +0.000 F 
ATOM     12  F   UNL     1      -0.032  11.650  21.809  0.00  0.00    +0.000 F 
ATOM     13  F   UNL     1       1.552  11.844  20.317  0.00  0.00    +0.000 F 
ENDBRANCH   9  10
ENDBRANCH   5   9
ENDBRANCH   1   2
BRANCH   1  14
ATOM     14  C   UNL     1       2.402   4.676  20.028  0.00  0.00    +0.000 A 
ATOM     15  N   UNL     1       2.570   4.145  21.282  0.00  0.00    +0.000 NA
ATOM     16  C   UNL     1       1.870   3.015  21.561  0.00  0.00    +0.000 A 
ATOM     17  C   UNL     1       1.031   2.375  20.660  0.00  0.00    +0.000 A 
ATOM     18  C   UNL     1       0.863   2.937  19.400  0.00  0.00    +0.000 A 
ATOM     19  C   UNL     1       1.551   4.100  19.087  0.00  0.00    +0.000 A 
ATOM     20  F   UNL     1       1.393   4.651  17.876  0.00  0.00    +0.000 F 
ENDBRANCH   1  14
BRANCH   1  23
ATOM     21  C   UNL     1       5.013   5.034  18.125  0.00  0.00    +0.000 C 
ATOM     22  O   UNL     1       5.622   4.537  19.063  0.00  0.00    +0.000 OA
ATOM     23  N   UNL     1       3.826   5.715  18.307  0.00  0.00    +0.000 N 
ATOM     24  H   UNL     1       3.271   6.078  17.545  0.00  0.00    +0.000 HD
BRANCH  21  28
ATOM     25  C   UNL     1       6.725   4.761  14.173  0.00  0.00    +0.000 A 
ATOM     26  C   UNL     1       7.462   5.270  15.245  0.00  0.00    +0.000 A 
ATOM     27  C   UNL     1       6.880   5.344  16.517  0.00  0.00    +0.000 A 
ATOM     28  C   UNL     1       5.561   4.908  16.738  0.00  0.00    +0.000 A 
ATOM     29  C   UNL     1       4.838   4.384  15.660  0.00  0.00    +0.000 A 
ATOM     30  C   UNL     1       5.419   4.302  14.388  0.00  0.00    +0.000 A 
BRANCH  25  32
ATOM     31  O   UNL     1       7.147   3.801  12.034  0.00  0.00    +0.000 OA
ATOM     32  C   UNL     1       7.374   4.687  12.843  0.00  0.00    +0.000 C 
BRANCH  32  33
ATOM     33  O   UNL     1       8.272   5.674  12.616  0.00  0.00    +0.000 OA
ATOM     34  H   UNL     1       7.917   6.454  12.149  0.00  0.00    +0.000 HD
ENDBRANCH  32  33
ENDBRANCH  25  32
ENDBRANCH  21  28
ENDBRANCH   1  23
TORSDOF 8
ENDMDL
