MODEL 1
REMARK VINA RESULT:      -9.6      0.000      0.000
REMARK  Name = 
REMARK  7 active torsions:
REMARK  status: ('A' for Active; 'I' for Inactive)
REMARK    1  A    between atoms: C_1  and  C_2
REMARK    2  A    between atoms: N_4  and  C_5
REMARK    3  A    between atoms: C_5  and  C_6
REMARK    4  A    between atoms: N_8  and  C_9
REMARK    5  A    between atoms: C_12  and  C_13
REMARK    6  A    between atoms: C_16  and  C_17
REMARK    7  A    between atoms: N_18  and  N_19
REMARK                            x       y       z     vdW  Elec       q    Type
REMARK                         _______ _______ _______ _____ _____    ______ ____
ROOT
ATOM      1  C   UNL     1       2.931   6.497  18.830  0.00  0.00    +0.000 A 
ATOM      2  C   UNL     1       2.406   6.181  20.085  0.00  0.00    +0.000 A 
ATOM      3  C   UNL     1       1.628   7.096  20.782  0.00  0.00    +0.000 A 
ATOM      4  C   UNL     1       1.310   8.347  20.228  0.00  0.00    +0.000 A 
ATOM      5  C   UNL     1       1.828   8.629  18.952  0.00  0.00    +0.000 A 
ATOM      6  F   UNL     1       1.530   9.785  18.336  0.00  0.00    +0.000 F 
ATOM      7  C   UNL     1       2.645   7.738  18.270  0.00  0.00    +0.000 A 
ENDROOT
BRANCH   4   8
ATOM      8  C   UNL     1       0.487   9.308  20.972  0.00  0.00    +0.000 A 
ATOM      9  C   UNL     1       0.301   9.200  22.364  0.00  0.00    +0.000 A 
ATOM     10  C   UNL     1      -0.480  10.116  23.067  0.00  0.00    +0.000 A 
ATOM     11  C   UNL     1      -1.111  11.164  22.394  0.00  0.00    +0.000 A 
ATOM     12  C   UNL     1      -0.919  11.300  21.019  0.00  0.00    +0.000 A 
ATOM     13  F   UNL     1      -1.501  12.288  20.323  0.00  0.00    +0.000 F 
ATOM     14  C   UNL     1      -0.137  10.385  20.322  0.00  0.00    +0.000 A 
BRANCH  11  15
ATOM     15  C   UNL     1      -1.970  12.103  23.136  0.00  0.00    +0.000 C 
ATOM     16  N   UNL     1      -3.220  11.833  23.439  0.00  0.00    +0.000 NA
BRANCH  16  17
ATOM     17  N   UNL     1      -3.799  12.780  24.220  0.00  0.00    +0.000 N 
ATOM     18  C   UNL     1      -5.170  12.513  24.685  0.00  0.00    +0.000 C 
ATOM     19  C   UNL     1      -6.272  13.186  23.867  0.00  0.00    +0.000 C 
ATOM     20  C   UNL     1      -6.016  14.679  23.719  0.00  0.00    +0.000 C 
ATOM     21  C   UNL     1      -4.630  14.903  23.133  0.00  0.00    +0.000 C 
ATOM     22  C   UNL     1      -3.556  14.210  23.969  0.00  0.00    +0.000 C 
ENDBRANCH  16  17
ENDBRANCH  11  15
ENDBRANCH   4   8
BRANCH   1  25
ATOM     23  C   UNL     1       5.550   4.333  17.452  0.00  0.00    +0.000 C 
ATOM     24  C   UNL     1       5.163   5.672  18.063  0.00  0.00    +0.000 C 
ATOM     25  N   UNL     1       3.739   5.564  18.154  0.00  0.00    +0.000 N 
ATOM     26  C   UNL     1       3.282   4.442  17.494  0.00  0.00    +0.000 C 
ATOM     27  O   UNL     1       2.123   4.054  17.360  0.00  0.00    +0.000 OA
ATOM     28  O   UNL     1       4.326   3.788  16.926  0.00  0.00    +0.000 OA
BRANCH  23  29
ATOM     29  C   UNL     1       6.603   4.409  16.348  0.00  0.00    +0.000 C 
BRANCH  29  33
ATOM     30  C   UNL     1       6.011   3.535  12.710  0.00  0.00    +0.000 C 
ATOM     31  C   UNL     1       6.592   4.267  13.882  0.00  0.00    +0.000 C 
ATOM     32  O   UNL     1       7.336   5.243  13.762  0.00  0.00    +0.000 OA
ATOM     33  N   UNL     1       6.191   3.775  15.101  0.00  0.00    +0.000 N 
ATOM     34  H   UNL     1       5.676   2.900  15.118  0.00  0.00    +0.000 HD
ENDBRANCH  29  33
ENDBRANCH  23  29
ENDBRANCH   1  25
TORSDOF 6
ENDMDL
MODEL 2
REMARK VINA RESULT:      -9.3      1.245      1.559
REMARK  Name = 
REMARK  7 active torsions:
REMARK  status: ('A' for Active; 'I' for Inactive)
REMARK    1  A    between atoms: C_1  and  C_2
REMARK    2  A    between atoms: N_4  and  C_5
REMARK    3  A    between atoms: C_5  and  C_6
REMARK    4  A    between atoms: N_8  and  C_9
REMARK    5  A    between atoms: C_12  and  C_13
REMARK    6  A    between atoms: C_16  and  C_17
REMARK    7  A    between atoms: N_18  and  N_19
REMARK                            x       y       z     vdW  Elec       q    Type
REMARK                         _______ _______ _______ _____ _____    ______ ____
ROOT
ATOM      1  C   UNL     1       3.370   6.311  18.178  0.00  0.00    +0.000 A 
ATOM      2  C   UNL     1       2.930   5.930  19.449  0.00  0.00    +0.000 A 
ATOM      3  C   UNL     1       2.171   6.792  20.227  0.00  0.00    +0.000 A 
ATOM      4  C   UNL     1       1.785   8.053  19.745  0.00  0.00    +0.000 A 
ATOM      5  C   UNL     1       2.217   8.401  18.454  0.00  0.00    +0.000 A 
ATOM      6  F   UNL     1       1.849   9.571  17.905  0.00  0.00    +0.000 F 
ATOM      7  C   UNL     1       3.016   7.564  17.689  0.00  0.00    +0.000 A 
ENDROOT
BRANCH   4   8
ATOM      8  C   UNL     1       0.981   8.959  20.576  0.00  0.00    +0.000 A 
ATOM      9  C   UNL     1       0.273  10.040  20.017  0.00  0.00    +0.000 A 
ATOM     10  C   UNL     1      -0.490  10.896  20.809  0.00  0.00    +0.000 A 
ATOM     11  C   UNL     1      -0.558  10.703  22.190  0.00  0.00    +0.000 A 
ATOM     12  C   UNL     1       0.117   9.622  22.757  0.00  0.00    +0.000 A 
ATOM     13  F   UNL     1       0.086   9.389  24.078  0.00  0.00    +0.000 F 
ATOM     14  C   UNL     1       0.876   8.770  21.963  0.00  0.00    +0.000 A 
BRANCH  11  15
ATOM     15  C   UNL     1      -1.332  11.637  23.027  0.00  0.00    +0.000 C 
ATOM     16  N   UNL     1      -2.567  11.984  22.746  0.00  0.00    +0.000 NA
BRANCH  16  17
ATOM     17  N   UNL     1      -3.136  12.764  23.701  0.00  0.00    +0.000 N 
ATOM     18  C   UNL     1      -4.603  12.715  23.814  0.00  0.00    +0.000 C 
ATOM     19  C   UNL     1      -5.343  13.854  23.113  0.00  0.00    +0.000 C 
ATOM     20  C   UNL     1      -4.797  15.210  23.536  0.00  0.00    +0.000 C 
ATOM     21  C   UNL     1      -3.295  15.251  23.299  0.00  0.00    +0.000 C 
ATOM     22  C   UNL     1      -2.589  14.096  24.006  0.00  0.00    +0.000 C 
ENDBRANCH  16  17
ENDBRANCH  11  15
ENDBRANCH   4   8
BRANCH   1  25
ATOM     23  C   UNL     1       5.953   4.444  16.367  0.00  0.00    +0.000 C 
ATOM     24  C   UNL     1       5.443   5.780  16.885  0.00  0.00    +0.000 C 
ATOM     25  N   UNL     1       4.162   5.430  17.418  0.00  0.00    +0.000 N 
ATOM     26  C   UNL     1       3.819   4.137  17.082  0.00  0.00    +0.000 C 
ATOM     27  O   UNL     1       2.791   3.522  17.359  0.00  0.00    +0.000 OA
ATOM     28  O   UNL     1       4.795   3.590  16.315  0.00  0.00    +0.000 OA
BRANCH  23  29
ATOM     29  C   UNL     1       6.622   4.497  14.995  0.00  0.00    +0.000 C 
BRANCH  29  33
ATOM     30  C   UNL     1       5.563   2.786  11.786  0.00  0.00    +0.000 C 
ATOM     31  C   UNL     1       6.383   3.664  12.683  0.00  0.00    +0.000 C 
ATOM     32  O   UNL     1       7.312   4.363  12.269  0.00  0.00    +0.000 OA
ATOM     33  N   UNL     1       5.983   3.648  13.996  0.00  0.00    +0.000 N 
ATOM     34  H   UNL     1       5.291   2.961  14.279  0.00  0.00    +0.000 HD
ENDBRANCH  29  33
ENDBRANCH  23  29
ENDBRANCH   1  25
TORSDOF 6
ENDMDL
MODEL 3
REMARK VINA RESULT:      -9.2      1.644      2.125
REMARK  Name = 
REMARK  7 active torsions:
REMARK  status: ('A' for Active; 'I' for Inactive)
REMARK    1  A    between atoms: C_1  and  C_2
REMARK    2  A    between atoms: N_4  and  C_5
REMARK    3  A    between atoms: C_5  and  C_6
REMARK    4  A    between atoms: N_8  and  C_9
REMARK    5  A    between atoms: C_12  and  C_13
REMARK    6  A    between atoms: C_16  and  C_17
REMARK    7  A    between atoms: N_18  and  N_19
REMARK                            x       y       z     vdW  Elec       q    Type
REMARK                         _______ _______ _______ _____ _____    ______ ____
ROOT
ATOM      1  C   UNL     1       3.511   6.266  18.017  0.00  0.00    +0.000 A 
ATOM      2  C   UNL     1       3.270   7.597  17.667  0.00  0.00    +0.000 A 
ATOM      3  C   UNL     1       2.469   8.407  18.461  0.00  0.00    +0.000 A 
ATOM      4  C   UNL     1       1.915   7.927  19.658  0.00  0.00    +0.000 A 
ATOM      5  C   UNL     1       2.195   6.593  20.001  0.00  0.00    +0.000 A 
ATOM      6  F   UNL     1       1.740   6.075  21.154  0.00  0.00    +0.000 F 
ATOM      7  C   UNL     1       2.956   5.764  19.189  0.00  0.00    +0.000 A 
ENDROOT
BRANCH   4   8
ATOM      8  C   UNL     1       1.069   8.791  20.491  0.00  0.00    +0.000 A 
ATOM      9  C   UNL     1       0.210   9.753  19.924  0.00  0.00    +0.000 A 
ATOM     10  C   UNL     1      -0.593  10.570  20.718  0.00  0.00    +0.000 A 
ATOM     11  C   UNL     1      -0.551  10.458  22.109  0.00  0.00    +0.000 A 
ATOM     12  C   UNL     1       0.276   9.495  22.687  0.00  0.00    +0.000 A 
ATOM     13  F   UNL     1       0.354   9.343  24.018  0.00  0.00    +0.000 F 
ATOM     14  C   UNL     1       1.073   8.680  21.891  0.00  0.00    +0.000 A 
BRANCH  11  15
ATOM     15  C   UNL     1      -1.370  11.354  22.945  0.00  0.00    +0.000 C 
ATOM     16  N   UNL     1      -1.695  12.571  22.571  0.00  0.00    +0.000 NA
BRANCH  16  17
ATOM     17  N   UNL     1      -2.544  13.187  23.433  0.00  0.00    +0.000 N 
ATOM     18  C   UNL     1      -3.907  12.639  23.531  0.00  0.00    +0.000 C 
ATOM     19  C   UNL     1      -4.961  13.378  22.705  0.00  0.00    +0.000 C 
ATOM     20  C   UNL     1      -4.939  14.872  22.994  0.00  0.00    +0.000 C 
ATOM     21  C   UNL     1      -3.535  15.414  22.773  0.00  0.00    +0.000 C 
ATOM     22  C   UNL     1      -2.508  14.648  23.606  0.00  0.00    +0.000 C 
ENDBRANCH  16  17
ENDBRANCH  11  15
ENDBRANCH   4   8
BRANCH   1  25
ATOM     23  C   UNL     1       6.052   4.657  15.920  0.00  0.00    +0.000 C 
ATOM     24  C   UNL     1       5.437   5.942  16.457  0.00  0.00    +0.000 C 
ATOM     25  N   UNL     1       4.305   5.456  17.183  0.00  0.00    +0.000 N 
ATOM     26  C   UNL     1       4.102   4.111  16.950  0.00  0.00    +0.000 C 
ATOM     27  O   UNL     1       3.219   3.383  17.397  0.00  0.00    +0.000 OA
ATOM     28  O   UNL     1       5.029   3.656  16.070  0.00  0.00    +0.000 OA
BRANCH  23  29
ATOM     29  C   UNL     1       6.510   4.720  14.465  0.00  0.00    +0.000 C 
BRANCH  29  33
ATOM     30  C   UNL     1       5.767   2.309  11.638  0.00  0.00    +0.000 C 
ATOM     31  C   UNL     1       6.421   3.460  12.342  0.00  0.00    +0.000 C 
ATOM     32  O   UNL     1       7.216   4.222  11.786  0.00  0.00    +0.000 OA
ATOM     33  N   UNL     1       6.028   3.610  13.649  0.00  0.00    +0.000 N 
ATOM     34  H   UNL     1       5.465   2.877  14.068  0.00  0.00    +0.000 HD
ENDBRANCH  29  33
ENDBRANCH  23  29
ENDBRANCH   1  25
TORSDOF 6
ENDMDL
MODEL 4
REMARK VINA RESULT:      -9.2      1.623      2.136
REMARK  Name = 
REMARK  7 active torsions:
REMARK  status: ('A' for Active; 'I' for Inactive)
REMARK    1  A    between atoms: C_1  and  C_2
REMARK    2  A    between atoms: N_4  and  C_5
REMARK    3  A    between atoms: C_5  and  C_6
REMARK    4  A    between atoms: N_8  and  C_9
REMARK    5  A    between atoms: C_12  and  C_13
REMARK    6  A    between atoms: C_16  and  C_17
REMARK    7  A    between atoms: N_18  and  N_19
REMARK                            x       y       z     vdW  Elec       q    Type
REMARK                         _______ _______ _______ _____ _____    ______ ____
ROOT
ATOM      1  C   UNL     1       3.773   5.978  17.852  0.00  0.00    +0.000 A 
ATOM      2  C   UNL     1       3.578   7.316  17.501  0.00  0.00    +0.000 A 
ATOM      3  C   UNL     1       2.778   8.145  18.276  0.00  0.00    +0.000 A 
ATOM      4  C   UNL     1       2.179   7.677  19.456  0.00  0.00    +0.000 A 
ATOM      5  C   UNL     1       2.414   6.334  19.800  0.00  0.00    +0.000 A 
ATOM      6  F   UNL     1       1.913   5.826  20.939  0.00  0.00    +0.000 F 
ATOM      7  C   UNL     1       3.173   5.487  19.006  0.00  0.00    +0.000 A 
ENDROOT
BRANCH   4   8
ATOM      8  C   UNL     1       1.335   8.561  20.269  0.00  0.00    +0.000 A 
ATOM      9  C   UNL     1       1.398   8.554  21.676  0.00  0.00    +0.000 A 
ATOM     10  C   UNL     1       0.596   9.396  22.444  0.00  0.00    +0.000 A 
ATOM     11  C   UNL     1      -0.306  10.265  21.827  0.00  0.00    +0.000 A 
ATOM     12  C   UNL     1      -0.364  10.302  20.433  0.00  0.00    +0.000 A 
ATOM     13  F   UNL     1      -1.211  11.118  19.788  0.00  0.00    +0.000 F 
ATOM     14  C   UNL     1       0.439   9.462  19.671  0.00  0.00    +0.000 A 
BRANCH  11  15
ATOM     15  C   UNL     1      -1.181  11.121  22.646  0.00  0.00    +0.000 C 
ATOM     16  N   UNL     1      -0.832  12.327  23.033  0.00  0.00    +0.000 NA
BRANCH  16  17
ATOM     17  N   UNL     1      -1.823  12.990  23.682  0.00  0.00    +0.000 N 
ATOM     18  C   UNL     1      -3.188  12.461  23.529  0.00  0.00    +0.000 C 
ATOM     19  C   UNL     1      -4.043  13.174  22.481  0.00  0.00    +0.000 C 
ATOM     20  C   UNL     1      -4.051  14.679  22.706  0.00  0.00    +0.000 C 
ATOM     21  C   UNL     1      -2.620  15.195  22.747  0.00  0.00    +0.000 C 
ATOM     22  C   UNL     1      -1.794  14.457  23.798  0.00  0.00    +0.000 C 
ENDBRANCH  16  17
ENDBRANCH  11  15
ENDBRANCH   4   8
BRANCH   1  25
ATOM     23  C   UNL     1       6.271   4.362  15.709  0.00  0.00    +0.000 C 
ATOM     24  C   UNL     1       5.589   5.643  16.166  0.00  0.00    +0.000 C 
ATOM     25  N   UNL     1       4.567   5.149  17.036  0.00  0.00    +0.000 N 
ATOM     26  C   UNL     1       4.467   3.775  16.958  0.00  0.00    +0.000 C 
ATOM     27  O   UNL     1       3.692   3.030  17.554  0.00  0.00    +0.000 OA
ATOM     28  O   UNL     1       5.357   3.303  16.050  0.00  0.00    +0.000 OA
BRANCH  23  29
ATOM     29  C   UNL     1       6.603   4.304  14.220  0.00  0.00    +0.000 C 
BRANCH  29  33
ATOM     30  C   UNL     1       4.322   3.164  11.419  0.00  0.00    +0.000 C 
ATOM     31  C   UNL     1       5.598   3.317  12.191  0.00  0.00    +0.000 C 
ATOM     32  O   UNL     1       6.683   2.894  11.785  0.00  0.00    +0.000 OA
ATOM     33  N   UNL     1       5.455   4.001  13.374  0.00  0.00    +0.000 N 
ATOM     34  H   UNL     1       4.515   4.211  13.695  0.00  0.00    +0.000 HD
ENDBRANCH  29  33
ENDBRANCH  23  29
ENDBRANCH   1  25
TORSDOF 6
ENDMDL
MODEL 5
REMARK VINA RESULT:      -9.2      1.332      1.760
REMARK  Name = 
REMARK  7 active torsions:
REMARK  status: ('A' for Active; 'I' for Inactive)
REMARK    1  A    between atoms: C_1  and  C_2
REMARK    2  A    between atoms: N_4  and  C_5
REMARK    3  A    between atoms: C_5  and  C_6
REMARK    4  A    between atoms: N_8  and  C_9
REMARK    5  A    between atoms: C_12  and  C_13
REMARK    6  A    between atoms: C_16  and  C_17
REMARK    7  A    between atoms: N_18  and  N_19
REMARK                            x       y       z     vdW  Elec       q    Type
REMARK                         _______ _______ _______ _____ _____    ______ ____
ROOT
ATOM      1  C   UNL     1       3.492   6.452  18.044  0.00  0.00    +0.000 A 
ATOM      2  C   UNL     1       2.976   6.119  19.299  0.00  0.00    +0.000 A 
ATOM      3  C   UNL     1       2.152   7.001  19.985  0.00  0.00    +0.000 A 
ATOM      4  C   UNL     1       1.778   8.231  19.421  0.00  0.00    +0.000 A 
ATOM      5  C   UNL     1       2.288   8.529  18.146  0.00  0.00    +0.000 A 
ATOM      6  F   UNL     1       1.939   9.665  17.521  0.00  0.00    +0.000 F 
ATOM      7  C   UNL     1       3.150   7.674  17.475  0.00  0.00    +0.000 A 
ENDROOT
BRANCH   4   8
ATOM      8  C   UNL     1       0.905   9.157  20.155  0.00  0.00    +0.000 A 
ATOM      9  C   UNL     1       0.104  10.103  19.487  0.00  0.00    +0.000 A 
ATOM     10  C   UNL     1      -0.724  10.979  20.187  0.00  0.00    +0.000 A 
ATOM     11  C   UNL     1      -0.766  10.943  21.581  0.00  0.00    +0.000 A 
ATOM     12  C   UNL     1       0.003   9.996  22.259  0.00  0.00    +0.000 A 
ATOM     13  F   UNL     1       0.000   9.917  23.598  0.00  0.00    +0.000 F 
ATOM     14  C   UNL     1       0.826   9.123  21.556  0.00  0.00    +0.000 A 
BRANCH  11  15
ATOM     15  C   UNL     1      -1.610  11.901  22.317  0.00  0.00    +0.000 C 
ATOM     16  N   UNL     1      -2.065  13.008  21.775  0.00  0.00    +0.000 NA
BRANCH  16  17
ATOM     17  N   UNL     1      -2.913  13.692  22.584  0.00  0.00    +0.000 N 
ATOM     18  C   UNL     1      -2.930  13.310  24.006  0.00  0.00    +0.000 C 
ATOM     19  C   UNL     1      -4.063  12.365  24.407  0.00  0.00    +0.000 C 
ATOM     20  C   UNL     1      -5.414  12.903  23.959  0.00  0.00    +0.000 C 
ATOM     21  C   UNL     1      -5.382  13.179  22.463  0.00  0.00    +0.000 C 
ATOM     22  C   UNL     1      -4.235  14.119  22.098  0.00  0.00    +0.000 C 
ENDBRANCH  16  17
ENDBRANCH  11  15
ENDBRANCH   4   8
BRANCH   1  25
ATOM     23  C   UNL     1       6.211   4.584  16.444  0.00  0.00    +0.000 C 
ATOM     24  C   UNL     1       5.613   5.930  16.828  0.00  0.00    +0.000 C 
ATOM     25  N   UNL     1       4.347   5.553  17.378  0.00  0.00    +0.000 N 
ATOM     26  C   UNL     1       4.088   4.216  17.163  0.00  0.00    +0.000 C 
ATOM     27  O   UNL     1       3.095   3.568  17.487  0.00  0.00    +0.000 OA
ATOM     28  O   UNL     1       5.108   3.660  16.462  0.00  0.00    +0.000 OA
BRANCH  23  29
ATOM     29  C   UNL     1       6.898   4.549  15.080  0.00  0.00    +0.000 C 
BRANCH  29  33
ATOM     30  C   UNL     1       5.680   2.856  11.918  0.00  0.00    +0.000 C 
ATOM     31  C   UNL     1       6.508   3.772  12.769  0.00  0.00    +0.000 C 
ATOM     32  O   UNL     1       7.334   4.558  12.300  0.00  0.00    +0.000 OA
ATOM     33  N   UNL     1       6.237   3.682  14.112  0.00  0.00    +0.000 N 
ATOM     34  H   UNL     1       5.632   2.930  14.430  0.00  0.00    +0.000 HD
ENDBRANCH  29  33
ENDBRANCH  23  29
ENDBRANCH   1  25
TORSDOF 6
ENDMDL
MODEL 6
REMARK VINA RESULT:      -9.2      1.444      1.941
REMARK  Name = 
REMARK  7 active torsions:
REMARK  status: ('A' for Active; 'I' for Inactive)
REMARK    1  A    between atoms: C_1  and  C_2
REMARK    2  A    between atoms: N_4  and  C_5
REMARK    3  A    between atoms: C_5  and  C_6
REMARK    4  A    between atoms: N_8  and  C_9
REMARK    5  A    between atoms: C_12  and  C_13
REMARK    6  A    between atoms: C_16  and  C_17
REMARK    7  A    between atoms: N_18  and  N_19
REMARK                            x       y       z     vdW  Elec       q    Type
REMARK                         _______ _______ _______ _____ _____    ______ ____
ROOT
ATOM      1  C   UNL     1       3.093   6.873  18.471  0.00  0.00    +0.000 A 
ATOM      2  C   UNL     1       2.828   7.948  17.617  0.00  0.00    +0.000 A 
ATOM      3  C   UNL     1       1.940   8.948  17.988  0.00  0.00    +0.000 A 
ATOM      4  C   UNL     1       1.316   8.934  19.245  0.00  0.00    +0.000 A 
ATOM      5  C   UNL     1       1.621   7.857  20.096  0.00  0.00    +0.000 A 
ATOM      6  F   UNL     1       1.101   7.797  21.333  0.00  0.00    +0.000 F 
ATOM      7  C   UNL     1       2.471   6.829  19.714  0.00  0.00    +0.000 A 
ENDROOT
BRANCH   4   8
ATOM      8  C   UNL     1       0.378   9.997  19.628  0.00  0.00    +0.000 A 
ATOM      9  C   UNL     1       0.537  10.727  20.822  0.00  0.00    +0.000 A 
ATOM     10  C   UNL     1      -0.354  11.737  21.181  0.00  0.00    +0.000 A 
ATOM     11  C   UNL     1      -1.443  12.038  20.361  0.00  0.00    +0.000 A 
ATOM     12  C   UNL     1      -1.602  11.341  19.163  0.00  0.00    +0.000 A 
ATOM     13  F   UNL     1      -2.629  11.590  18.337  0.00  0.00    +0.000 F 
ATOM     14  C   UNL     1      -0.709  10.336  18.807  0.00  0.00    +0.000 A 
BRANCH  11  15
ATOM     15  C   UNL     1      -2.406  13.077  20.767  0.00  0.00    +0.000 C 
ATOM     16  N   UNL     1      -3.631  12.796  21.150  0.00  0.00    +0.000 NA
BRANCH  16  17
ATOM     17  N   UNL     1      -4.317  13.882  21.588  0.00  0.00    +0.000 N 
ATOM     18  C   UNL     1      -4.251  14.175  23.030  0.00  0.00    +0.000 C 
ATOM     19  C   UNL     1      -5.446  13.680  23.844  0.00  0.00    +0.000 C 
ATOM     20  C   UNL     1      -6.760  14.153  23.240  0.00  0.00    +0.000 C 
ATOM     21  C   UNL     1      -6.830  13.732  21.779  0.00  0.00    +0.000 C 
ATOM     22  C   UNL     1      -5.618  14.236  20.998  0.00  0.00    +0.000 C 
ENDBRANCH  16  17
ENDBRANCH  11  15
ENDBRANCH   4   8
BRANCH   1  25
ATOM     23  C   UNL     1       5.873   4.597  17.745  0.00  0.00    +0.000 C 
ATOM     24  C   UNL     1       5.397   6.016  18.019  0.00  0.00    +0.000 C 
ATOM     25  N   UNL     1       3.976   5.856  18.063  0.00  0.00    +0.000 N 
ATOM     26  C   UNL     1       3.604   4.593  17.652  0.00  0.00    +0.000 C 
ATOM     27  O   UNL     1       2.471   4.124  17.554  0.00  0.00    +0.000 OA
ATOM     28  O   UNL     1       4.705   3.885  17.297  0.00  0.00    +0.000 OA
BRANCH  23  29
ATOM     29  C   UNL     1       6.985   4.479  16.704  0.00  0.00    +0.000 C 
BRANCH  29  33
ATOM     30  C   UNL     1       6.294   3.825  13.037  0.00  0.00    +0.000 C 
ATOM     31  C   UNL     1       6.905   4.488  14.235  0.00  0.00    +0.000 C 
ATOM     32  O   UNL     1       7.641   5.474  14.154  0.00  0.00    +0.000 OA
ATOM     33  N   UNL     1       6.541   3.920  15.432  0.00  0.00    +0.000 N 
ATOM     34  H   UNL     1       6.030   3.043  15.411  0.00  0.00    +0.000 HD
ENDBRANCH  29  33
ENDBRANCH  23  29
ENDBRANCH   1  25
TORSDOF 6
ENDMDL
MODEL 7
REMARK VINA RESULT:      -9.1      1.246      1.443
REMARK  Name = 
REMARK  7 active torsions:
REMARK  status: ('A' for Active; 'I' for Inactive)
REMARK    1  A    between atoms: C_1  and  C_2
REMARK    2  A    between atoms: N_4  and  C_5
REMARK    3  A    between atoms: C_5  and  C_6
REMARK    4  A    between atoms: N_8  and  C_9
REMARK    5  A    between atoms: C_12  and  C_13
REMARK    6  A    between atoms: C_16  and  C_17
REMARK    7  A    between atoms: N_18  and  N_19
REMARK                            x       y       z     vdW  Elec       q    Type
REMARK                         _______ _______ _______ _____ _____    ______ ____
ROOT
ATOM      1  C   UNL     1       3.569   6.254  18.034  0.00  0.00    +0.000 A 
ATOM      2  C   UNL     1       3.221   5.886  19.336  0.00  0.00    +0.000 A 
ATOM      3  C   UNL     1       2.448   6.722  20.129  0.00  0.00    +0.000 A 
ATOM      4  C   UNL     1       1.958   7.941  19.634  0.00  0.00    +0.000 A 
ATOM      5  C   UNL     1       2.300   8.275  18.312  0.00  0.00    +0.000 A 
ATOM      6  F   UNL     1       1.830   9.402  17.751  0.00  0.00    +0.000 F 
ATOM      7  C   UNL     1       3.111   7.466  17.529  0.00  0.00    +0.000 A 
ENDROOT
BRANCH   4   8
ATOM      8  C   UNL     1       1.141   8.819  20.480  0.00  0.00    +0.000 A 
ATOM      9  C   UNL     1       1.025   8.609  21.868  0.00  0.00    +0.000 A 
ATOM     10  C   UNL     1       0.250   9.447  22.668  0.00  0.00    +0.000 A 
ATOM     11  C   UNL     1      -0.446  10.516  22.101  0.00  0.00    +0.000 A 
ATOM     12  C   UNL     1      -0.323  10.753  20.731  0.00  0.00    +0.000 A 
ATOM     13  F   UNL     1      -0.969  11.766  20.134  0.00  0.00    +0.000 F 
ATOM     14  C   UNL     1       0.453   9.917  19.937  0.00  0.00    +0.000 A 
BRANCH  11  15
ATOM     15  C   UNL     1      -1.298  11.371  22.945  0.00  0.00    +0.000 C 
ATOM     16  N   UNL     1      -1.096  12.663  23.076  0.00  0.00    +0.000 NA
BRANCH  16  17
ATOM     17  N   UNL     1      -2.057  13.284  23.807  0.00  0.00    +0.000 N 
ATOM     18  C   UNL     1      -3.455  12.954  23.486  0.00  0.00    +0.000 C 
ATOM     19  C   UNL     1      -4.163  13.959  22.576  0.00  0.00    +0.000 C 
ATOM     20  C   UNL     1      -4.035  15.376  23.116  0.00  0.00    +0.000 C 
ATOM     21  C   UNL     1      -2.566  15.710  23.329  0.00  0.00    +0.000 C 
ATOM     22  C   UNL     1      -1.889  14.682  24.234  0.00  0.00    +0.000 C 
ENDBRANCH  16  17
ENDBRANCH  11  15
ENDBRANCH   4   8
BRANCH   1  25
ATOM     23  C   UNL     1       6.173   4.495  16.145  0.00  0.00    +0.000 C 
ATOM     24  C   UNL     1       5.608   5.813  16.655  0.00  0.00    +0.000 C 
ATOM     25  N   UNL     1       4.377   5.402  17.257  0.00  0.00    +0.000 N 
ATOM     26  C   UNL     1       4.097   4.082  16.969  0.00  0.00    +0.000 C 
ATOM     27  O   UNL     1       3.122   3.415  17.310  0.00  0.00    +0.000 OA
ATOM     28  O   UNL     1       5.068   3.573  16.169  0.00  0.00    +0.000 OA
BRANCH  23  29
ATOM     29  C   UNL     1       6.773   4.551  14.742  0.00  0.00    +0.000 C 
BRANCH  29  33
ATOM     30  C   UNL     1       5.816   2.505  11.702  0.00  0.00    +0.000 C 
ATOM     31  C   UNL     1       6.508   3.577  12.488  0.00  0.00    +0.000 C 
ATOM     32  O   UNL     1       7.227   4.433  11.966  0.00  0.00    +0.000 OA
ATOM     33  N   UNL     1       6.241   3.541  13.835  0.00  0.00    +0.000 N 
ATOM     34  H   UNL     1       5.738   2.739  14.203  0.00  0.00    +0.000 HD
ENDBRANCH  29  33
ENDBRANCH  23  29
ENDBRANCH   1  25
TORSDOF 6
ENDMDL
MODEL 8
REMARK VINA RESULT:      -9.0      1.324      1.758
REMARK  Name = 
REMARK  7 active torsions:
REMARK  status: ('A' for Active; 'I' for Inactive)
REMARK    1  A    between atoms: C_1  and  C_2
REMARK    2  A    between atoms: N_4  and  C_5
REMARK    3  A    between atoms: C_5  and  C_6
REMARK    4  A    between atoms: N_8  and  C_9
REMARK    5  A    between atoms: C_12  and  C_13
REMARK    6  A    between atoms: C_16  and  C_17
REMARK    7  A    between atoms: N_18  and  N_19
REMARK                            x       y       z     vdW  Elec       q    Type
REMARK                         _______ _______ _______ _____ _____    ______ ____
ROOT
ATOM      1  C   UNL     1       3.004   6.762  18.776  0.00  0.00    +0.000 A 
ATOM      2  C   UNL     1       2.374   6.701  20.021  0.00  0.00    +0.000 A 
ATOM      3  C   UNL     1       1.508   7.706  20.430  0.00  0.00    +0.000 A 
ATOM      4  C   UNL     1       1.205   8.788  19.588  0.00  0.00    +0.000 A 
ATOM      5  C   UNL     1       1.831   8.811  18.330  0.00  0.00    +0.000 A 
ATOM      6  F   UNL     1       1.557   9.789  17.450  0.00  0.00    +0.000 F 
ATOM      7  C   UNL     1       2.734   7.835  17.933  0.00  0.00    +0.000 A 
ENDROOT
BRANCH   4   8
ATOM      8  C   UNL     1       0.288   9.846  20.029  0.00  0.00    +0.000 A 
ATOM      9  C   UNL     1      -0.553  10.520  19.123  0.00  0.00    +0.000 A 
ATOM     10  C   UNL     1      -1.424  11.523  19.546  0.00  0.00    +0.000 A 
ATOM     11  C   UNL     1      -1.471  11.892  20.891  0.00  0.00    +0.000 A 
ATOM     12  C   UNL     1      -0.662  11.219  21.807  0.00  0.00    +0.000 A 
ATOM     13  F   UNL     1      -0.667  11.532  23.111  0.00  0.00    +0.000 F 
ATOM     14  C   UNL     1       0.204  10.218  21.381  0.00  0.00    +0.000 A 
BRANCH  11  15
ATOM     15  C   UNL     1      -2.362  12.983  21.325  0.00  0.00    +0.000 C 
ATOM     16  N   UNL     1      -3.611  13.077  20.928  0.00  0.00    +0.000 NA
BRANCH  16  17
ATOM     17  N   UNL     1      -4.289  14.088  21.530  0.00  0.00    +0.000 N 
ATOM     18  C   UNL     1      -4.061  14.277  22.972  0.00  0.00    +0.000 C 
ATOM     19  C   UNL     1      -5.122  13.656  23.880  0.00  0.00    +0.000 C 
ATOM     20  C   UNL     1      -6.521  14.098  23.476  0.00  0.00    +0.000 C 
ATOM     21  C   UNL     1      -6.750  13.782  22.005  0.00  0.00    +0.000 C 
ATOM     22  C   UNL     1      -5.668  14.410  21.128  0.00  0.00    +0.000 C 
ENDBRANCH  16  17
ENDBRANCH  11  15
ENDBRANCH   4   8
BRANCH   1  25
ATOM     23  C   UNL     1       5.809   4.497  18.112  0.00  0.00    +0.000 C 
ATOM     24  C   UNL     1       5.319   5.917  18.354  0.00  0.00    +0.000 C 
ATOM     25  N   UNL     1       3.899   5.745  18.393  0.00  0.00    +0.000 N 
ATOM     26  C   UNL     1       3.541   4.470  18.007  0.00  0.00    +0.000 C 
ATOM     27  O   UNL     1       2.413   3.989  17.913  0.00  0.00    +0.000 OA
ATOM     28  O   UNL     1       4.650   3.765  17.673  0.00  0.00    +0.000 OA
BRANCH  23  29
ATOM     29  C   UNL     1       6.928   4.369  17.080  0.00  0.00    +0.000 C 
BRANCH  29  33
ATOM     30  C   UNL     1       6.224   3.819  13.398  0.00  0.00    +0.000 C 
ATOM     31  C   UNL     1       6.835   4.450  14.613  0.00  0.00    +0.000 C 
ATOM     32  O   UNL     1       7.564   5.444  14.557  0.00  0.00    +0.000 OA
ATOM     33  N   UNL     1       6.482   3.844  15.794  0.00  0.00    +0.000 N 
ATOM     34  H   UNL     1       5.978   2.964  15.749  0.00  0.00    +0.000 HD
ENDBRANCH  29  33
ENDBRANCH  23  29
ENDBRANCH   1  25
TORSDOF 6
ENDMDL
MODEL 9
REMARK VINA RESULT:      -9.0      1.364      1.784
REMARK  Name = 
REMARK  7 active torsions:
REMARK  status: ('A' for Active; 'I' for Inactive)
REMARK    1  A    between atoms: C_1  and  C_2
REMARK    2  A    between atoms: N_4  and  C_5
REMARK    3  A    between atoms: C_5  and  C_6
REMARK    4  A    between atoms: N_8  and  C_9
REMARK    5  A    between atoms: C_12  and  C_13
REMARK    6  A    between atoms: C_16  and  C_17
REMARK    7  A    between atoms: N_18  and  N_19
REMARK                            x       y       z     vdW  Elec       q    Type
REMARK                         _______ _______ _______ _____ _____    ______ ____
ROOT
ATOM      1  C   UNL     1       3.484   6.540  17.906  0.00  0.00    +0.000 A 
ATOM      2  C   UNL     1       3.221   7.768  17.293  0.00  0.00    +0.000 A 
ATOM      3  C   UNL     1       2.366   8.689  17.883  0.00  0.00    +0.000 A 
ATOM      4  C   UNL     1       1.775   8.432  19.131  0.00  0.00    +0.000 A 
ATOM      5  C   UNL     1       2.077   7.201  19.738  0.00  0.00    +0.000 A 
ATOM      6  F   UNL     1       1.588   6.903  20.954  0.00  0.00    +0.000 F 
ATOM      7  C   UNL     1       2.894   6.257  19.133  0.00  0.00    +0.000 A 
ENDROOT
BRANCH   4   8
ATOM      8  C   UNL     1       0.872   9.412  19.747  0.00  0.00    +0.000 A 
ATOM      9  C   UNL     1       0.974   9.756  21.109  0.00  0.00    +0.000 A 
ATOM     10  C   UNL     1       0.115  10.688  21.690  0.00  0.00    +0.000 A 
ATOM     11  C   UNL     1      -0.883  11.296  20.927  0.00  0.00    +0.000 A 
ATOM     12  C   UNL     1      -0.983  10.985  19.570  0.00  0.00    +0.000 A 
ATOM     13  F   UNL     1      -1.922  11.540  18.790  0.00  0.00    +0.000 F 
ATOM     14  C   UNL     1      -0.123  10.057  18.994  0.00  0.00    +0.000 A 
BRANCH  11  15
ATOM     15  C   UNL     1      -1.815  12.248  21.557  0.00  0.00    +0.000 C 
ATOM     16  N   UNL     1      -2.564  11.929  22.588  0.00  0.00    +0.000 NA
BRANCH  16  17
ATOM     17  N   UNL     1      -3.267  12.979  23.085  0.00  0.00    +0.000 N 
ATOM     18  C   UNL     1      -3.698  12.887  24.489  0.00  0.00    +0.000 C 
ATOM     19  C   UNL     1      -5.143  12.432  24.692  0.00  0.00    +0.000 C 
ATOM     20  C   UNL     1      -6.107  13.273  23.868  0.00  0.00    +0.000 C 
ATOM     21  C   UNL     1      -5.683  13.250  22.407  0.00  0.00    +0.000 C 
ATOM     22  C   UNL     1      -4.234  13.701  22.242  0.00  0.00    +0.000 C 
ENDBRANCH  16  17
ENDBRANCH  11  15
ENDBRANCH   4   8
BRANCH   1  25
ATOM     23  C   UNL     1       6.152   4.644  16.255  0.00  0.00    +0.000 C 
ATOM     24  C   UNL     1       5.479   5.985  16.505  0.00  0.00    +0.000 C 
ATOM     25  N   UNL     1       4.334   5.611  17.276  0.00  0.00    +0.000 N 
ATOM     26  C   UNL     1       4.181   4.240  17.308  0.00  0.00    +0.000 C 
ATOM     27  O   UNL     1       3.303   3.582  17.862  0.00  0.00    +0.000 OA
ATOM     28  O   UNL     1       5.154   3.655  16.567  0.00  0.00    +0.000 OA
BRANCH  23  29
ATOM     29  C   UNL     1       6.665   4.435  14.831  0.00  0.00    +0.000 C 
BRANCH  29  33
ATOM     30  C   UNL     1       4.770   3.213  11.787  0.00  0.00    +0.000 C 
ATOM     31  C   UNL     1       5.946   3.677  12.593  0.00  0.00    +0.000 C 
ATOM     32  O   UNL     1       7.063   3.862  12.104  0.00  0.00    +0.000 OA
ATOM     33  N   UNL     1       5.658   3.912  13.916  0.00  0.00    +0.000 N 
ATOM     34  H   UNL     1       4.749   3.623  14.267  0.00  0.00    +0.000 HD
ENDBRANCH  29  33
ENDBRANCH  23  29
ENDBRANCH   1  25
TORSDOF 6
ENDMDL
