MODEL 1
REMARK VINA RESULT:      -8.5      0.000      0.000
REMARK  Name = 
REMARK  5 active torsions:
REMARK  status: ('A' for Active; 'I' for Inactive)
REMARK    1  A    between atoms: N_5  and  C_6
REMARK    2  A    between atoms: C_9  and  S_10
REMARK    3  A    between atoms: S_10  and  N_11
REMARK    4  A    between atoms: N_16  and  C_17
REMARK    5  A    between atoms: C_17  and  C_19
REMARK                            x       y       z     vdW  Elec       q    Type
REMARK                         _______ _______ _______ _____ _____    ______ ____
ROOT
ATOM      1  N   UNL     1       0.612   9.347  23.291  0.00  0.00    +0.000 N 
ATOM      2  C   UNL     1       0.606   9.596  21.987  0.00  0.00    +0.000 A 
ATOM      3  N   UNL     1       1.117   8.673  21.151  0.00  0.00    +0.000 NA
ATOM      4  C   UNL     1       1.000   9.208  19.951  0.00  0.00    +0.000 A 
ATOM      5  N   UNL     1       1.494   8.740  18.768  0.00  0.00    +0.000 N 
ATOM      6  N   UNL     1       0.315  10.422  20.092  0.00  0.00    +0.000 N 
ATOM      7  N   UNL     1       0.114  10.679  21.414  0.00  0.00    +0.000 NA
ATOM      8  H   UNL     1       0.675   8.378  23.572  0.00  0.00    +0.000 HD
ATOM      9  H   UNL     1       0.016   9.920  23.872  0.00  0.00    +0.000 HD
ATOM     10  H   UNL     1       1.162   9.132  17.890  0.00  0.00    +0.000 HD
ENDROOT
BRANCH   5  11
ATOM     11  C   UNL     1       2.415   7.676  18.613  0.00  0.00    +0.000 A 
ATOM     12  C   UNL     1       3.360   7.635  17.574  0.00  0.00    +0.000 A 
ATOM     13  C   UNL     1       4.377   6.685  17.538  0.00  0.00    +0.000 A 
ATOM     14  C   UNL     1       4.460   5.751  18.562  0.00  0.00    +0.000 A 
ATOM     15  C   UNL     1       3.477   5.680  19.549  0.00  0.00    +0.000 A 
ATOM     16  C   UNL     1       2.463   6.648  19.573  0.00  0.00    +0.000 A 
BRANCH  14  17
ATOM     17  S   UNL     1       5.925   4.784  18.708  0.00  0.00    +0.000 S 
ATOM     18  O   UNL     1       6.479   4.535  17.403  0.00  0.00    +0.000 OA
ATOM     19  O   UNL     1       6.728   5.272  19.814  0.00  0.00    +0.000 OA
BRANCH  17  20
ATOM     20  N   UNL     1       5.244   3.342  19.230  0.00  0.00    +0.000 NA
ATOM     21  H   UNL     1       4.749   2.866  18.480  0.00  0.00    +0.000 HD
ATOM     22  H   UNL     1       5.908   2.781  19.761  0.00  0.00    +0.000 HD
ENDBRANCH  17  20
ENDBRANCH  14  17
ENDBRANCH   5  11
BRANCH   6  23
ATOM     23  C   UNL     1      -0.190  11.352  19.150  0.00  0.00    +0.000 C 
ATOM     24  S   UNL     1       0.718  12.709  18.652  0.00  0.00    +0.000 S 
BRANCH  23  25
ATOM     25  C   UNL     1      -1.574  11.134  18.588  0.00  0.00    +0.000 A 
ATOM     26  C   UNL     1      -2.625  11.905  19.099  0.00  0.00    +0.000 A 
ATOM     27  F   UNL     1      -2.385  12.872  19.996  0.00  0.00    +0.000 F 
ATOM     28  C   UNL     1      -3.942  11.724  18.675  0.00  0.00    +0.000 A 
ATOM     29  C   UNL     1      -4.227  10.792  17.680  0.00  0.00    +0.000 A 
ATOM     30  C   UNL     1      -3.188  10.046  17.125  0.00  0.00    +0.000 A 
ATOM     31  C   UNL     1      -1.877  10.207  17.588  0.00  0.00    +0.000 A 
ATOM     32  F   UNL     1      -0.931   9.423  17.051  0.00  0.00    +0.000 F 
ENDBRANCH  23  25
ENDBRANCH   6  23
TORSDOF 5
ENDMDL
MODEL 2
REMARK VINA RESULT:      -8.5      4.389      8.281
REMARK  Name = 
REMARK  5 active torsions:
REMARK  status: ('A' for Active; 'I' for Inactive)
REMARK    1  A    between atoms: N_5  and  C_6
REMARK    2  A    between atoms: C_9  and  S_10
REMARK    3  A    between atoms: S_10  and  N_11
REMARK    4  A    between atoms: N_16  and  C_17
REMARK    5  A    between atoms: C_17  and  C_19
REMARK                            x       y       z     vdW  Elec       q    Type
REMARK                         _______ _______ _______ _____ _____    ______ ____
ROOT
ATOM      1  N   UNL     1       1.979   3.188  21.907  0.00  0.00    +0.000 N 
ATOM      2  C   UNL     1       2.425   3.962  20.925  0.00  0.00    +0.000 A 
ATOM      3  N   UNL     1       2.172   5.283  20.978  0.00  0.00    +0.000 NA
ATOM      4  C   UNL     1       2.703   5.769  19.873  0.00  0.00    +0.000 A 
ATOM      5  N   UNL     1       2.602   7.036  19.376  0.00  0.00    +0.000 N 
ATOM      6  N   UNL     1       3.364   4.720  19.222  0.00  0.00    +0.000 N 
ATOM      7  N   UNL     1       3.133   3.555  19.887  0.00  0.00    +0.000 NA
ATOM      8  H   UNL     1       1.779   3.638  22.790  0.00  0.00    +0.000 HD
ATOM      9  H   UNL     1       2.379   2.262  21.983  0.00  0.00    +0.000 HD
ATOM     10  H   UNL     1       3.224   7.338  18.630  0.00  0.00    +0.000 HD
ENDROOT
BRANCH   5  11
ATOM     11  C   UNL     1       1.730   8.048  19.847  0.00  0.00    +0.000 A 
ATOM     12  C   UNL     1       1.304   8.120  21.185  0.00  0.00    +0.000 A 
ATOM     13  C   UNL     1       0.603   9.218  21.676  0.00  0.00    +0.000 A 
ATOM     14  C   UNL     1       0.318  10.272  20.819  0.00  0.00    +0.000 A 
ATOM     15  C   UNL     1       0.617  10.192  19.459  0.00  0.00    +0.000 A 
ATOM     16  C   UNL     1       1.328   9.082  18.982  0.00  0.00    +0.000 A 
BRANCH  14  17
ATOM     17  S   UNL     1      -0.250  11.792  21.507  0.00  0.00    +0.000 S 
ATOM     18  O   UNL     1       0.847  12.717  21.622  0.00  0.00    +0.000 OA
ATOM     19  O   UNL     1      -1.518  12.160  20.905  0.00  0.00    +0.000 OA
BRANCH  17  20
ATOM     20  N   UNL     1      -0.608  11.266  23.059  0.00  0.00    +0.000 NA
ATOM     21  H   UNL     1      -1.032  10.342  23.056  0.00  0.00    +0.000 HD
ATOM     22  H   UNL     1       0.176  11.401  23.695  0.00  0.00    +0.000 HD
ENDBRANCH  17  20
ENDBRANCH  14  17
ENDBRANCH   5  11
BRANCH   6  23
ATOM     23  C   UNL     1       4.197   4.677  18.076  0.00  0.00    +0.000 C 
ATOM     24  S   UNL     1       3.836   3.678  16.740  0.00  0.00    +0.000 S 
BRANCH  23  25
ATOM     25  C   UNL     1       5.441   5.531  18.052  0.00  0.00    +0.000 A 
ATOM     26  C   UNL     1       6.465   5.236  18.961  0.00  0.00    +0.000 A 
ATOM     27  F   UNL     1       6.374   4.165  19.762  0.00  0.00    +0.000 F 
ATOM     28  C   UNL     1       7.621   6.013  19.043  0.00  0.00    +0.000 A 
ATOM     29  C   UNL     1       7.798   7.083  18.170  0.00  0.00    +0.000 A 
ATOM     30  C   UNL     1       6.812   7.367  17.227  0.00  0.00    +0.000 A 
ATOM     31  C   UNL     1       5.638   6.606  17.181  0.00  0.00    +0.000 A 
ATOM     32  F   UNL     1       4.704   6.962  16.288  0.00  0.00    +0.000 F 
ENDBRANCH  23  25
ENDBRANCH   6  23
TORSDOF 5
ENDMDL
MODEL 3
REMARK VINA RESULT:      -8.4      4.573      8.457
REMARK  Name = 
REMARK  5 active torsions:
REMARK  status: ('A' for Active; 'I' for Inactive)
REMARK    1  A    between atoms: N_5  and  C_6
REMARK    2  A    between atoms: C_9  and  S_10
REMARK    3  A    between atoms: S_10  and  N_11
REMARK    4  A    between atoms: N_16  and  C_17
REMARK    5  A    between atoms: C_17  and  C_19
REMARK                            x       y       z     vdW  Elec       q    Type
REMARK                         _______ _______ _______ _____ _____    ______ ____
ROOT
ATOM      1  N   UNL     1       1.106   2.619  18.462  0.00  0.00    +0.000 N 
ATOM      2  C   UNL     1       2.007   3.544  18.153  0.00  0.00    +0.000 A 
ATOM      3  N   UNL     1       1.868   4.778  18.672  0.00  0.00    +0.000 NA
ATOM      4  C   UNL     1       2.876   5.466  18.168  0.00  0.00    +0.000 A 
ATOM      5  N   UNL     1       3.114   6.806  18.268  0.00  0.00    +0.000 N 
ATOM      6  N   UNL     1       3.667   4.579  17.426  0.00  0.00    +0.000 N 
ATOM      7  N   UNL     1       3.066   3.358  17.386  0.00  0.00    +0.000 NA
ATOM      8  H   UNL     1       0.571   2.765  19.308  0.00  0.00    +0.000 HD
ATOM      9  H   UNL     1       1.350   1.656  18.275  0.00  0.00    +0.000 HD
ATOM     10  H   UNL     1       4.027   7.178  18.015  0.00  0.00    +0.000 HD
ENDROOT
BRANCH   5  11
ATOM     11  C   UNL     1       2.213   7.777  18.768  0.00  0.00    +0.000 A 
ATOM     12  C   UNL     1       1.834   7.835  20.120  0.00  0.00    +0.000 A 
ATOM     13  C   UNL     1       1.099   8.900  20.634  0.00  0.00    +0.000 A 
ATOM     14  C   UNL     1       0.732   9.935  19.785  0.00  0.00    +0.000 A 
ATOM     15  C   UNL     1       0.984   9.863  18.415  0.00  0.00    +0.000 A 
ATOM     16  C   UNL     1       1.730   8.786  17.915  0.00  0.00    +0.000 A 
BRANCH  14  17
ATOM     17  S   UNL     1       0.118  11.430  20.489  0.00  0.00    +0.000 S 
ATOM     18  O   UNL     1      -1.233  11.659  20.047  0.00  0.00    +0.000 OA
ATOM     19  O   UNL     1       0.503  11.510  21.886  0.00  0.00    +0.000 OA
BRANCH  17  20
ATOM     20  N   UNL     1       1.090  12.528  19.675  0.00  0.00    +0.000 NA
ATOM     21  H   UNL     1       1.596  13.132  20.318  0.00  0.00    +0.000 HD
ATOM     22  H   UNL     1       1.642  12.078  18.948  0.00  0.00    +0.000 HD
ENDBRANCH  17  20
ENDBRANCH  14  17
ENDBRANCH   5  11
BRANCH   6  23
ATOM     23  C   UNL     1       4.916   4.727  16.774  0.00  0.00    +0.000 C 
ATOM     24  S   UNL     1       5.213   4.045  15.238  0.00  0.00    +0.000 S 
BRANCH  23  25
ATOM     25  C   UNL     1       6.011   5.498  17.471  0.00  0.00    +0.000 A 
ATOM     26  C   UNL     1       6.416   6.719  16.918  0.00  0.00    +0.000 A 
ATOM     27  F   UNL     1       5.781   7.226  15.852  0.00  0.00    +0.000 F 
ATOM     28  C   UNL     1       7.460   7.463  17.469  0.00  0.00    +0.000 A 
ATOM     29  C   UNL     1       8.090   7.019  18.628  0.00  0.00    +0.000 A 
ATOM     30  C   UNL     1       7.671   5.829  19.221  0.00  0.00    +0.000 A 
ATOM     31  C   UNL     1       6.651   5.069  18.636  0.00  0.00    +0.000 A 
ATOM     32  F   UNL     1       6.330   3.908  19.224  0.00  0.00    +0.000 F 
ENDBRANCH  23  25
ENDBRANCH   6  23
TORSDOF 5
ENDMDL
MODEL 4
REMARK VINA RESULT:      -8.4      0.081      1.592
REMARK  Name = 
REMARK  5 active torsions:
REMARK  status: ('A' for Active; 'I' for Inactive)
REMARK    1  A    between atoms: N_5  and  C_6
REMARK    2  A    between atoms: C_9  and  S_10
REMARK    3  A    between atoms: S_10  and  N_11
REMARK    4  A    between atoms: N_16  and  C_17
REMARK    5  A    between atoms: C_17  and  C_19
REMARK                            x       y       z     vdW  Elec       q    Type
REMARK                         _______ _______ _______ _____ _____    ______ ____
ROOT
ATOM      1  N   UNL     1       0.577   9.306  23.271  0.00  0.00    +0.000 N 
ATOM      2  C   UNL     1       0.591   9.569  21.970  0.00  0.00    +0.000 A 
ATOM      3  N   UNL     1       1.110   8.652  21.132  0.00  0.00    +0.000 NA
ATOM      4  C   UNL     1       1.013   9.201  19.936  0.00  0.00    +0.000 A 
ATOM      5  N   UNL     1       1.523   8.743  18.756  0.00  0.00    +0.000 N 
ATOM      6  N   UNL     1       0.331  10.415  20.080  0.00  0.00    +0.000 N 
ATOM      7  N   UNL     1       0.111  10.660  21.401  0.00  0.00    +0.000 NA
ATOM      8  H   UNL     1       0.632   8.334  23.543  0.00  0.00    +0.000 HD
ATOM      9  H   UNL     1      -0.026   9.876  23.850  0.00  0.00    +0.000 HD
ATOM     10  H   UNL     1       1.205   9.145  17.877  0.00  0.00    +0.000 HD
ENDROOT
BRANCH   5  11
ATOM     11  C   UNL     1       2.442   7.676  18.603  0.00  0.00    +0.000 A 
ATOM     12  C   UNL     1       3.396   7.639  17.573  0.00  0.00    +0.000 A 
ATOM     13  C   UNL     1       4.410   6.685  17.541  0.00  0.00    +0.000 A 
ATOM     14  C   UNL     1       4.480   5.745  18.560  0.00  0.00    +0.000 A 
ATOM     15  C   UNL     1       3.488   5.671  19.537  0.00  0.00    +0.000 A 
ATOM     16  C   UNL     1       2.476   6.642  19.557  0.00  0.00    +0.000 A 
BRANCH  14  17
ATOM     17  S   UNL     1       5.941   4.772  18.714  0.00  0.00    +0.000 S 
ATOM     18  O   UNL     1       6.500   4.520  17.412  0.00  0.00    +0.000 OA
ATOM     19  O   UNL     1       6.740   5.257  19.824  0.00  0.00    +0.000 OA
BRANCH  17  20
ATOM     20  N   UNL     1       5.251   3.334  19.234  0.00  0.00    +0.000 NA
ATOM     21  H   UNL     1       5.673   3.004  20.098  0.00  0.00    +0.000 HD
ATOM     22  H   UNL     1       4.233   3.374  19.214  0.00  0.00    +0.000 HD
ENDBRANCH  17  20
ENDBRANCH  14  17
ENDBRANCH   5  11
BRANCH   6  23
ATOM     23  C   UNL     1      -0.156  11.358  19.140  0.00  0.00    +0.000 C 
ATOM     24  S   UNL     1       0.805  12.655  18.588  0.00  0.00    +0.000 S 
BRANCH  23  25
ATOM     25  C   UNL     1      -1.569  11.208  18.631  0.00  0.00    +0.000 A 
ATOM     26  C   UNL     1      -1.809  10.287  17.602  0.00  0.00    +0.000 A 
ATOM     27  F   UNL     1      -0.822   9.499  17.153  0.00  0.00    +0.000 F 
ATOM     28  C   UNL     1      -3.074  10.131  17.037  0.00  0.00    +0.000 A 
ATOM     29  C   UNL     1      -4.149  10.865  17.532  0.00  0.00    +0.000 A 
ATOM     30  C   UNL     1      -3.942  11.753  18.586  0.00  0.00    +0.000 A 
ATOM     31  C   UNL     1      -2.659  11.933  19.118  0.00  0.00    +0.000 A 
ATOM     32  F   UNL     1      -2.516  12.840  20.094  0.00  0.00    +0.000 F 
ENDBRANCH  23  25
ENDBRANCH   6  23
TORSDOF 5
ENDMDL
MODEL 5
REMARK VINA RESULT:      -8.4      0.976      1.463
REMARK  Name = 
REMARK  5 active torsions:
REMARK  status: ('A' for Active; 'I' for Inactive)
REMARK    1  A    between atoms: N_5  and  C_6
REMARK    2  A    between atoms: C_9  and  S_10
REMARK    3  A    between atoms: S_10  and  N_11
REMARK    4  A    between atoms: N_16  and  C_17
REMARK    5  A    between atoms: C_17  and  C_19
REMARK                            x       y       z     vdW  Elec       q    Type
REMARK                         _______ _______ _______ _____ _____    ______ ____
ROOT
ATOM      1  N   UNL     1      -0.081   9.301  23.466  0.00  0.00    +0.000 N 
ATOM      2  C   UNL     1       0.050   9.582  22.176  0.00  0.00    +0.000 A 
ATOM      3  N   UNL     1       0.660   8.685  21.379  0.00  0.00    +0.000 NA
ATOM      4  C   UNL     1       0.666   9.248  20.186  0.00  0.00    +0.000 A 
ATOM      5  N   UNL     1       1.291   8.815  19.053  0.00  0.00    +0.000 N 
ATOM      6  N   UNL     1      -0.048  10.450  20.280  0.00  0.00    +0.000 N 
ATOM      7  N   UNL     1      -0.394  10.672  21.578  0.00  0.00    +0.000 NA
ATOM      8  H   UNL     1      -0.035   8.327  23.731  0.00  0.00    +0.000 HD
ATOM      9  H   UNL     1      -0.745   9.853  23.994  0.00  0.00    +0.000 HD
ATOM     10  H   UNL     1       1.050   9.224  18.154  0.00  0.00    +0.000 HD
ENDROOT
BRANCH   5  11
ATOM     11  C   UNL     1       2.239   7.765  18.974  0.00  0.00    +0.000 A 
ATOM     12  C   UNL     1       2.297   6.723  19.915  0.00  0.00    +0.000 A 
ATOM     13  C   UNL     1       3.103   5.604  19.727  0.00  0.00    +0.000 A 
ATOM     14  C   UNL     1       3.871   5.516  18.574  0.00  0.00    +0.000 A 
ATOM     15  C   UNL     1       3.935   6.577  17.672  0.00  0.00    +0.000 A 
ATOM     16  C   UNL     1       3.113   7.694  17.873  0.00  0.00    +0.000 A 
BRANCH  14  17
ATOM     17  S   UNL     1       4.612   3.969  18.167  0.00  0.00    +0.000 S 
ATOM     18  O   UNL     1       3.997   2.916  18.932  0.00  0.00    +0.000 OA
ATOM     19  O   UNL     1       4.804   3.878  16.732  0.00  0.00    +0.000 OA
BRANCH  17  20
ATOM     20  N   UNL     1       6.135   4.221  18.824  0.00  0.00    +0.000 NA
ATOM     21  H   UNL     1       6.193   3.884  19.781  0.00  0.00    +0.000 HD
ATOM     22  H   UNL     1       6.874   3.916  18.192  0.00  0.00    +0.000 HD
ENDBRANCH  17  20
ENDBRANCH  14  17
ENDBRANCH   5  11
BRANCH   6  23
ATOM     23  C   UNL     1      -0.461  11.397  19.310  0.00  0.00    +0.000 C 
ATOM     24  S   UNL     1       0.502  12.745  18.904  0.00  0.00    +0.000 S 
BRANCH  23  25
ATOM     25  C   UNL     1      -1.797  11.204  18.634  0.00  0.00    +0.000 A 
ATOM     26  C   UNL     1      -2.888  11.951  19.098  0.00  0.00    +0.000 A 
ATOM     27  F   UNL     1      -2.720  12.876  20.053  0.00  0.00    +0.000 F 
ATOM     28  C   UNL     1      -4.167  11.789  18.566  0.00  0.00    +0.000 A 
ATOM     29  C   UNL     1      -4.372  10.902  17.512  0.00  0.00    +0.000 A 
ATOM     30  C   UNL     1      -3.291  10.183  17.005  0.00  0.00    +0.000 A 
ATOM     31  C   UNL     1      -2.020  10.322  17.574  0.00  0.00    +0.000 A 
ATOM     32  F   UNL     1      -1.033   9.563  17.077  0.00  0.00    +0.000 F 
ENDBRANCH  23  25
ENDBRANCH   6  23
TORSDOF 5
ENDMDL
MODEL 6
REMARK VINA RESULT:      -8.3      4.394      8.279
REMARK  Name = 
REMARK  5 active torsions:
REMARK  status: ('A' for Active; 'I' for Inactive)
REMARK    1  A    between atoms: N_5  and  C_6
REMARK    2  A    between atoms: C_9  and  S_10
REMARK    3  A    between atoms: S_10  and  N_11
REMARK    4  A    between atoms: N_16  and  C_17
REMARK    5  A    between atoms: C_17  and  C_19
REMARK                            x       y       z     vdW  Elec       q    Type
REMARK                         _______ _______ _______ _____ _____    ______ ____
ROOT
ATOM      1  N   UNL     1       1.774   3.115  21.577  0.00  0.00    +0.000 N 
ATOM      2  C   UNL     1       2.294   3.936  20.672  0.00  0.00    +0.000 A 
ATOM      3  N   UNL     1       2.059   5.256  20.789  0.00  0.00    +0.000 NA
ATOM      4  C   UNL     1       2.667   5.796  19.749  0.00  0.00    +0.000 A 
ATOM      5  N   UNL     1       2.618   7.091  19.324  0.00  0.00    +0.000 N 
ATOM      6  N   UNL     1       3.350   4.773  19.079  0.00  0.00    +0.000 N 
ATOM      7  N   UNL     1       3.058   3.576  19.658  0.00  0.00    +0.000 NA
ATOM      8  H   UNL     1       1.525   3.516  22.471  0.00  0.00    +0.000 HD
ATOM      9  H   UNL     1       2.153   2.179  21.622  0.00  0.00    +0.000 HD
ATOM     10  H   UNL     1       3.290   7.424  18.637  0.00  0.00    +0.000 HD
ENDROOT
BRANCH   5  11
ATOM     11  C   UNL     1       1.735   8.091  19.800  0.00  0.00    +0.000 A 
ATOM     12  C   UNL     1       1.265   8.121  21.124  0.00  0.00    +0.000 A 
ATOM     13  C   UNL     1       0.552   9.205  21.629  0.00  0.00    +0.000 A 
ATOM     14  C   UNL     1       0.300  10.289  20.799  0.00  0.00    +0.000 A 
ATOM     15  C   UNL     1       0.644  10.253  19.448  0.00  0.00    +0.000 A 
ATOM     16  C   UNL     1       1.366   9.156  18.957  0.00  0.00    +0.000 A 
BRANCH  14  17
ATOM     17  S   UNL     1      -0.285  11.788  21.518  0.00  0.00    +0.000 S 
ATOM     18  O   UNL     1       0.796  12.732  21.625  0.00  0.00    +0.000 OA
ATOM     19  O   UNL     1      -1.571  12.139  20.946  0.00  0.00    +0.000 OA
BRANCH  17  20
ATOM     20  N   UNL     1      -0.603  11.234  23.070  0.00  0.00    +0.000 NA
ATOM     21  H   UNL     1      -1.285  11.818  23.546  0.00  0.00    +0.000 HD
ATOM     22  H   UNL     1      -0.779  10.231  23.084  0.00  0.00    +0.000 HD
ENDBRANCH  17  20
ENDBRANCH  14  17
ENDBRANCH   5  11
BRANCH   6  23
ATOM     23  C   UNL     1       4.253   4.781  17.986  0.00  0.00    +0.000 C 
ATOM     24  S   UNL     1       3.947   3.891  16.563  0.00  0.00    +0.000 S 
BRANCH  23  25
ATOM     25  C   UNL     1       5.522   5.590  18.101  0.00  0.00    +0.000 A 
ATOM     26  C   UNL     1       5.705   6.663  17.220  0.00  0.00    +0.000 A 
ATOM     27  F   UNL     1       4.734   7.012  16.364  0.00  0.00    +0.000 F 
ATOM     28  C   UNL     1       6.874   7.423  17.222  0.00  0.00    +0.000 A 
ATOM     29  C   UNL     1       7.874   7.153  18.153  0.00  0.00    +0.000 A 
ATOM     30  C   UNL     1       7.692   6.119  19.070  0.00  0.00    +0.000 A 
ATOM     31  C   UNL     1       6.533   5.335  19.031  0.00  0.00    +0.000 A 
ATOM     32  F   UNL     1       6.441   4.322  19.903  0.00  0.00    +0.000 F 
ENDBRANCH  23  25
ENDBRANCH   6  23
TORSDOF 5
ENDMDL
MODEL 7
REMARK VINA RESULT:      -8.3      1.503      2.469
REMARK  Name = 
REMARK  5 active torsions:
REMARK  status: ('A' for Active; 'I' for Inactive)
REMARK    1  A    between atoms: N_5  and  C_6
REMARK    2  A    between atoms: C_9  and  S_10
REMARK    3  A    between atoms: S_10  and  N_11
REMARK    4  A    between atoms: N_16  and  C_17
REMARK    5  A    between atoms: C_17  and  C_19
REMARK                            x       y       z     vdW  Elec       q    Type
REMARK                         _______ _______ _______ _____ _____    ______ ____
ROOT
ATOM      1  N   UNL     1      -0.212   9.341  23.714  0.00  0.00    +0.000 N 
ATOM      2  C   UNL     1       0.068   9.455  22.421  0.00  0.00    +0.000 A 
ATOM      3  N   UNL     1       0.579   8.390  21.776  0.00  0.00    +0.000 NA
ATOM      4  C   UNL     1       0.776   8.811  20.541  0.00  0.00    +0.000 A 
ATOM      5  N   UNL     1       1.407   8.161  19.521  0.00  0.00    +0.000 N 
ATOM      6  N   UNL     1       0.272  10.115  20.451  0.00  0.00    +0.000 N 
ATOM      7  N   UNL     1      -0.134  10.531  21.683  0.00  0.00    +0.000 NA
ATOM      8  H   UNL     1      -0.354   8.407  24.072  0.00  0.00    +0.000 HD
ATOM      9  H   UNL     1      -0.812  10.048  24.119  0.00  0.00    +0.000 HD
ATOM     10  H   UNL     1       1.311   8.503  18.567  0.00  0.00    +0.000 HD
ENDROOT
BRANCH   5  11
ATOM     11  C   UNL     1       2.165   6.970  19.633  0.00  0.00    +0.000 A 
ATOM     12  C   UNL     1       1.842   5.949  20.543  0.00  0.00    +0.000 A 
ATOM     13  C   UNL     1       2.477   4.710  20.516  0.00  0.00    +0.000 A 
ATOM     14  C   UNL     1       3.458   4.479  19.562  0.00  0.00    +0.000 A 
ATOM     15  C   UNL     1       3.893   5.500  18.717  0.00  0.00    +0.000 A 
ATOM     16  C   UNL     1       3.239   6.740  18.754  0.00  0.00    +0.000 A 
BRANCH  14  17
ATOM     17  S   UNL     1       4.010   2.826  19.299  0.00  0.00    +0.000 S 
ATOM     18  O   UNL     1       5.197   2.577  20.075  0.00  0.00    +0.000 OA
ATOM     19  O   UNL     1       2.874   1.922  19.304  0.00  0.00    +0.000 OA
BRANCH  17  20
ATOM     20  N   UNL     1       4.493   2.956  17.698  0.00  0.00    +0.000 NA
ATOM     21  H   UNL     1       3.882   2.432  17.076  0.00  0.00    +0.000 HD
ATOM     22  H   UNL     1       4.681   3.922  17.437  0.00  0.00    +0.000 HD
ENDBRANCH  17  20
ENDBRANCH  14  17
ENDBRANCH   5  11
BRANCH   6  23
ATOM     23  C   UNL     1       0.105  11.004  19.361  0.00  0.00    +0.000 C 
ATOM     24  S   UNL     1       1.291  12.163  18.957  0.00  0.00    +0.000 S 
BRANCH  23  25
ATOM     25  C   UNL     1      -1.166  10.925  18.550  0.00  0.00    +0.000 A 
ATOM     26  C   UNL     1      -1.196  10.058  17.450  0.00  0.00    +0.000 A 
ATOM     27  F   UNL     1      -0.154   9.258  17.187  0.00  0.00    +0.000 F 
ATOM     28  C   UNL     1      -2.311   9.970  16.616  0.00  0.00    +0.000 A 
ATOM     29  C   UNL     1      -3.450  10.719  16.902  0.00  0.00    +0.000 A 
ATOM     30  C   UNL     1      -3.458  11.553  18.019  0.00  0.00    +0.000 A 
ATOM     31  C   UNL     1      -2.318  11.665  18.825  0.00  0.00    +0.000 A 
ATOM     32  F   UNL     1      -2.370  12.523  19.852  0.00  0.00    +0.000 F 
ENDBRANCH  23  25
ENDBRANCH   6  23
TORSDOF 5
ENDMDL
MODEL 8
REMARK VINA RESULT:      -8.2      4.462      8.407
REMARK  Name = 
REMARK  5 active torsions:
REMARK  status: ('A' for Active; 'I' for Inactive)
REMARK    1  A    between atoms: N_5  and  C_6
REMARK    2  A    between atoms: C_9  and  S_10
REMARK    3  A    between atoms: S_10  and  N_11
REMARK    4  A    between atoms: N_16  and  C_17
REMARK    5  A    between atoms: C_17  and  C_19
REMARK                            x       y       z     vdW  Elec       q    Type
REMARK                         _______ _______ _______ _____ _____    ______ ____
ROOT
ATOM      1  N   UNL     1       0.932   2.628  18.699  0.00  0.00    +0.000 N 
ATOM      2  C   UNL     1       1.840   3.528  18.341  0.00  0.00    +0.000 A 
ATOM      3  N   UNL     1       1.769   4.762  18.873  0.00  0.00    +0.000 NA
ATOM      4  C   UNL     1       2.765   5.424  18.315  0.00  0.00    +0.000 A 
ATOM      5  N   UNL     1       3.047   6.755  18.407  0.00  0.00    +0.000 N 
ATOM      6  N   UNL     1       3.484   4.520  17.523  0.00  0.00    +0.000 N 
ATOM      7  N   UNL     1       2.846   3.317  17.512  0.00  0.00    +0.000 NA
ATOM      8  H   UNL     1       0.453   2.783  19.575  0.00  0.00    +0.000 HD
ATOM      9  H   UNL     1       1.137   1.659  18.492  0.00  0.00    +0.000 HD
ATOM     10  H   UNL     1       3.954   7.103  18.102  0.00  0.00    +0.000 HD
ENDROOT
BRANCH   5  11
ATOM     11  C   UNL     1       2.206   7.749  18.964  0.00  0.00    +0.000 A 
ATOM     12  C   UNL     1       1.811   7.740  20.312  0.00  0.00    +0.000 A 
ATOM     13  C   UNL     1       1.142   8.815  20.892  0.00  0.00    +0.000 A 
ATOM     14  C   UNL     1       0.858   9.928  20.113  0.00  0.00    +0.000 A 
ATOM     15  C   UNL     1       1.126   9.934  18.744  0.00  0.00    +0.000 A 
ATOM     16  C   UNL     1       1.805   8.846  18.178  0.00  0.00    +0.000 A 
BRANCH  14  17
ATOM     17  S   UNL     1       0.335  11.409  20.913  0.00  0.00    +0.000 S 
ATOM     18  O   UNL     1       1.463  12.280  21.115  0.00  0.00    +0.000 OA
ATOM     19  O   UNL     1      -0.910  11.870  20.327  0.00  0.00    +0.000 OA
BRANCH  17  20
ATOM     20  N   UNL     1      -0.066  10.775  22.414  0.00  0.00    +0.000 NA
ATOM     21  H   UNL     1      -0.766  11.340  22.887  0.00  0.00    +0.000 HD
ATOM     22  H   UNL     1      -0.251   9.774  22.364  0.00  0.00    +0.000 HD
ENDBRANCH  17  20
ENDBRANCH  14  17
ENDBRANCH   5  11
BRANCH   6  23
ATOM     23  C   UNL     1       4.697   4.635  16.798  0.00  0.00    +0.000 C 
ATOM     24  S   UNL     1       4.905   3.899  15.273  0.00  0.00    +0.000 S 
BRANCH  23  25
ATOM     25  C   UNL     1       5.832   5.421  17.408  0.00  0.00    +0.000 A 
ATOM     26  C   UNL     1       6.411   4.940  18.589  0.00  0.00    +0.000 A 
ATOM     27  F   UNL     1       6.024   3.765  19.106  0.00  0.00    +0.000 F 
ATOM     28  C   UNL     1       7.425   5.638  19.247  0.00  0.00    +0.000 A 
ATOM     29  C   UNL     1       7.920   6.818  18.699  0.00  0.00    +0.000 A 
ATOM     30  C   UNL     1       7.389   7.291  17.500  0.00  0.00    +0.000 A 
ATOM     31  C   UNL     1       6.343   6.605  16.871  0.00  0.00    +0.000 A 
ATOM     32  F   UNL     1       5.840   7.138  15.749  0.00  0.00    +0.000 F 
ENDBRANCH  23  25
ENDBRANCH   6  23
TORSDOF 5
ENDMDL
MODEL 9
REMARK VINA RESULT:      -8.2      0.825      2.014
REMARK  Name = 
REMARK  5 active torsions:
REMARK  status: ('A' for Active; 'I' for Inactive)
REMARK    1  A    between atoms: N_5  and  C_6
REMARK    2  A    between atoms: C_9  and  S_10
REMARK    3  A    between atoms: S_10  and  N_11
REMARK    4  A    between atoms: N_16  and  C_17
REMARK    5  A    between atoms: C_17  and  C_19
REMARK                            x       y       z     vdW  Elec       q    Type
REMARK                         _______ _______ _______ _____ _____    ______ ____
ROOT
ATOM      1  N   UNL     1      -0.168   9.355  23.457  0.00  0.00    +0.000 N 
ATOM      2  C   UNL     1      -0.043   9.637  22.166  0.00  0.00    +0.000 A 
ATOM      3  N   UNL     1       0.594   8.756  21.372  0.00  0.00    +0.000 NA
ATOM      4  C   UNL     1       0.585   9.317  20.177  0.00  0.00    +0.000 A 
ATOM      5  N   UNL     1       1.224   8.900  19.047  0.00  0.00    +0.000 N 
ATOM      6  N   UNL     1      -0.164  10.498  20.268  0.00  0.00    +0.000 N 
ATOM      7  N   UNL     1      -0.518  10.713  21.565  0.00  0.00    +0.000 NA
ATOM      8  H   UNL     1      -0.094   8.382  23.723  0.00  0.00    +0.000 HD
ATOM      9  H   UNL     1      -0.848   9.888  23.982  0.00  0.00    +0.000 HD
ATOM     10  H   UNL     1       0.972   9.300  18.146  0.00  0.00    +0.000 HD
ENDROOT
BRANCH   5  11
ATOM     11  C   UNL     1       2.202   7.879  18.971  0.00  0.00    +0.000 A 
ATOM     12  C   UNL     1       2.286   6.838  19.911  0.00  0.00    +0.000 A 
ATOM     13  C   UNL     1       3.125   5.742  19.725  0.00  0.00    +0.000 A 
ATOM     14  C   UNL     1       3.901   5.678  18.576  0.00  0.00    +0.000 A 
ATOM     15  C   UNL     1       3.937   6.741  17.674  0.00  0.00    +0.000 A 
ATOM     16  C   UNL     1       3.082   7.834  17.874  0.00  0.00    +0.000 A 
BRANCH  14  17
ATOM     17  S   UNL     1       4.688   4.153  18.171  0.00  0.00    +0.000 S 
ATOM     18  O   UNL     1       4.990   4.118  16.765  0.00  0.00    +0.000 OA
ATOM     19  O   UNL     1       5.670   3.823  19.187  0.00  0.00    +0.000 OA
BRANCH  17  20
ATOM     20  N   UNL     1       3.396   3.111  18.418  0.00  0.00    +0.000 NA
ATOM     21  H   UNL     1       3.449   2.296  17.814  0.00  0.00    +0.000 HD
ATOM     22  H   UNL     1       3.240   2.931  19.408  0.00  0.00    +0.000 HD
ENDBRANCH  17  20
ENDBRANCH  14  17
ENDBRANCH   5  11
BRANCH   6  23
ATOM     23  C   UNL     1      -0.603  11.430  19.296  0.00  0.00    +0.000 C 
ATOM     24  S   UNL     1       0.365  12.750  18.815  0.00  0.00    +0.000 S 
BRANCH  23  25
ATOM     25  C   UNL     1      -1.972  11.249  18.686  0.00  0.00    +0.000 A 
ATOM     26  C   UNL     1      -2.110  10.345  17.625  0.00  0.00    +0.000 A 
ATOM     27  F   UNL     1      -1.070   9.597  17.230  0.00  0.00    +0.000 F 
ATOM     28  C   UNL     1      -3.328  10.163  16.969  0.00  0.00    +0.000 A 
ATOM     29  C   UNL     1      -4.457  10.854  17.402  0.00  0.00    +0.000 A 
ATOM     30  C   UNL     1      -4.352  11.724  18.486  0.00  0.00    +0.000 A 
ATOM     31  C   UNL     1      -3.116  11.930  19.110  0.00  0.00    +0.000 A 
ATOM     32  F   UNL     1      -3.069  12.819  20.111  0.00  0.00    +0.000 F 
ENDBRANCH  23  25
ENDBRANCH   6  23
TORSDOF 5
ENDMDL
