MODEL 1
REMARK VINA RESULT:      -8.1      0.000      0.000
REMARK  Name = 
REMARK  6 active torsions:
REMARK  status: ('A' for Active; 'I' for Inactive)
REMARK    1  A    between atoms: C_1  and  C_2
REMARK    2  A    between atoms: C_2  and  N_3
REMARK    3  A    between atoms: C_5  and  C_6
REMARK    4  A    between atoms: N_8  and  N_9
REMARK    5  A    between atoms: C_10  and  C_11
REMARK    6  A    between atoms: C_23  and  C_24
REMARK                            x       y       z     vdW  Elec       q    Type
REMARK                         _______ _______ _______ _____ _____    ______ ____
ROOT
ATOM      1  N   UNL     1       3.621   6.488  17.815  0.00  0.00    +0.000 N 
ATOM      2  C   UNL     1       4.853   7.084  17.603  0.00  0.00    +0.000 A 
ATOM      3  C   UNL     1       6.049   6.481  17.695  0.00  0.00    +0.000 A 
ATOM      4  C   UNL     1       6.039   5.042  18.045  0.00  0.00    +0.000 A 
ATOM      5  O   UNL     1       7.081   4.390  18.091  0.00  0.00    +0.000 OA
ATOM      6  C   UNL     1       4.739   4.404  18.339  0.00  0.00    +0.000 A 
ATOM      7  C   UNL     1       4.700   3.070  18.750  0.00  0.00    +0.000 A 
ATOM      8  C   UNL     1       3.471   2.484  19.015  0.00  0.00    +0.000 A 
ATOM      9  C   UNL     1       2.323   3.248  18.853  0.00  0.00    +0.000 A 
ATOM     10  C   UNL     1       0.971   2.645  19.097  0.00  0.00    +0.000 C 
ATOM     11  N   UNL     1       2.352   4.544  18.446  0.00  0.00    +0.000 NA
ATOM     12  C   UNL     1       3.550   5.130  18.200  0.00  0.00    +0.000 A 
ENDROOT
BRANCH   3  13
ATOM     13  C   UNL     1       7.284   7.275  17.441  0.00  0.00    +0.000 C 
ATOM     14  O   UNL     1       7.999   7.031  16.471  0.00  0.00    +0.000 OA
ATOM     15  N   UNL     1       7.526   8.273  18.371  0.00  0.00    +0.000 N 
ATOM     16  H   UNL     1       6.885   8.423  19.150  0.00  0.00    +0.000 HD
BRANCH  15  17
ATOM     17  N   UNL     1       8.630   9.053  18.227  0.00  0.00    +0.000 NA
ATOM     18  C   UNL     1       8.718  10.105  18.970  0.00  0.00    +0.000 C 
BRANCH  18  19
ATOM     19  C   UNL     1       9.897  10.988  18.846  0.00  0.00    +0.000 A 
ATOM     20  C   UNL     1      10.816  11.068  19.902  0.00  0.00    +0.000 A 
ATOM     21  C   UNL     1      11.945  11.877  19.792  0.00  0.00    +0.000 A 
ATOM     22  C   UNL     1      12.156  12.614  18.628  0.00  0.00    +0.000 A 
ATOM     23  C   UNL     1      11.233  12.540  17.583  0.00  0.00    +0.000 A 
ATOM     24 CL   UNL     1      11.503  13.461  16.153  0.00  0.00    +0.000 Cl
ATOM     25  C   UNL     1      10.098  11.731  17.681  0.00  0.00    +0.000 A 
ENDBRANCH  18  19
ENDBRANCH  15  17
ENDBRANCH   3  13
BRANCH   1  27
ATOM     26  C   UNL     1       2.509   8.684  17.776  0.00  0.00    +0.000 C 
ATOM     27  C   UNL     1       2.348   7.182  17.585  0.00  0.00    +0.000 C 
ENDBRANCH   1  27
TORSDOF 4
ENDMDL
MODEL 2
REMARK VINA RESULT:      -8.1      6.427      9.186
REMARK  Name = 
REMARK  6 active torsions:
REMARK  status: ('A' for Active; 'I' for Inactive)
REMARK    1  A    between atoms: C_1  and  C_2
REMARK    2  A    between atoms: C_2  and  N_3
REMARK    3  A    between atoms: C_5  and  C_6
REMARK    4  A    between atoms: N_8  and  N_9
REMARK    5  A    between atoms: C_10  and  C_11
REMARK    6  A    between atoms: C_23  and  C_24
REMARK                            x       y       z     vdW  Elec       q    Type
REMARK                         _______ _______ _______ _____ _____    ______ ____
ROOT
ATOM      1  N   UNL     1       2.372   5.279  20.190  0.00  0.00    +0.000 N 
ATOM      2  C   UNL     1       1.595   6.208  20.861  0.00  0.00    +0.000 A 
ATOM      3  C   UNL     1       1.406   7.487  20.501  0.00  0.00    +0.000 A 
ATOM      4  C   UNL     1       2.086   7.934  19.263  0.00  0.00    +0.000 A 
ATOM      5  O   UNL     1       1.923   9.069  18.821  0.00  0.00    +0.000 OA
ATOM      6  C   UNL     1       2.972   6.976  18.570  0.00  0.00    +0.000 A 
ATOM      7  C   UNL     1       3.692   7.388  17.447  0.00  0.00    +0.000 A 
ATOM      8  C   UNL     1       4.514   6.475  16.802  0.00  0.00    +0.000 A 
ATOM      9  C   UNL     1       4.583   5.179  17.298  0.00  0.00    +0.000 A 
ATOM     10  C   UNL     1       5.433   4.151  16.614  0.00  0.00    +0.000 C 
ATOM     11  N   UNL     1       3.880   4.769  18.386  0.00  0.00    +0.000 NA
ATOM     12  C   UNL     1       3.086   5.660  19.032  0.00  0.00    +0.000 A 
ENDROOT
BRANCH   3  13
ATOM     13  C   UNL     1       0.539   8.358  21.344  0.00  0.00    +0.000 C 
ATOM     14  O   UNL     1      -0.574   7.977  21.704  0.00  0.00    +0.000 OA
ATOM     15  N   UNL     1       1.097   9.585  21.666  0.00  0.00    +0.000 N 
ATOM     16  H   UNL     1       2.031   9.833  21.335  0.00  0.00    +0.000 HD
BRANCH  15  17
ATOM     17  N   UNL     1       0.384  10.452  22.431  0.00  0.00    +0.000 NA
ATOM     18  C   UNL     1      -0.396  11.282  21.822  0.00  0.00    +0.000 C 
BRANCH  18  19
ATOM     19  C   UNL     1      -1.188  12.249  22.612  0.00  0.00    +0.000 A 
ATOM     20  C   UNL     1      -0.734  13.569  22.744  0.00  0.00    +0.000 A 
ATOM     21  C   UNL     1      -1.479  14.500  23.466  0.00  0.00    +0.000 A 
ATOM     22  C   UNL     1      -2.678  14.113  24.061  0.00  0.00    +0.000 A 
ATOM     23  C   UNL     1      -3.122  12.794  23.935  0.00  0.00    +0.000 A 
ATOM     24 CL   UNL     1      -4.602  12.328  24.681  0.00  0.00    +0.000 Cl
ATOM     25  C   UNL     1      -2.384  11.853  23.213  0.00  0.00    +0.000 A 
ENDBRANCH  18  19
ENDBRANCH  15  17
ENDBRANCH   3  13
BRANCH   1  27
ATOM     26  C   UNL     1       1.080   3.198  20.443  0.00  0.00    +0.000 C 
ATOM     27  C   UNL     1       2.442   3.865  20.581  0.00  0.00    +0.000 C 
ENDBRANCH   1  27
TORSDOF 4
ENDMDL
MODEL 3
REMARK VINA RESULT:      -7.9      5.413      7.993
REMARK  Name = 
REMARK  6 active torsions:
REMARK  status: ('A' for Active; 'I' for Inactive)
REMARK    1  A    between atoms: C_1  and  C_2
REMARK    2  A    between atoms: C_2  and  N_3
REMARK    3  A    between atoms: C_5  and  C_6
REMARK    4  A    between atoms: N_8  and  N_9
REMARK    5  A    between atoms: C_10  and  C_11
REMARK    6  A    between atoms: C_23  and  C_24
REMARK                            x       y       z     vdW  Elec       q    Type
REMARK                         _______ _______ _______ _____ _____    ______ ____
ROOT
ATOM      1  N   UNL     1      -0.732  11.101  18.927  0.00  0.00    +0.000 N 
ATOM      2  C   UNL     1       0.214  10.280  18.335  0.00  0.00    +0.000 A 
ATOM      3  C   UNL     1       1.004   9.400  18.969  0.00  0.00    +0.000 A 
ATOM      4  C   UNL     1       0.835   9.296  20.437  0.00  0.00    +0.000 A 
ATOM      5  O   UNL     1       1.470   8.474  21.095  0.00  0.00    +0.000 OA
ATOM      6  C   UNL     1      -0.121  10.210  21.095  0.00  0.00    +0.000 A 
ATOM      7  C   UNL     1      -0.247  10.195  22.486  0.00  0.00    +0.000 A 
ATOM      8  C   UNL     1      -1.154  11.053  23.089  0.00  0.00    +0.000 A 
ATOM      9  C   UNL     1      -1.911  11.892  22.281  0.00  0.00    +0.000 A 
ATOM     10  C   UNL     1      -2.927  12.814  22.887  0.00  0.00    +0.000 C 
ATOM     11  N   UNL     1      -1.799  11.908  20.927  0.00  0.00    +0.000 NA
ATOM     12  C   UNL     1      -0.903  11.083  20.330  0.00  0.00    +0.000 A 
ENDROOT
BRANCH   3  13
ATOM     13  C   UNL     1       1.977   8.597  18.177  0.00  0.00    +0.000 C 
ATOM     14  O   UNL     1       2.541   9.081  17.196  0.00  0.00    +0.000 OA
ATOM     15  N   UNL     1       2.172   7.307  18.642  0.00  0.00    +0.000 N 
ATOM     16  H   UNL     1       1.673   6.972  19.468  0.00  0.00    +0.000 HD
BRANCH  15  17
ATOM     17  N   UNL     1       3.041   6.494  17.986  0.00  0.00    +0.000 NA
ATOM     18  C   UNL     1       4.300   6.761  18.089  0.00  0.00    +0.000 C 
BRANCH  18  19
ATOM     19  C   UNL     1       5.284   5.909  17.387  0.00  0.00    +0.000 A 
ATOM     20  C   UNL     1       6.466   5.535  18.042  0.00  0.00    +0.000 A 
ATOM     21  C   UNL     1       7.394   4.714  17.404  0.00  0.00    +0.000 A 
ATOM     22  C   UNL     1       7.145   4.268  16.108  0.00  0.00    +0.000 A 
ATOM     23  C   UNL     1       5.971   4.651  15.455  0.00  0.00    +0.000 A 
ATOM     24 CL   UNL     1       5.680   4.097  13.851  0.00  0.00    +0.000 Cl
ATOM     25  C   UNL     1       5.034   5.472  16.084  0.00  0.00    +0.000 A 
ENDBRANCH  18  19
ENDBRANCH  15  17
ENDBRANCH   3  13
BRANCH   1  27
ATOM     26  C   UNL     1      -2.378  11.150  17.098  0.00  0.00    +0.000 C 
ATOM     27  C   UNL     1      -1.641  11.958  18.156  0.00  0.00    +0.000 C 
ENDBRANCH   1  27
TORSDOF 4
ENDMDL
MODEL 4
REMARK VINA RESULT:      -7.8      0.991      1.051
REMARK  Name = 
REMARK  6 active torsions:
REMARK  status: ('A' for Active; 'I' for Inactive)
REMARK    1  A    between atoms: C_1  and  C_2
REMARK    2  A    between atoms: C_2  and  N_3
REMARK    3  A    between atoms: C_5  and  C_6
REMARK    4  A    between atoms: N_8  and  N_9
REMARK    5  A    between atoms: C_10  and  C_11
REMARK    6  A    between atoms: C_23  and  C_24
REMARK                            x       y       z     vdW  Elec       q    Type
REMARK                         _______ _______ _______ _____ _____    ______ ____
ROOT
ATOM      1  N   UNL     1       3.464   6.445  17.953  0.00  0.00    +0.000 N 
ATOM      2  C   UNL     1       4.681   7.058  17.706  0.00  0.00    +0.000 A 
ATOM      3  C   UNL     1       5.842   6.434  17.453  0.00  0.00    +0.000 A 
ATOM      4  C   UNL     1       5.806   4.953  17.425  0.00  0.00    +0.000 A 
ATOM      5  O   UNL     1       6.806   4.297  17.141  0.00  0.00    +0.000 OA
ATOM      6  C   UNL     1       4.532   4.281  17.750  0.00  0.00    +0.000 A 
ATOM      7  C   UNL     1       4.481   2.887  17.813  0.00  0.00    +0.000 A 
ATOM      8  C   UNL     1       3.276   2.269  18.112  0.00  0.00    +0.000 A 
ATOM      9  C   UNL     1       2.159   3.066  18.331  0.00  0.00    +0.000 A 
ATOM     10  C   UNL     1       0.828   2.441  18.625  0.00  0.00    +0.000 C 
ATOM     11  N   UNL     1       2.198   4.423  18.265  0.00  0.00    +0.000 NA
ATOM     12  C   UNL     1       3.377   5.035  17.989  0.00  0.00    +0.000 A 
ENDROOT
BRANCH   3  13
ATOM     13  C   UNL     1       7.067   7.249  17.216  0.00  0.00    +0.000 C 
ATOM     14  O   UNL     1       7.898   6.905  16.377  0.00  0.00    +0.000 OA
ATOM     15  N   UNL     1       7.163   8.384  18.004  0.00  0.00    +0.000 N 
ATOM     16  H   UNL     1       6.431   8.612  18.678  0.00  0.00    +0.000 HD
BRANCH  15  17
ATOM     17  N   UNL     1       8.246   9.193  17.863  0.00  0.00    +0.000 NA
ATOM     18  C   UNL     1       8.112  10.433  18.201  0.00  0.00    +0.000 C 
BRANCH  18  19
ATOM     19  C   UNL     1       9.260  11.354  18.060  0.00  0.00    +0.000 A 
ATOM     20  C   UNL     1      10.564  10.839  18.068  0.00  0.00    +0.000 A 
ATOM     21  C   UNL     1      11.656  11.690  17.913  0.00  0.00    +0.000 A 
ATOM     22  C   UNL     1      11.449  13.059  17.755  0.00  0.00    +0.000 A 
ATOM     23  C   UNL     1      10.149  13.569  17.759  0.00  0.00    +0.000 A 
ATOM     24 CL   UNL     1       9.908  15.263  17.569  0.00  0.00    +0.000 Cl
ATOM     25  C   UNL     1       9.046  12.726  17.912  0.00  0.00    +0.000 A 
ENDBRANCH  18  19
ENDBRANCH  15  17
ENDBRANCH   3  13
BRANCH   1  27
ATOM     26  C   UNL     1       2.411   8.663  17.765  0.00  0.00    +0.000 C 
ATOM     27  C   UNL     1       2.210   7.194  18.109  0.00  0.00    +0.000 C 
ENDBRANCH   1  27
TORSDOF 4
ENDMDL
MODEL 5
REMARK VINA RESULT:      -7.7      6.463      9.332
REMARK  Name = 
REMARK  6 active torsions:
REMARK  status: ('A' for Active; 'I' for Inactive)
REMARK    1  A    between atoms: C_1  and  C_2
REMARK    2  A    between atoms: C_2  and  N_3
REMARK    3  A    between atoms: C_5  and  C_6
REMARK    4  A    between atoms: N_8  and  N_9
REMARK    5  A    between atoms: C_10  and  C_11
REMARK    6  A    between atoms: C_23  and  C_24
REMARK                            x       y       z     vdW  Elec       q    Type
REMARK                         _______ _______ _______ _____ _____    ______ ____
ROOT
ATOM      1  N   UNL     1       2.112   5.666  20.462  0.00  0.00    +0.000 N 
ATOM      2  C   UNL     1       1.352   6.599  21.148  0.00  0.00    +0.000 A 
ATOM      3  C   UNL     1       1.133   7.868  20.773  0.00  0.00    +0.000 A 
ATOM      4  C   UNL     1       1.755   8.299  19.500  0.00  0.00    +0.000 A 
ATOM      5  O   UNL     1       1.560   9.424  19.044  0.00  0.00    +0.000 OA
ATOM      6  C   UNL     1       2.623   7.339  18.787  0.00  0.00    +0.000 A 
ATOM      7  C   UNL     1       3.290   7.738  17.628  0.00  0.00    +0.000 A 
ATOM      8  C   UNL     1       4.095   6.823  16.966  0.00  0.00    +0.000 A 
ATOM      9  C   UNL     1       4.201   5.537  17.482  0.00  0.00    +0.000 A 
ATOM     10  C   UNL     1       5.034   4.506  16.781  0.00  0.00    +0.000 C 
ATOM     11  N   UNL     1       3.549   5.140  18.605  0.00  0.00    +0.000 NA
ATOM     12  C   UNL     1       2.772   6.033  19.268  0.00  0.00    +0.000 A 
ENDROOT
BRANCH   3  13
ATOM     13  C   UNL     1       0.292   8.745  21.636  0.00  0.00    +0.000 C 
ATOM     14  O   UNL     1      -0.787   8.348  22.073  0.00  0.00    +0.000 OA
ATOM     15  N   UNL     1       0.833   9.996  21.884  0.00  0.00    +0.000 N 
ATOM     16  H   UNL     1       1.739  10.256  21.493  0.00  0.00    +0.000 HD
BRANCH  15  17
ATOM     17  N   UNL     1       0.141  10.870  22.661  0.00  0.00    +0.000 NA
ATOM     18  C   UNL     1      -0.887  11.449  22.136  0.00  0.00    +0.000 C 
BRANCH  18  19
ATOM     19  C   UNL     1      -1.669  12.413  22.939  0.00  0.00    +0.000 A 
ATOM     20  C   UNL     1      -2.987  12.102  23.302  0.00  0.00    +0.000 A 
ATOM     21  C   UNL     1      -3.731  12.988  24.079  0.00  0.00    +0.000 A 
ATOM     22  C   UNL     1      -3.161  14.191  24.490  0.00  0.00    +0.000 A 
ATOM     23  C   UNL     1      -1.851  14.502  24.118  0.00  0.00    +0.000 A 
ATOM     24 CL   UNL     1      -1.161  15.995  24.629  0.00  0.00    +0.000 Cl
ATOM     25  C   UNL     1      -1.095  13.621  23.341  0.00  0.00    +0.000 A 
ENDBRANCH  18  19
ENDBRANCH  15  17
ENDBRANCH   3  13
BRANCH   1  27
ATOM     26  C   UNL     1       1.009   3.465  20.395  0.00  0.00    +0.000 C 
ATOM     27  C   UNL     1       2.215   4.260  20.875  0.00  0.00    +0.000 C 
ENDBRANCH   1  27
TORSDOF 4
ENDMDL
MODEL 6
REMARK VINA RESULT:      -7.6      6.522      9.258
REMARK  Name = 
REMARK  6 active torsions:
REMARK  status: ('A' for Active; 'I' for Inactive)
REMARK    1  A    between atoms: C_1  and  C_2
REMARK    2  A    between atoms: C_2  and  N_3
REMARK    3  A    between atoms: C_5  and  C_6
REMARK    4  A    between atoms: N_8  and  N_9
REMARK    5  A    between atoms: C_10  and  C_11
REMARK    6  A    between atoms: C_23  and  C_24
REMARK                            x       y       z     vdW  Elec       q    Type
REMARK                         _______ _______ _______ _____ _____    ______ ____
ROOT
ATOM      1  N   UNL     1       2.348   6.305  19.962  0.00  0.00    +0.000 N 
ATOM      2  C   UNL     1       1.584   7.423  20.251  0.00  0.00    +0.000 A 
ATOM      3  C   UNL     1       1.498   8.536  19.505  0.00  0.00    +0.000 A 
ATOM      4  C   UNL     1       2.289   8.555  18.252  0.00  0.00    +0.000 A 
ATOM      5  O   UNL     1       2.225   9.505  17.474  0.00  0.00    +0.000 OA
ATOM      6  C   UNL     1       3.160   7.399  17.959  0.00  0.00    +0.000 A 
ATOM      7  C   UNL     1       3.979   7.419  16.829  0.00  0.00    +0.000 A 
ATOM      8  C   UNL     1       4.787   6.322  16.563  0.00  0.00    +0.000 A 
ATOM      9  C   UNL     1       4.742   5.240  17.433  0.00  0.00    +0.000 A 
ATOM     10  C   UNL     1       5.573   4.020  17.167  0.00  0.00    +0.000 C 
ATOM     11  N   UNL     1       3.942   5.210  18.531  0.00  0.00    +0.000 NA
ATOM     12  C   UNL     1       3.161   6.285  18.807  0.00  0.00    +0.000 A 
ENDROOT
BRANCH   3  13
ATOM     13  C   UNL     1       0.631   9.655  19.968  0.00  0.00    +0.000 C 
ATOM     14  O   UNL     1      -0.377   9.972  19.337  0.00  0.00    +0.000 OA
ATOM     15  N   UNL     1       1.059  10.270  21.133  0.00  0.00    +0.000 N 
ATOM     16  H   UNL     1       1.904   9.950  21.608  0.00  0.00    +0.000 HD
BRANCH  15  17
ATOM     17  N   UNL     1       0.335  11.304  21.636  0.00  0.00    +0.000 NA
ATOM     18  C   UNL     1      -0.638  11.016  22.437  0.00  0.00    +0.000 C 
BRANCH  18  19
ATOM     19  C   UNL     1      -1.459  12.107  23.005  0.00  0.00    +0.000 A 
ATOM     20  C   UNL     1      -0.925  13.401  23.091  0.00  0.00    +0.000 A 
ATOM     21  C   UNL     1      -1.693  14.445  23.603  0.00  0.00    +0.000 A 
ATOM     22  C   UNL     1      -2.995  14.198  24.035  0.00  0.00    +0.000 A 
ATOM     23  C   UNL     1      -3.519  12.906  23.957  0.00  0.00    +0.000 A 
ATOM     24 CL   UNL     1      -5.127  12.614  24.499  0.00  0.00    +0.000 Cl
ATOM     25  C   UNL     1      -2.759  11.851  23.444  0.00  0.00    +0.000 A 
ENDBRANCH  18  19
ENDBRANCH  15  17
ENDBRANCH   3  13
BRANCH   1  27
ATOM     26  C   UNL     1       1.060   4.262  20.444  0.00  0.00    +0.000 C 
ATOM     27  C   UNL     1       2.304   5.078  20.767  0.00  0.00    +0.000 C 
ENDBRANCH   1  27
TORSDOF 4
ENDMDL
MODEL 7
REMARK VINA RESULT:      -7.5      5.531      8.609
REMARK  Name = 
REMARK  6 active torsions:
REMARK  status: ('A' for Active; 'I' for Inactive)
REMARK    1  A    between atoms: C_1  and  C_2
REMARK    2  A    between atoms: C_2  and  N_3
REMARK    3  A    between atoms: C_5  and  C_6
REMARK    4  A    between atoms: N_8  and  N_9
REMARK    5  A    between atoms: C_10  and  C_11
REMARK    6  A    between atoms: C_23  and  C_24
REMARK                            x       y       z     vdW  Elec       q    Type
REMARK                         _______ _______ _______ _____ _____    ______ ____
ROOT
ATOM      1  N   UNL     1      -2.060  10.348  17.570  0.00  0.00    +0.000 N 
ATOM      2  C   UNL     1      -0.737   9.959  17.445  0.00  0.00    +0.000 A 
ATOM      3  C   UNL     1       0.262  10.277  18.283  0.00  0.00    +0.000 A 
ATOM      4  C   UNL     1      -0.095  11.112  19.453  0.00  0.00    +0.000 A 
ATOM      5  O   UNL     1       0.740  11.402  20.308  0.00  0.00    +0.000 OA
ATOM      6  C   UNL     1      -1.487  11.591  19.568  0.00  0.00    +0.000 A 
ATOM      7  C   UNL     1      -1.841  12.446  20.614  0.00  0.00    +0.000 A 
ATOM      8  C   UNL     1      -3.154  12.882  20.714  0.00  0.00    +0.000 A 
ATOM      9  C   UNL     1      -4.071  12.442  19.768  0.00  0.00    +0.000 A 
ATOM     10  C   UNL     1      -5.509  12.861  19.855  0.00  0.00    +0.000 C 
ATOM     11  N   UNL     1      -3.737  11.605  18.752  0.00  0.00    +0.000 NA
ATOM     12  C   UNL     1      -2.452  11.187  18.638  0.00  0.00    +0.000 A 
ENDROOT
BRANCH   3  13
ATOM     13  C   UNL     1       1.637   9.779  17.995  0.00  0.00    +0.000 C 
ATOM     14  O   UNL     1       2.533  10.558  17.671  0.00  0.00    +0.000 OA
ATOM     15  N   UNL     1       1.791   8.408  18.127  0.00  0.00    +0.000 N 
ATOM     16  H   UNL     1       1.003   7.822  18.405  0.00  0.00    +0.000 HD
BRANCH  15  17
ATOM     17  N   UNL     1       3.009   7.857  17.884  0.00  0.00    +0.000 NA
ATOM     18  C   UNL     1       3.128   6.581  18.048  0.00  0.00    +0.000 C 
BRANCH  18  19
ATOM     19  C   UNL     1       4.436   5.935  17.802  0.00  0.00    +0.000 A 
ATOM     20  C   UNL     1       5.193   5.472  18.888  0.00  0.00    +0.000 A 
ATOM     21  C   UNL     1       6.416   4.841  18.673  0.00  0.00    +0.000 A 
ATOM     22  C   UNL     1       6.889   4.675  17.374  0.00  0.00    +0.000 A 
ATOM     23  C   UNL     1       6.137   5.146  16.295  0.00  0.00    +0.000 A 
ATOM     24 CL   UNL     1       6.737   4.939  14.694  0.00  0.00    +0.000 Cl
ATOM     25  C   UNL     1       4.909   5.779  16.497  0.00  0.00    +0.000 A 
ENDBRANCH  18  19
ENDBRANCH  15  17
ENDBRANCH   3  13
BRANCH   1  27
ATOM     26  C   UNL     1      -2.912  10.386  15.260  0.00  0.00    +0.000 C 
ATOM     27  C   UNL     1      -3.121   9.868  16.676  0.00  0.00    +0.000 C 
ENDBRANCH   1  27
TORSDOF 4
ENDMDL
MODEL 8
REMARK VINA RESULT:      -7.5      4.247     10.242
REMARK  Name = 
REMARK  6 active torsions:
REMARK  status: ('A' for Active; 'I' for Inactive)
REMARK    1  A    between atoms: C_1  and  C_2
REMARK    2  A    between atoms: C_2  and  N_3
REMARK    3  A    between atoms: C_5  and  C_6
REMARK    4  A    between atoms: N_8  and  N_9
REMARK    5  A    between atoms: C_10  and  C_11
REMARK    6  A    between atoms: C_23  and  C_24
REMARK                            x       y       z     vdW  Elec       q    Type
REMARK                         _______ _______ _______ _____ _____    ______ ____
ROOT
ATOM      1  N   UNL     1       9.603  14.788  20.228  0.00  0.00    +0.000 N 
ATOM      2  C   UNL     1       9.345  13.429  20.291  0.00  0.00    +0.000 A 
ATOM      3  C   UNL     1       9.709  12.512  19.381  0.00  0.00    +0.000 A 
ATOM      4  C   UNL     1      10.468  13.008  18.209  0.00  0.00    +0.000 A 
ATOM      5  O   UNL     1      10.897  12.235  17.355  0.00  0.00    +0.000 OA
ATOM      6  C   UNL     1      10.696  14.463  18.091  0.00  0.00    +0.000 A 
ATOM      7  C   UNL     1      11.336  14.973  16.960  0.00  0.00    +0.000 A 
ATOM      8  C   UNL     1      11.550  16.340  16.866  0.00  0.00    +0.000 A 
ATOM      9  C   UNL     1      11.123  17.151  17.910  0.00  0.00    +0.000 A 
ATOM     10  C   UNL     1      11.363  18.630  17.867  0.00  0.00    +0.000 C 
ATOM     11  N   UNL     1      10.506  16.661  19.018  0.00  0.00    +0.000 NA
ATOM     12  C   UNL     1      10.279  15.327  19.110  0.00  0.00    +0.000 A 
ENDROOT
BRANCH   3  13
ATOM     13  C   UNL     1       9.342  11.085  19.602  0.00  0.00    +0.000 C 
ATOM     14  O   UNL     1       9.331  10.607  20.735  0.00  0.00    +0.000 OA
ATOM     15  N   UNL     1       9.027  10.388  18.447  0.00  0.00    +0.000 N 
ATOM     16  H   UNL     1       9.052  10.851  17.538  0.00  0.00    +0.000 HD
BRANCH  15  17
ATOM     17  N   UNL     1       8.679   9.078  18.543  0.00  0.00    +0.000 NA
ATOM     18  C   UNL     1       7.861   8.611  17.660  0.00  0.00    +0.000 C 
BRANCH  18  19
ATOM     19  C   UNL     1       7.448   7.193  17.727  0.00  0.00    +0.000 A 
ATOM     20  C   UNL     1       7.887   6.395  18.793  0.00  0.00    +0.000 A 
ATOM     21  C   UNL     1       7.489   5.063  18.884  0.00  0.00    +0.000 A 
ATOM     22  C   UNL     1       6.656   4.522  17.907  0.00  0.00    +0.000 A 
ATOM     23  C   UNL     1       6.229   5.318  16.841  0.00  0.00    +0.000 A 
ATOM     24 CL   UNL     1       5.204   4.635  15.637  0.00  0.00    +0.000 Cl
ATOM     25  C   UNL     1       6.620   6.655  16.739  0.00  0.00    +0.000 A 
ENDBRANCH  18  19
ENDBRANCH  15  17
ENDBRANCH   3  13
BRANCH   1  27
ATOM     26  C   UNL     1       7.816  16.150  21.234  0.00  0.00    +0.000 C 
ATOM     27  C   UNL     1       9.273  15.715  21.317  0.00  0.00    +0.000 C 
ENDBRANCH   1  27
TORSDOF 4
ENDMDL
MODEL 9
REMARK VINA RESULT:      -7.5      5.947      8.364
REMARK  Name = 
REMARK  6 active torsions:
REMARK  status: ('A' for Active; 'I' for Inactive)
REMARK    1  A    between atoms: C_1  and  C_2
REMARK    2  A    between atoms: C_2  and  N_3
REMARK    3  A    between atoms: C_5  and  C_6
REMARK    4  A    between atoms: N_8  and  N_9
REMARK    5  A    between atoms: C_10  and  C_11
REMARK    6  A    between atoms: C_23  and  C_24
REMARK                            x       y       z     vdW  Elec       q    Type
REMARK                         _______ _______ _______ _____ _____    ______ ____
ROOT
ATOM      1  N   UNL     1       2.980   4.961  19.165  0.00  0.00    +0.000 N 
ATOM      2  C   UNL     1       2.288   5.932  19.870  0.00  0.00    +0.000 A 
ATOM      3  C   UNL     1       2.220   7.236  19.559  0.00  0.00    +0.000 A 
ATOM      4  C   UNL     1       2.946   7.665  18.341  0.00  0.00    +0.000 A 
ATOM      5  O   UNL     1       2.890   8.826  17.943  0.00  0.00    +0.000 OA
ATOM      6  C   UNL     1       3.743   6.657  17.612  0.00  0.00    +0.000 A 
ATOM      7  C   UNL     1       4.503   7.043  16.507  0.00  0.00    +0.000 A 
ATOM      8  C   UNL     1       5.241   6.083  15.829  0.00  0.00    +0.000 A 
ATOM      9  C   UNL     1       5.186   4.769  16.274  0.00  0.00    +0.000 A 
ATOM     10  C   UNL     1       5.941   3.693  15.551  0.00  0.00    +0.000 C 
ATOM     11  N   UNL     1       4.443   4.384  17.344  0.00  0.00    +0.000 NA
ATOM     12  C   UNL     1       3.732   5.318  18.023  0.00  0.00    +0.000 A 
ENDROOT
BRANCH   3  13
ATOM     13  C   UNL     1       1.434   8.150  20.434  0.00  0.00    +0.000 C 
ATOM     14  O   UNL     1       1.388   7.970  21.651  0.00  0.00    +0.000 OA
ATOM     15  N   UNL     1       0.793   9.178  19.763  0.00  0.00    +0.000 N 
ATOM     16  H   UNL     1       0.880   9.270  18.750  0.00  0.00    +0.000 HD
BRANCH  15  17
ATOM     17  N   UNL     1       0.049  10.065  20.474  0.00  0.00    +0.000 NA
ATOM     18  C   UNL     1       0.633  11.144  20.878  0.00  0.00    +0.000 C 
BRANCH  18  19
ATOM     19  C   UNL     1      -0.134  12.137  21.661  0.00  0.00    +0.000 A 
ATOM     20  C   UNL     1       0.296  13.472  21.694  0.00  0.00    +0.000 A 
ATOM     21  C   UNL     1      -0.428  14.425  22.408  0.00  0.00    +0.000 A 
ATOM     22  C   UNL     1      -1.579  14.047  23.095  0.00  0.00    +0.000 A 
ATOM     23  C   UNL     1      -1.997  12.714  23.068  0.00  0.00    +0.000 A 
ATOM     24 CL   UNL     1      -3.419  12.260  23.928  0.00  0.00    +0.000 Cl
ATOM     25  C   UNL     1      -1.282  11.750  22.355  0.00  0.00    +0.000 A 
ENDBRANCH  18  19
ENDBRANCH  15  17
ENDBRANCH   3  13
BRANCH   1  27
ATOM     26  C   UNL     1       1.605   2.923  19.025  0.00  0.00    +0.000 C 
ATOM     27  C   UNL     1       2.916   3.533  19.500  0.00  0.00    +0.000 C 
ENDBRANCH   1  27
TORSDOF 4
ENDMDL
