MODEL 1
REMARK VINA RESULT:      -7.5      0.000      0.000
REMARK  Name = 
REMARK  8 active torsions:
REMARK  status: ('A' for Active; 'I' for Inactive)
REMARK    1  A    between atoms: C_1  and  C_2
REMARK    2  A    between atoms: C_5  and  S_6
REMARK    3  A    between atoms: S_6  and  C_9
REMARK    4  A    between atoms: N_16  and  C_17
REMARK    5  A    between atoms: C_20  and  C_21
REMARK    6  A    between atoms: C_21  and  C_22
REMARK    7  A    between atoms: C_21  and  C_23
REMARK    8  A    between atoms: C_32  and  C_33
REMARK                            x       y       z     vdW  Elec       q    Type
REMARK                         _______ _______ _______ _____ _____    ______ ____
ROOT
ATOM      1  C   UNL     1       1.310  11.556  18.978  0.00  0.00    +0.000 A 
ATOM      2  N   UNL     1       2.373  11.826  18.145  0.00  0.00    +0.000 NA
ATOM      3  N   UNL     1       2.909  12.985  18.517  0.00  0.00    +0.000 NA
ATOM      4  N   UNL     1       2.195  13.442  19.559  0.00  0.00    +0.000 N 
ATOM      5  C   UNL     1       1.167  12.571  19.901  0.00  0.00    +0.000 A 
ATOM      6  N   UNL     1       0.300  12.811  20.935  0.00  0.00    +0.000 NA
ATOM      7  C   UNL     1       0.425  13.912  21.657  0.00  0.00    +0.000 A 
ATOM      8  N   UNL     1      -0.444  14.136  22.704  0.00  0.00    +0.000 N 
ATOM      9  C   UNL     1       1.509  14.841  21.329  0.00  0.00    +0.000 A 
ATOM     10  S   UNL     1       1.826  16.301  22.129  0.00  0.00    +0.000 S 
ATOM     11  C   UNL     1       3.153  16.641  21.083  0.00  0.00    +0.000 A 
ATOM     12  C   UNL     1       3.346  15.653  20.135  0.00  0.00    +0.000 A 
ATOM     13  C   UNL     1       2.386  14.628  20.293  0.00  0.00    +0.000 A 
ATOM     14  H   UNL     1      -0.213  14.896  23.334  0.00  0.00    +0.000 HD
ENDROOT
BRANCH   8  15
ATOM     15  C   UNL     1      -1.829  13.882  22.647  0.00  0.00    +0.000 A 
ATOM     16  C   UNL     1      -2.632  14.685  21.833  0.00  0.00    +0.000 A 
ATOM     17  C   UNL     1      -4.013  14.479  21.763  0.00  0.00    +0.000 A 
ATOM     18  C   UNL     1      -4.623  13.450  22.492  0.00  0.00    +0.000 A 
ATOM     19  C   UNL     1      -3.820  12.655  23.319  0.00  0.00    +0.000 A 
ATOM     20  C   UNL     1      -2.443  12.872  23.396  0.00  0.00    +0.000 A 
BRANCH  18  21
ATOM     21  C   UNL     1      -6.113  13.198  22.365  0.00  0.00    +0.000 C 
ATOM     22  C   UNL     1      -6.408  12.249  21.198  0.00  0.00    +0.000 C 
ATOM     23  C   UNL     1      -6.716  12.661  23.664  0.00  0.00    +0.000 C 
ENDBRANCH  18  21
ENDBRANCH   8  15
BRANCH   1  24
ATOM     24  S   UNL     1       0.312  10.166  18.800  0.00  0.00    +0.000 S 
ATOM     25  O   UNL     1       0.155   9.630  20.142  0.00  0.00    +0.000 OA
ATOM     26  O   UNL     1       0.933   9.383  17.749  0.00  0.00    +0.000 OA
BRANCH  24  31
ATOM     27  C   UNL     1      -5.301  11.806  17.102  0.00  0.00    +0.000 C 
ATOM     28  C   UNL     1      -3.892  11.424  17.479  0.00  0.00    +0.000 A 
ATOM     29  C   UNL     1      -3.400  11.782  18.744  0.00  0.00    +0.000 A 
ATOM     30  C   UNL     1      -2.105  11.430  19.135  0.00  0.00    +0.000 A 
ATOM     31  C   UNL     1      -1.283  10.722  18.253  0.00  0.00    +0.000 A 
ATOM     32  C   UNL     1      -1.763  10.349  16.992  0.00  0.00    +0.000 A 
ATOM     33  C   UNL     1      -3.063  10.705  16.592  0.00  0.00    +0.000 A 
ATOM     34  C   UNL     1      -3.549  10.302  15.224  0.00  0.00    +0.000 C 
ENDBRANCH  24  31
ENDBRANCH   1  24
TORSDOF 4
ENDMDL
MODEL 2
REMARK VINA RESULT:      -7.3      6.580     10.985
REMARK  Name = 
REMARK  8 active torsions:
REMARK  status: ('A' for Active; 'I' for Inactive)
REMARK    1  A    between atoms: C_1  and  C_2
REMARK    2  A    between atoms: C_5  and  S_6
REMARK    3  A    between atoms: S_6  and  C_9
REMARK    4  A    between atoms: N_16  and  C_17
REMARK    5  A    between atoms: C_20  and  C_21
REMARK    6  A    between atoms: C_21  and  C_22
REMARK    7  A    between atoms: C_21  and  C_23
REMARK    8  A    between atoms: C_32  and  C_33
REMARK                            x       y       z     vdW  Elec       q    Type
REMARK                         _______ _______ _______ _____ _____    ______ ____
ROOT
ATOM      1  C   UNL     1       4.261  14.978  22.490  0.00  0.00    +0.000 A 
ATOM      2  N   UNL     1       3.234  15.664  23.100  0.00  0.00    +0.000 NA
ATOM      3  N   UNL     1       2.541  16.300  22.160  0.00  0.00    +0.000 NA
ATOM      4  N   UNL     1       3.122  16.028  20.979  0.00  0.00    +0.000 N 
ATOM      5  C   UNL     1       4.219  15.187  21.126  0.00  0.00    +0.000 A 
ATOM      6  N   UNL     1       4.977  14.759  20.068  0.00  0.00    +0.000 NA
ATOM      7  C   UNL     1       4.674  15.147  18.841  0.00  0.00    +0.000 A 
ATOM      8  N   UNL     1       5.435  14.699  17.782  0.00  0.00    +0.000 N 
ATOM      9  C   UNL     1       3.514  16.022  18.654  0.00  0.00    +0.000 A 
ATOM     10  S   UNL     1       2.973  16.631  17.167  0.00  0.00    +0.000 S 
ATOM     11  C   UNL     1       1.692  17.493  17.933  0.00  0.00    +0.000 A 
ATOM     12  C   UNL     1       1.683  17.320  19.304  0.00  0.00    +0.000 A 
ATOM     13  C   UNL     1       2.743  16.472  19.699  0.00  0.00    +0.000 A 
ATOM     14  H   UNL     1       5.074  14.878  16.852  0.00  0.00    +0.000 HD
ENDROOT
BRANCH   8  15
ATOM     15  C   UNL     1       6.841  14.604  17.807  0.00  0.00    +0.000 A 
ATOM     16  C   UNL     1       7.439  13.352  17.639  0.00  0.00    +0.000 A 
ATOM     17  C   UNL     1       8.829  13.211  17.676  0.00  0.00    +0.000 A 
ATOM     18  C   UNL     1       9.658  14.324  17.865  0.00  0.00    +0.000 A 
ATOM     19  C   UNL     1       9.058  15.576  18.048  0.00  0.00    +0.000 A 
ATOM     20  C   UNL     1       7.669  15.712  18.022  0.00  0.00    +0.000 A 
BRANCH  18  21
ATOM     21  C   UNL     1      11.167  14.170  17.846  0.00  0.00    +0.000 C 
ATOM     22  C   UNL     1      11.586  13.017  16.929  0.00  0.00    +0.000 C 
ATOM     23  C   UNL     1      11.870  15.467  17.443  0.00  0.00    +0.000 C 
ENDBRANCH  18  21
ENDBRANCH   8  15
BRANCH   1  24
ATOM     24  S   UNL     1       5.424  14.063  23.366  0.00  0.00    +0.000 S 
ATOM     25  O   UNL     1       5.230  12.686  22.942  0.00  0.00    +0.000 OA
ATOM     26  O   UNL     1       5.250  14.452  24.752  0.00  0.00    +0.000 OA
BRANCH  24  31
ATOM     27  C   UNL     1      10.789  15.904  21.148  0.00  0.00    +0.000 C 
ATOM     28  C   UNL     1       9.487  15.416  21.731  0.00  0.00    +0.000 A 
ATOM     29  C   UNL     1       8.572  16.349  22.245  0.00  0.00    +0.000 A 
ATOM     30  C   UNL     1       7.348  15.935  22.777  0.00  0.00    +0.000 A 
ATOM     31  C   UNL     1       7.031  14.574  22.809  0.00  0.00    +0.000 A 
ATOM     32  C   UNL     1       7.928  13.632  22.291  0.00  0.00    +0.000 A 
ATOM     33  C   UNL     1       9.164  14.043  21.760  0.00  0.00    +0.000 A 
ATOM     34  C   UNL     1      10.115  13.007  21.222  0.00  0.00    +0.000 C 
ENDBRANCH  24  31
ENDBRANCH   1  24
TORSDOF 4
ENDMDL
MODEL 3
REMARK VINA RESULT:      -7.1      0.916      1.560
REMARK  Name = 
REMARK  8 active torsions:
REMARK  status: ('A' for Active; 'I' for Inactive)
REMARK    1  A    between atoms: C_1  and  C_2
REMARK    2  A    between atoms: C_5  and  S_6
REMARK    3  A    between atoms: S_6  and  C_9
REMARK    4  A    between atoms: N_16  and  C_17
REMARK    5  A    between atoms: C_20  and  C_21
REMARK    6  A    between atoms: C_21  and  C_22
REMARK    7  A    between atoms: C_21  and  C_23
REMARK    8  A    between atoms: C_32  and  C_33
REMARK                            x       y       z     vdW  Elec       q    Type
REMARK                         _______ _______ _______ _____ _____    ______ ____
ROOT
ATOM      1  C   UNL     1       1.590  11.688  18.944  0.00  0.00    +0.000 A 
ATOM      2  N   UNL     1       2.486  11.921  17.924  0.00  0.00    +0.000 NA
ATOM      3  N   UNL     1       2.953  13.160  18.055  0.00  0.00    +0.000 NA
ATOM      4  N   UNL     1       2.359  13.702  19.131  0.00  0.00    +0.000 N 
ATOM      5  C   UNL     1       1.485  12.810  19.741  0.00  0.00    +0.000 A 
ATOM      6  N   UNL     1       0.761  13.125  20.861  0.00  0.00    +0.000 NA
ATOM      7  C   UNL     1       0.881  14.323  21.408  0.00  0.00    +0.000 A 
ATOM      8  N   UNL     1       0.158  14.624  22.543  0.00  0.00    +0.000 N 
ATOM      9  C   UNL     1       1.806  15.278  20.794  0.00  0.00    +0.000 A 
ATOM     10  S   UNL     1       2.090  16.858  21.341  0.00  0.00    +0.000 S 
ATOM     11  C   UNL     1       3.207  17.150  20.060  0.00  0.00    +0.000 A 
ATOM     12  C   UNL     1       3.355  16.056  19.228  0.00  0.00    +0.000 A 
ATOM     13  C   UNL     1       2.537  14.991  19.667  0.00  0.00    +0.000 A 
ATOM     14  H   UNL     1       0.402  15.481  23.026  0.00  0.00    +0.000 HD
ENDROOT
BRANCH   8  15
ATOM     15  C   UNL     1      -1.187  14.256  22.741  0.00  0.00    +0.000 A 
ATOM     16  C   UNL     1      -2.193  15.182  22.454  0.00  0.00    +0.000 A 
ATOM     17  C   UNL     1      -3.540  14.864  22.655  0.00  0.00    +0.000 A 
ATOM     18  C   UNL     1      -3.914  13.601  23.131  0.00  0.00    +0.000 A 
ATOM     19  C   UNL     1      -2.906  12.678  23.433  0.00  0.00    +0.000 A 
ATOM     20  C   UNL     1      -1.562  13.003  23.243  0.00  0.00    +0.000 A 
BRANCH  18  21
ATOM     21  C   UNL     1      -5.380  13.245  23.291  0.00  0.00    +0.000 C 
ATOM     22  C   UNL     1      -5.593  12.351  24.517  0.00  0.00    +0.000 C 
ATOM     23  C   UNL     1      -6.267  14.489  23.368  0.00  0.00    +0.000 C 
ENDBRANCH  18  21
ENDBRANCH   8  15
BRANCH   1  24
ATOM     24  S   UNL     1       0.721  10.213  19.107  0.00  0.00    +0.000 S 
ATOM     25  O   UNL     1       0.689   9.940  20.534  0.00  0.00    +0.000 OA
ATOM     26  O   UNL     1       1.356   9.293  18.182  0.00  0.00    +0.000 OA
BRANCH  24  31
ATOM     27  C   UNL     1      -4.875  11.509  17.084  0.00  0.00    +0.000 C 
ATOM     28  C   UNL     1      -3.511  11.169  17.630  0.00  0.00    +0.000 A 
ATOM     29  C   UNL     1      -2.660  10.337  16.884  0.00  0.00    +0.000 A 
ATOM     30  C   UNL     1      -1.383  10.015  17.350  0.00  0.00    +0.000 A 
ATOM     31  C   UNL     1      -0.947  10.517  18.580  0.00  0.00    +0.000 A 
ATOM     32  C   UNL     1      -1.779  11.357  19.330  0.00  0.00    +0.000 A 
ATOM     33  C   UNL     1      -3.067  11.680  18.868  0.00  0.00    +0.000 A 
ATOM     34  C   UNL     1      -3.946  12.574  19.703  0.00  0.00    +0.000 C 
ENDBRANCH  24  31
ENDBRANCH   1  24
TORSDOF 4
ENDMDL
MODEL 4
REMARK VINA RESULT:      -6.8      0.894      1.375
REMARK  Name = 
REMARK  8 active torsions:
REMARK  status: ('A' for Active; 'I' for Inactive)
REMARK    1  A    between atoms: C_1  and  C_2
REMARK    2  A    between atoms: C_5  and  S_6
REMARK    3  A    between atoms: S_6  and  C_9
REMARK    4  A    between atoms: N_16  and  C_17
REMARK    5  A    between atoms: C_20  and  C_21
REMARK    6  A    between atoms: C_21  and  C_22
REMARK    7  A    between atoms: C_21  and  C_23
REMARK    8  A    between atoms: C_32  and  C_33
REMARK                            x       y       z     vdW  Elec       q    Type
REMARK                         _______ _______ _______ _____ _____    ______ ____
ROOT
ATOM      1  C   UNL     1       1.688  12.326  19.073  0.00  0.00    +0.000 A 
ATOM      2  N   UNL     1       2.747  12.714  18.282  0.00  0.00    +0.000 NA
ATOM      3  N   UNL     1       3.014  13.991  18.540  0.00  0.00    +0.000 NA
ATOM      4  N   UNL     1       2.138  14.404  19.471  0.00  0.00    +0.000 N 
ATOM      5  C   UNL     1       1.272  13.386  19.852  0.00  0.00    +0.000 A 
ATOM      6  N   UNL     1       0.288  13.556  20.791  0.00  0.00    +0.000 NA
ATOM      7  C   UNL     1       0.135  14.730  21.379  0.00  0.00    +0.000 A 
ATOM      8  N   UNL     1      -0.848  14.886  22.333  0.00  0.00    +0.000 N 
ATOM      9  C   UNL     1       1.043  15.819  21.007  0.00  0.00    +0.000 A 
ATOM     10  S   UNL     1       1.000  17.391  21.639  0.00  0.00    +0.000 S 
ATOM     11  C   UNL     1       2.321  17.877  20.645  0.00  0.00    +0.000 A 
ATOM     12  C   UNL     1       2.783  16.852  19.840  0.00  0.00    +0.000 A 
ATOM     13  C   UNL     1       2.031  15.677  20.063  0.00  0.00    +0.000 A 
ATOM     14  H   UNL     1      -0.825  15.741  22.877  0.00  0.00    +0.000 HD
ENDROOT
BRANCH   8  15
ATOM     15  C   UNL     1      -2.147  14.353  22.220  0.00  0.00    +0.000 A 
ATOM     16  C   UNL     1      -2.497  13.250  23.004  0.00  0.00    +0.000 A 
ATOM     17  C   UNL     1      -3.769  12.677  22.908  0.00  0.00    +0.000 A 
ATOM     18  C   UNL     1      -4.730  13.208  22.038  0.00  0.00    +0.000 A 
ATOM     19  C   UNL     1      -4.375  14.304  21.243  0.00  0.00    +0.000 A 
ATOM     20  C   UNL     1      -3.100  14.865  21.332  0.00  0.00    +0.000 A 
BRANCH  18  21
ATOM     21  C   UNL     1      -6.126  12.616  21.983  0.00  0.00    +0.000 C 
ATOM     22  C   UNL     1      -6.928  12.995  23.233  0.00  0.00    +0.000 C 
ATOM     23  C   UNL     1      -6.874  13.029  20.715  0.00  0.00    +0.000 C 
ENDBRANCH  18  21
ENDBRANCH   8  15
BRANCH   1  24
ATOM     24  S   UNL     1       0.998  10.752  19.005  0.00  0.00    +0.000 S 
ATOM     25  O   UNL     1       1.013  10.266  20.375  0.00  0.00    +0.000 OA
ATOM     26  O   UNL     1       1.725  10.062  17.957  0.00  0.00    +0.000 OA
BRANCH  24  31
ATOM     27  C   UNL     1      -4.906  11.124  17.562  0.00  0.00    +0.000 C 
ATOM     28  C   UNL     1      -3.433  11.052  17.871  0.00  0.00    +0.000 A 
ATOM     29  C   UNL     1      -2.942  11.683  19.026  0.00  0.00    +0.000 A 
ATOM     30  C   UNL     1      -1.585  11.623  19.354  0.00  0.00    +0.000 A 
ATOM     31  C   UNL     1      -0.700  10.936  18.519  0.00  0.00    +0.000 A 
ATOM     32  C   UNL     1      -1.175  10.293  17.369  0.00  0.00    +0.000 A 
ATOM     33  C   UNL     1      -2.539  10.355  17.032  0.00  0.00    +0.000 A 
ATOM     34  C   UNL     1      -3.020   9.665  15.782  0.00  0.00    +0.000 C 
ENDBRANCH  24  31
ENDBRANCH   1  24
TORSDOF 4
ENDMDL
MODEL 5
REMARK VINA RESULT:      -6.6      1.068      1.135
REMARK  Name = 
REMARK  8 active torsions:
REMARK  status: ('A' for Active; 'I' for Inactive)
REMARK    1  A    between atoms: C_1  and  C_2
REMARK    2  A    between atoms: C_5  and  S_6
REMARK    3  A    between atoms: S_6  and  C_9
REMARK    4  A    between atoms: N_16  and  C_17
REMARK    5  A    between atoms: C_20  and  C_21
REMARK    6  A    between atoms: C_21  and  C_22
REMARK    7  A    between atoms: C_21  and  C_23
REMARK    8  A    between atoms: C_32  and  C_33
REMARK                            x       y       z     vdW  Elec       q    Type
REMARK                         _______ _______ _______ _____ _____    ______ ____
ROOT
ATOM      1  C   UNL     1       1.435  11.870  19.260  0.00  0.00    +0.000 A 
ATOM      2  N   UNL     1       2.354  11.926  18.236  0.00  0.00    +0.000 NA
ATOM      3  N   UNL     1       2.961  13.109  18.284  0.00  0.00    +0.000 NA
ATOM      4  N   UNL     1       2.432  13.790  19.314  0.00  0.00    +0.000 N 
ATOM      5  C   UNL     1       1.459  13.050  19.976  0.00  0.00    +0.000 A 
ATOM      6  N   UNL     1       0.774  13.524  21.065  0.00  0.00    +0.000 NA
ATOM      7  C   UNL     1       1.031  14.735  21.528  0.00  0.00    +0.000 A 
ATOM      8  N   UNL     1       0.347  15.196  22.633  0.00  0.00    +0.000 N 
ATOM      9  C   UNL     1       2.062  15.532  20.859  0.00  0.00    +0.000 A 
ATOM     10  S   UNL     1       2.526  17.103  21.297  0.00  0.00    +0.000 S 
ATOM     11  C   UNL     1       3.671  17.174  20.010  0.00  0.00    +0.000 A 
ATOM     12  C   UNL     1       3.694  16.015  19.257  0.00  0.00    +0.000 A 
ATOM     13  C   UNL     1       2.757  15.084  19.761  0.00  0.00    +0.000 A 
ATOM     14  H   UNL     1       0.687  16.052  23.057  0.00  0.00    +0.000 HD
ENDROOT
BRANCH   8  15
ATOM     15  C   UNL     1      -1.033  15.001  22.843  0.00  0.00    +0.000 A 
ATOM     16  C   UNL     1      -1.943  15.595  21.964  0.00  0.00    +0.000 A 
ATOM     17  C   UNL     1      -3.321  15.442  22.148  0.00  0.00    +0.000 A 
ATOM     18  C   UNL     1      -3.822  14.673  23.207  0.00  0.00    +0.000 A 
ATOM     19  C   UNL     1      -2.910  14.090  24.096  0.00  0.00    +0.000 A 
ATOM     20  C   UNL     1      -1.535  14.256  23.916  0.00  0.00    +0.000 A 
BRANCH  18  21
ATOM     21  C   UNL     1      -5.316  14.465  23.365  0.00  0.00    +0.000 C 
ATOM     22  C   UNL     1      -6.069  14.959  22.126  0.00  0.00    +0.000 C 
ATOM     23  C   UNL     1      -5.663  13.006  23.663  0.00  0.00    +0.000 C 
ENDBRANCH  18  21
ENDBRANCH   8  15
BRANCH   1  24
ATOM     24  S   UNL     1       0.401  10.520  19.517  0.00  0.00    +0.000 S 
ATOM     25  O   UNL     1       0.155  10.489  20.949  0.00  0.00    +0.000 OA
ATOM     26  O   UNL     1       1.049   9.411  18.843  0.00  0.00    +0.000 OA
BRANCH  24  31
ATOM     27  C   UNL     1      -5.045  11.486  16.968  0.00  0.00    +0.000 C 
ATOM     28  C   UNL     1      -3.673  11.265  17.554  0.00  0.00    +0.000 A 
ATOM     29  C   UNL     1      -3.348  11.861  18.784  0.00  0.00    +0.000 A 
ATOM     30  C   UNL     1      -2.093  11.664  19.365  0.00  0.00    +0.000 A 
ATOM     31  C   UNL     1      -1.143  10.873  18.714  0.00  0.00    +0.000 A 
ATOM     32  C   UNL     1      -1.455  10.263  17.493  0.00  0.00    +0.000 A 
ATOM     33  C   UNL     1      -2.715  10.462  16.900  0.00  0.00    +0.000 A 
ATOM     34  C   UNL     1      -3.019   9.805  15.579  0.00  0.00    +0.000 C 
ENDBRANCH  24  31
ENDBRANCH   1  24
TORSDOF 4
ENDMDL
MODEL 6
REMARK VINA RESULT:      -6.6      1.214      1.739
REMARK  Name = 
REMARK  8 active torsions:
REMARK  status: ('A' for Active; 'I' for Inactive)
REMARK    1  A    between atoms: C_1  and  C_2
REMARK    2  A    between atoms: C_5  and  S_6
REMARK    3  A    between atoms: S_6  and  C_9
REMARK    4  A    between atoms: N_16  and  C_17
REMARK    5  A    between atoms: C_20  and  C_21
REMARK    6  A    between atoms: C_21  and  C_22
REMARK    7  A    between atoms: C_21  and  C_23
REMARK    8  A    between atoms: C_32  and  C_33
REMARK                            x       y       z     vdW  Elec       q    Type
REMARK                         _______ _______ _______ _____ _____    ______ ____
ROOT
ATOM      1  C   UNL     1       1.531  12.091  19.153  0.00  0.00    +0.000 A 
ATOM      2  N   UNL     1       2.457  12.171  18.136  0.00  0.00    +0.000 NA
ATOM      3  N   UNL     1       3.081  13.341  18.231  0.00  0.00    +0.000 NA
ATOM      4  N   UNL     1       2.558  13.992  19.283  0.00  0.00    +0.000 N 
ATOM      5  C   UNL     1       1.570  13.243  19.913  0.00  0.00    +0.000 A 
ATOM      6  N   UNL     1       0.887  13.686  21.015  0.00  0.00    +0.000 NA
ATOM      7  C   UNL     1       1.160  14.875  21.525  0.00  0.00    +0.000 A 
ATOM      8  N   UNL     1       0.477  15.306  22.643  0.00  0.00    +0.000 N 
ATOM      9  C   UNL     1       2.207  15.681  20.891  0.00  0.00    +0.000 A 
ATOM     10  S   UNL     1       2.693  17.227  21.389  0.00  0.00    +0.000 S 
ATOM     11  C   UNL     1       3.846  17.328  20.111  0.00  0.00    +0.000 A 
ATOM     12  C   UNL     1       3.854  16.197  19.316  0.00  0.00    +0.000 A 
ATOM     13  C   UNL     1       2.900  15.263  19.780  0.00  0.00    +0.000 A 
ATOM     14  H   UNL     1       0.829  16.139  23.100  0.00  0.00    +0.000 HD
ENDROOT
BRANCH   8  15
ATOM     15  C   UNL     1      -0.906  15.124  22.839  0.00  0.00    +0.000 A 
ATOM     16  C   UNL     1      -1.340  14.238  23.828  0.00  0.00    +0.000 A 
ATOM     17  C   UNL     1      -2.704  14.014  24.042  0.00  0.00    +0.000 A 
ATOM     18  C   UNL     1      -3.668  14.688  23.282  0.00  0.00    +0.000 A 
ATOM     19  C   UNL     1      -3.233  15.565  22.281  0.00  0.00    +0.000 A 
ATOM     20  C   UNL     1      -1.871  15.777  22.062  0.00  0.00    +0.000 A 
BRANCH  18  21
ATOM     21  C   UNL     1      -5.145  14.482  23.560  0.00  0.00    +0.000 C 
ATOM     22  C   UNL     1      -5.959  15.703  23.118  0.00  0.00    +0.000 C 
ATOM     23  C   UNL     1      -5.680  13.209  22.904  0.00  0.00    +0.000 C 
ENDBRANCH  18  21
ENDBRANCH   8  15
BRANCH   1  24
ATOM     24  S   UNL     1       0.476  10.749  19.354  0.00  0.00    +0.000 S 
ATOM     25  O   UNL     1       0.686  10.294  20.718  0.00  0.00    +0.000 OA
ATOM     26  O   UNL     1       0.744   9.880  18.224  0.00  0.00    +0.000 OA
BRANCH  24  31
ATOM     27  C   UNL     1      -5.334  12.565  19.160  0.00  0.00    +0.000 C 
ATOM     28  C   UNL     1      -3.887  12.143  19.163  0.00  0.00    +0.000 A 
ATOM     29  C   UNL     1      -3.094  12.413  20.291  0.00  0.00    +0.000 A 
ATOM     30  C   UNL     1      -1.754  12.021  20.336  0.00  0.00    +0.000 A 
ATOM     31  C   UNL     1      -1.188  11.359  19.242  0.00  0.00    +0.000 A 
ATOM     32  C   UNL     1      -1.968  11.073  18.115  0.00  0.00    +0.000 A 
ATOM     33  C   UNL     1      -3.316  11.470  18.062  0.00  0.00    +0.000 A 
ATOM     34  C   UNL     1      -4.126  11.161  16.831  0.00  0.00    +0.000 C 
ENDBRANCH  24  31
ENDBRANCH   1  24
TORSDOF 4
ENDMDL
MODEL 7
REMARK VINA RESULT:      -6.5      1.340      1.577
REMARK  Name = 
REMARK  8 active torsions:
REMARK  status: ('A' for Active; 'I' for Inactive)
REMARK    1  A    between atoms: C_1  and  C_2
REMARK    2  A    between atoms: C_5  and  S_6
REMARK    3  A    between atoms: S_6  and  C_9
REMARK    4  A    between atoms: N_16  and  C_17
REMARK    5  A    between atoms: C_20  and  C_21
REMARK    6  A    between atoms: C_21  and  C_22
REMARK    7  A    between atoms: C_21  and  C_23
REMARK    8  A    between atoms: C_32  and  C_33
REMARK                            x       y       z     vdW  Elec       q    Type
REMARK                         _______ _______ _______ _____ _____    ______ ____
ROOT
ATOM      1  C   UNL     1       1.262  12.827  19.391  0.00  0.00    +0.000 A 
ATOM      2  N   UNL     1       2.373  13.236  18.687  0.00  0.00    +0.000 NA
ATOM      3  N   UNL     1       2.550  14.535  18.907  0.00  0.00    +0.000 NA
ATOM      4  N   UNL     1       1.568  14.942  19.728  0.00  0.00    +0.000 N 
ATOM      5  C   UNL     1       0.720  13.896  20.074  0.00  0.00    +0.000 A 
ATOM      6  N   UNL     1      -0.358  14.054  20.906  0.00  0.00    +0.000 NA
ATOM      7  C   UNL     1      -0.626  15.244  21.418  0.00  0.00    +0.000 A 
ATOM      8  N   UNL     1      -1.704  15.388  22.265  0.00  0.00    +0.000 N 
ATOM      9  C   UNL     1       0.260  16.361  21.082  0.00  0.00    +0.000 A 
ATOM     10  S   UNL     1       0.078  17.956  21.629  0.00  0.00    +0.000 S 
ATOM     11  C   UNL     1       1.465  18.468  20.742  0.00  0.00    +0.000 A 
ATOM     12  C   UNL     1       2.053  17.434  20.037  0.00  0.00    +0.000 A 
ATOM     13  C   UNL     1       1.341  16.231  20.244  0.00  0.00    +0.000 A 
ATOM     14  H   UNL     1      -1.776  16.267  22.766  0.00  0.00    +0.000 HD
ENDROOT
BRANCH   8  15
ATOM     15  C   UNL     1      -2.958  14.781  22.055  0.00  0.00    +0.000 A 
ATOM     16  C   UNL     1      -3.745  15.205  20.981  0.00  0.00    +0.000 A 
ATOM     17  C   UNL     1      -5.004  14.642  20.748  0.00  0.00    +0.000 A 
ATOM     18  C   UNL     1      -5.498  13.626  21.576  0.00  0.00    +0.000 A 
ATOM     19  C   UNL     1      -4.716  13.211  22.661  0.00  0.00    +0.000 A 
ATOM     20  C   UNL     1      -3.465  13.785  22.897  0.00  0.00    +0.000 A 
BRANCH  18  21
ATOM     21  C   UNL     1      -6.839  12.981  21.283  0.00  0.00    +0.000 C 
ATOM     22  C   UNL     1      -7.691  13.880  20.381  0.00  0.00    +0.000 C 
ATOM     23  C   UNL     1      -6.684  11.589  20.668  0.00  0.00    +0.000 C 
ENDBRANCH  18  21
ENDBRANCH   8  15
BRANCH   1  24
ATOM     24  S   UNL     1       0.660  11.216  19.335  0.00  0.00    +0.000 S 
ATOM     25  O   UNL     1       0.572  10.790  20.721  0.00  0.00    +0.000 OA
ATOM     26  O   UNL     1       1.515  10.523  18.390  0.00  0.00    +0.000 OA
BRANCH  24  31
ATOM     27  C   UNL     1      -5.091  11.195  17.331  0.00  0.00    +0.000 C 
ATOM     28  C   UNL     1      -3.652  11.222  17.781  0.00  0.00    +0.000 A 
ATOM     29  C   UNL     1      -3.321  11.863  18.986  0.00  0.00    +0.000 A 
ATOM     30  C   UNL     1      -2.001  11.893  19.443  0.00  0.00    +0.000 A 
ATOM     31  C   UNL     1      -0.992  11.288  18.689  0.00  0.00    +0.000 A 
ATOM     32  C   UNL     1      -1.307  10.636  17.490  0.00  0.00    +0.000 A 
ATOM     33  C   UNL     1      -2.633  10.607  17.023  0.00  0.00    +0.000 A 
ATOM     34  C   UNL     1      -2.941   9.910  15.724  0.00  0.00    +0.000 C 
ENDBRANCH  24  31
ENDBRANCH   1  24
TORSDOF 4
ENDMDL
MODEL 8
REMARK VINA RESULT:      -6.5      2.561      3.860
REMARK  Name = 
REMARK  8 active torsions:
REMARK  status: ('A' for Active; 'I' for Inactive)
REMARK    1  A    between atoms: C_1  and  C_2
REMARK    2  A    between atoms: C_5  and  S_6
REMARK    3  A    between atoms: S_6  and  C_9
REMARK    4  A    between atoms: N_16  and  C_17
REMARK    5  A    between atoms: C_20  and  C_21
REMARK    6  A    between atoms: C_21  and  C_22
REMARK    7  A    between atoms: C_21  and  C_23
REMARK    8  A    between atoms: C_32  and  C_33
REMARK                            x       y       z     vdW  Elec       q    Type
REMARK                         _______ _______ _______ _____ _____    ______ ____
ROOT
ATOM      1  C   UNL     1       0.815  11.846  20.116  0.00  0.00    +0.000 A 
ATOM      2  N   UNL     1       1.812  12.182  19.226  0.00  0.00    +0.000 NA
ATOM      3  N   UNL     1       2.180  13.437  19.467  0.00  0.00    +0.000 NA
ATOM      4  N   UNL     1       1.427  13.888  20.484  0.00  0.00    +0.000 N 
ATOM      5  C   UNL     1       0.543  12.918  20.942  0.00  0.00    +0.000 A 
ATOM      6  N   UNL     1      -0.330  13.133  21.976  0.00  0.00    +0.000 NA
ATOM      7  C   UNL     1      -0.353  14.306  22.585  0.00  0.00    +0.000 A 
ATOM      8  N   UNL     1      -1.225  14.506  23.634  0.00  0.00    +0.000 N 
ATOM      9  C   UNL     1       0.577  15.343  22.133  0.00  0.00    +0.000 A 
ATOM     10  S   UNL     1       0.692  16.907  22.779  0.00  0.00    +0.000 S 
ATOM     11  C   UNL     1       1.935  17.328  21.661  0.00  0.00    +0.000 A 
ATOM     12  C   UNL     1       2.252  16.288  20.806  0.00  0.00    +0.000 A 
ATOM     13  C   UNL     1       1.456  15.157  21.094  0.00  0.00    +0.000 A 
ATOM     14  H   UNL     1      -1.097  15.351  24.180  0.00  0.00    +0.000 HD
ENDROOT
BRANCH   8  15
ATOM     15  C   UNL     1      -2.559  14.052  23.648  0.00  0.00    +0.000 A 
ATOM     16  C   UNL     1      -3.566  14.891  23.163  0.00  0.00    +0.000 A 
ATOM     17  C   UNL     1      -4.904  14.486  23.177  0.00  0.00    +0.000 A 
ATOM     18  C   UNL     1      -5.266  13.221  23.659  0.00  0.00    +0.000 A 
ATOM     19  C   UNL     1      -4.258  12.386  24.157  0.00  0.00    +0.000 A 
ATOM     20  C   UNL     1      -2.925  12.799  24.154  0.00  0.00    +0.000 A 
BRANCH  18  21
ATOM     21  C   UNL     1      -6.713  12.768  23.616  0.00  0.00    +0.000 C 
ATOM     22  C   UNL     1      -7.635  13.832  24.220  0.00  0.00    +0.000 C 
ATOM     23  C   UNL     1      -7.158  12.406  22.198  0.00  0.00    +0.000 C 
ENDBRANCH  18  21
ENDBRANCH   8  15
BRANCH   1  24
ATOM     24  S   UNL     1       0.029  10.316  20.105  0.00  0.00    +0.000 S 
ATOM     25  O   UNL     1      -1.063  10.451  19.156  0.00  0.00    +0.000 OA
ATOM     26  O   UNL     1      -0.224  10.008  21.500  0.00  0.00    +0.000 OA
BRANCH  24  31
ATOM     27  C   UNL     1       3.693   6.118  17.649  0.00  0.00    +0.000 C 
ATOM     28  C   UNL     1       2.820   7.162  18.298  0.00  0.00    +0.000 A 
ATOM     29  C   UNL     1       2.474   8.315  17.574  0.00  0.00    +0.000 A 
ATOM     30  C   UNL     1       1.653   9.295  18.138  0.00  0.00    +0.000 A 
ATOM     31  C   UNL     1       1.175   9.134  19.441  0.00  0.00    +0.000 A 
ATOM     32  C   UNL     1       1.502   7.985  20.172  0.00  0.00    +0.000 A 
ATOM     33  C   UNL     1       2.333   6.998  19.612  0.00  0.00    +0.000 A 
ATOM     34  C   UNL     1       2.679   5.779  20.426  0.00  0.00    +0.000 C 
ENDBRANCH  24  31
ENDBRANCH   1  24
TORSDOF 4
ENDMDL
MODEL 9
REMARK VINA RESULT:      -6.5      2.242      3.678
REMARK  Name = 
REMARK  8 active torsions:
REMARK  status: ('A' for Active; 'I' for Inactive)
REMARK    1  A    between atoms: C_1  and  C_2
REMARK    2  A    between atoms: C_5  and  S_6
REMARK    3  A    between atoms: S_6  and  C_9
REMARK    4  A    between atoms: N_16  and  C_17
REMARK    5  A    between atoms: C_20  and  C_21
REMARK    6  A    between atoms: C_21  and  C_22
REMARK    7  A    between atoms: C_21  and  C_23
REMARK    8  A    between atoms: C_32  and  C_33
REMARK                            x       y       z     vdW  Elec       q    Type
REMARK                         _______ _______ _______ _____ _____    ______ ____
ROOT
ATOM      1  C   UNL     1       0.895  11.674  20.139  0.00  0.00    +0.000 A 
ATOM      2  N   UNL     1       1.529  11.165  19.027  0.00  0.00    +0.000 NA
ATOM      3  N   UNL     1       2.165  12.161  18.418  0.00  0.00    +0.000 NA
ATOM      4  N   UNL     1       1.933  13.279  19.126  0.00  0.00    +0.000 N 
ATOM      5  C   UNL     1       1.135  13.030  20.236  0.00  0.00    +0.000 A 
ATOM      6  N   UNL     1       0.760  14.008  21.119  0.00  0.00    +0.000 NA
ATOM      7  C   UNL     1       1.163  15.253  20.933  0.00  0.00    +0.000 A 
ATOM      8  N   UNL     1       0.793  16.227  21.836  0.00  0.00    +0.000 N 
ATOM      9  C   UNL     1       2.019  15.543  19.779  0.00  0.00    +0.000 A 
ATOM     10  S   UNL     1       2.627  17.071  19.368  0.00  0.00    +0.000 S 
ATOM     11  C   UNL     1       3.415  16.434  17.973  0.00  0.00    +0.000 A 
ATOM     12  C   UNL     1       3.211  15.074  17.825  0.00  0.00    +0.000 A 
ATOM     13  C   UNL     1       2.401  14.583  18.874  0.00  0.00    +0.000 A 
ATOM     14  H   UNL     1       1.256  17.125  21.755  0.00  0.00    +0.000 HD
ENDROOT
BRANCH   8  15
ATOM     15  C   UNL     1      -0.496  16.332  22.397  0.00  0.00    +0.000 A 
ATOM     16  C   UNL     1      -1.578  16.620  21.562  0.00  0.00    +0.000 A 
ATOM     17  C   UNL     1      -2.870  16.751  22.081  0.00  0.00    +0.000 A 
ATOM     18  C   UNL     1      -3.113  16.578  23.449  0.00  0.00    +0.000 A 
ATOM     19  C   UNL     1      -2.026  16.304  24.289  0.00  0.00    +0.000 A 
ATOM     20  C   UNL     1      -0.736  16.186  23.769  0.00  0.00    +0.000 A 
BRANCH  18  21
ATOM     21  C   UNL     1      -4.525  16.666  23.995  0.00  0.00    +0.000 C 
ATOM     22  C   UNL     1      -4.551  17.430  25.323  0.00  0.00    +0.000 C 
ATOM     23  C   UNL     1      -5.490  17.296  22.989  0.00  0.00    +0.000 C 
ENDBRANCH  18  21
ENDBRANCH   8  15
BRANCH   1  24
ATOM     24  S   UNL     1      -0.084  10.715  21.179  0.00  0.00    +0.000 S 
ATOM     25  O   UNL     1       0.589  10.733  22.466  0.00  0.00    +0.000 OA
ATOM     26  O   UNL     1      -0.298   9.473  20.461  0.00  0.00    +0.000 OA
BRANCH  24  31
ATOM     27  C   UNL     1      -5.237  13.904  21.785  0.00  0.00    +0.000 C 
ATOM     28  C   UNL     1      -3.983  13.076  21.665  0.00  0.00    +0.000 A 
ATOM     29  C   UNL     1      -3.494  12.751  20.389  0.00  0.00    +0.000 A 
ATOM     30  C   UNL     1      -2.325  12.000  20.240  0.00  0.00    +0.000 A 
ATOM     31  C   UNL     1      -1.636  11.556  21.372  0.00  0.00    +0.000 A 
ATOM     32  C   UNL     1      -2.105  11.881  22.651  0.00  0.00    +0.000 A 
ATOM     33  C   UNL     1      -3.284  12.632  22.807  0.00  0.00    +0.000 A 
ATOM     34  C   UNL     1      -3.772  12.955  24.195  0.00  0.00    +0.000 C 
ENDBRANCH  24  31
ENDBRANCH   1  24
TORSDOF 4
ENDMDL
