MODEL 1
REMARK VINA RESULT:      -7.8      0.000      0.000
REMARK  Name = 
REMARK  10 active torsions:
REMARK  status: ('A' for Active; 'I' for Inactive)
REMARK    1  A    between atoms: C_1  and  O_2
REMARK    2  A    between atoms: O_2  and  C_3
REMARK    3  A    between atoms: C_6  and  N_7
REMARK    4  A    between atoms: C_8  and  C_10
REMARK    5  A    between atoms: C_10  and  S_11
REMARK    6  A    between atoms: S_11  and  C_12
REMARK    7  A    between atoms: C_15  and  C_16
REMARK    8  A    between atoms: C_21  and  C_22
REMARK    9  A    between atoms: C_29  and  O_30
REMARK   10  A    between atoms: O_30  and  C_31
REMARK                            x       y       z     vdW  Elec       q    Type
REMARK                         _______ _______ _______ _____ _____    ______ ____
ROOT
ATOM      1  S   UNL     1       3.222   1.679  18.848  0.00  0.00    +0.000 S 
ENDROOT
BRANCH   1   2
ATOM      2  C   UNL     1       4.506   2.859  18.529  0.00  0.00    +0.000 A 
ATOM      3  N   UNL     1       4.950   3.573  19.585  0.00  0.00    +0.000 NA
ATOM      4  N   UNL     1       5.759   4.653  19.379  0.00  0.00    +0.000 NA
ATOM      5  C   UNL     1       6.097   4.987  18.115  0.00  0.00    +0.000 A 
ATOM      6  C   UNL     1       5.699   4.166  17.068  0.00  0.00    +0.000 A 
ATOM      7  N   UNL     1       4.878   3.096  17.263  0.00  0.00    +0.000 NA
BRANCH   5   8
ATOM      8  C   UNL     1       6.755   6.278  18.006  0.00  0.00    +0.000 A 
ATOM      9  C   UNL     1       6.536   7.418  17.257  0.00  0.00    +0.000 A 
ATOM     10  C   UNL     1       7.583   8.322  17.572  0.00  0.00    +0.000 A 
ATOM     11  C   UNL     1       8.393   7.669  18.469  0.00  0.00    +0.000 A 
ATOM     12  O   UNL     1       7.915   6.425  18.716  0.00  0.00    +0.000 OA
ENDBRANCH   5   8
BRANCH   6  13
ATOM     13  C   UNL     1       6.117   4.342  15.679  0.00  0.00    +0.000 A 
ATOM     14  C   UNL     1       7.262   4.789  15.049  0.00  0.00    +0.000 A 
ATOM     15  C   UNL     1       6.996   4.800  13.657  0.00  0.00    +0.000 A 
ATOM     16  C   UNL     1       5.729   4.298  13.509  0.00  0.00    +0.000 A 
ATOM     17  O   UNL     1       5.185   4.004  14.719  0.00  0.00    +0.000 OA
ENDBRANCH   6  13
ENDBRANCH   1   2
BRANCH   1  18
ATOM     18  C   UNL     1       2.202   2.613  20.030  0.00  0.00    +0.000 C 
BRANCH  18  20
ATOM     19  N   UNL     1       2.407   5.046  20.077  0.00  0.00    +0.000 N 
ATOM     20  C   UNL     1       1.825   3.960  19.439  0.00  0.00    +0.000 C 
ATOM     21  O   UNL     1       1.028   4.029  18.504  0.00  0.00    +0.000 OA
ATOM     22  H   UNL     1       2.920   4.878  20.936  0.00  0.00    +0.000 HD
BRANCH  19  26
ATOM     23  C   UNL     1       1.671   9.045  18.933  0.00  0.00    +0.000 A 
ATOM     24  C   UNL     1       2.328   8.171  18.059  0.00  0.00    +0.000 A 
ATOM     25  C   UNL     1       2.590   6.852  18.426  0.00  0.00    +0.000 A 
ATOM     26  C   UNL     1       2.243   6.392  19.690  0.00  0.00    +0.000 A 
ATOM     27  C   UNL     1       1.715   7.298  20.615  0.00  0.00    +0.000 A 
ATOM     28  C   UNL     1       1.412   8.623  20.248  0.00  0.00    +0.000 A 
BRANCH  23  30
ATOM     29  C   UNL     1      -0.095  10.460  18.247  0.00  0.00    +0.000 C 
ATOM     30  O   UNL     1       1.299  10.298  18.522  0.00  0.00    +0.000 OA
ENDBRANCH  23  30
BRANCH  28  31
ATOM     31  O   UNL     1       0.850   9.329  21.280  0.00  0.00    +0.000 OA
ATOM     32  C   UNL     1      -0.344   8.845  21.877  0.00  0.00    +0.000 C 
ENDBRANCH  28  31
ENDBRANCH  19  26
ENDBRANCH  18  20
ENDBRANCH   1  18
TORSDOF 8
ENDMDL
MODEL 2
REMARK VINA RESULT:      -7.6      1.231      3.130
REMARK  Name = 
REMARK  10 active torsions:
REMARK  status: ('A' for Active; 'I' for Inactive)
REMARK    1  A    between atoms: C_1  and  O_2
REMARK    2  A    between atoms: O_2  and  C_3
REMARK    3  A    between atoms: C_6  and  N_7
REMARK    4  A    between atoms: C_8  and  C_10
REMARK    5  A    between atoms: C_10  and  S_11
REMARK    6  A    between atoms: S_11  and  C_12
REMARK    7  A    between atoms: C_15  and  C_16
REMARK    8  A    between atoms: C_21  and  C_22
REMARK    9  A    between atoms: C_29  and  O_30
REMARK   10  A    between atoms: O_30  and  C_31
REMARK                            x       y       z     vdW  Elec       q    Type
REMARK                         _______ _______ _______ _____ _____    ______ ____
ROOT
ATOM      1  S   UNL     1       2.985   2.783  20.206  0.00  0.00    +0.000 S 
ENDROOT
BRANCH   1   2
ATOM      2  C   UNL     1       3.722   3.522  18.772  0.00  0.00    +0.000 A 
ATOM      3  N   UNL     1       3.304   3.067  17.572  0.00  0.00    +0.000 NA
ATOM      4  N   UNL     1       3.988   3.414  16.442  0.00  0.00    +0.000 NA
ATOM      5  C   UNL     1       5.075   4.206  16.551  0.00  0.00    +0.000 A 
ATOM      6  C   UNL     1       5.410   4.731  17.793  0.00  0.00    +0.000 A 
ATOM      7  N   UNL     1       4.743   4.377  18.928  0.00  0.00    +0.000 NA
BRANCH   5   8
ATOM      8  C   UNL     1       5.850   4.309  15.327  0.00  0.00    +0.000 A 
ATOM      9  C   UNL     1       7.063   4.881  14.992  0.00  0.00    +0.000 A 
ATOM     10  C   UNL     1       7.235   4.686  13.597  0.00  0.00    +0.000 A 
ATOM     11  C   UNL     1       6.105   4.038  13.160  0.00  0.00    +0.000 A 
ATOM     12  O   UNL     1       5.254   3.830  14.193  0.00  0.00    +0.000 OA
ENDBRANCH   5   8
BRANCH   6  13
ATOM     13  C   UNL     1       6.473   5.707  18.016  0.00  0.00    +0.000 A 
ATOM     14  C   UNL     1       7.634   5.738  18.764  0.00  0.00    +0.000 A 
ATOM     15  C   UNL     1       8.192   7.033  18.615  0.00  0.00    +0.000 A 
ATOM     16  C   UNL     1       7.379   7.698  17.734  0.00  0.00    +0.000 A 
ATOM     17  O   UNL     1       6.341   6.909  17.351  0.00  0.00    +0.000 OA
ENDBRANCH   6  13
ENDBRANCH   1   2
BRANCH   1  18
ATOM     18  C   UNL     1       2.863   4.232  21.298  0.00  0.00    +0.000 C 
BRANCH  18  20
ATOM     19  N   UNL     1       2.572   6.533  20.531  0.00  0.00    +0.000 N 
ATOM     20  C   UNL     1       1.974   5.287  20.664  0.00  0.00    +0.000 C 
ATOM     21  O   UNL     1       0.813   5.021  20.356  0.00  0.00    +0.000 OA
ATOM     22  H   UNL     1       3.478   6.677  20.965  0.00  0.00    +0.000 HD
BRANCH  19  26
ATOM     23  C   UNL     1       0.539   9.799  18.788  0.00  0.00    +0.000 A 
ATOM     24  C   UNL     1       1.459   9.059  18.036  0.00  0.00    +0.000 A 
ATOM     25  C   UNL     1       2.148   7.986  18.600  0.00  0.00    +0.000 A 
ATOM     26  C   UNL     1       1.967   7.659  19.938  0.00  0.00    +0.000 A 
ATOM     27  C   UNL     1       1.156   8.481  20.727  0.00  0.00    +0.000 A 
ATOM     28  C   UNL     1       0.427   9.546  20.165  0.00  0.00    +0.000 A 
BRANCH  23  30
ATOM     29  C   UNL     1      -1.484  10.314  17.677  0.00  0.00    +0.000 C 
ATOM     30  O   UNL     1      -0.232  10.766  18.197  0.00  0.00    +0.000 OA
ENDBRANCH  23  30
BRANCH  28  31
ATOM     31  O   UNL     1      -0.349  10.188  21.095  0.00  0.00    +0.000 OA
ATOM     32  C   UNL     1      -0.118   9.943  22.474  0.00  0.00    +0.000 C 
ENDBRANCH  28  31
ENDBRANCH  19  26
ENDBRANCH  18  20
ENDBRANCH   1  18
TORSDOF 8
ENDMDL
MODEL 3
REMARK VINA RESULT:      -7.6      0.946      1.152
REMARK  Name = 
REMARK  10 active torsions:
REMARK  status: ('A' for Active; 'I' for Inactive)
REMARK    1  A    between atoms: C_1  and  O_2
REMARK    2  A    between atoms: O_2  and  C_3
REMARK    3  A    between atoms: C_6  and  N_7
REMARK    4  A    between atoms: C_8  and  C_10
REMARK    5  A    between atoms: C_10  and  S_11
REMARK    6  A    between atoms: S_11  and  C_12
REMARK    7  A    between atoms: C_15  and  C_16
REMARK    8  A    between atoms: C_21  and  C_22
REMARK    9  A    between atoms: C_29  and  O_30
REMARK   10  A    between atoms: O_30  and  C_31
REMARK                            x       y       z     vdW  Elec       q    Type
REMARK                         _______ _______ _______ _____ _____    ______ ____
ROOT
ATOM      1  S   UNL     1       3.296   2.075  19.338  0.00  0.00    +0.000 S 
ENDROOT
BRANCH   1   2
ATOM      2  C   UNL     1       4.609   3.177  18.887  0.00  0.00    +0.000 A 
ATOM      3  N   UNL     1       5.164   3.899  19.883  0.00  0.00    +0.000 NA
ATOM      4  N   UNL     1       6.008   4.929  19.583  0.00  0.00    +0.000 NA
ATOM      5  C   UNL     1       6.268   5.207  18.288  0.00  0.00    +0.000 A 
ATOM      6  C   UNL     1       5.754   4.376  17.300  0.00  0.00    +0.000 A 
ATOM      7  N   UNL     1       4.898   3.357  17.590  0.00  0.00    +0.000 NA
BRANCH   5   8
ATOM      8  C   UNL     1       6.978   6.458  18.088  0.00  0.00    +0.000 A 
ATOM      9  C   UNL     1       8.149   6.999  18.587  0.00  0.00    +0.000 A 
ATOM     10  C   UNL     1       8.263   8.302  18.038  0.00  0.00    +0.000 A 
ATOM     11  C   UNL     1       7.143   8.490  17.264  0.00  0.00    +0.000 A 
ATOM     12  O   UNL     1       6.351   7.392  17.310  0.00  0.00    +0.000 OA
ENDBRANCH   5   8
BRANCH   6  13
ATOM     13  C   UNL     1       6.076   4.489  15.880  0.00  0.00    +0.000 A 
ATOM     14  C   UNL     1       5.381   4.307  14.700  0.00  0.00    +0.000 A 
ATOM     15  C   UNL     1       6.304   4.491  13.639  0.00  0.00    +0.000 A 
ATOM     16  C   UNL     1       7.493   4.837  14.227  0.00  0.00    +0.000 A 
ATOM     17  O   UNL     1       7.373   4.853  15.580  0.00  0.00    +0.000 OA
ENDBRANCH   6  13
ENDBRANCH   1   2
BRANCH   1  18
ATOM     18  C   UNL     1       2.367   3.125  20.497  0.00  0.00    +0.000 C 
BRANCH  18  20
ATOM     19  N   UNL     1       2.448   5.558  20.306  0.00  0.00    +0.000 N 
ATOM     20  C   UNL     1       1.903   4.389  19.795  0.00  0.00    +0.000 C 
ATOM     21  O   UNL     1       1.074   4.329  18.887  0.00  0.00    +0.000 OA
ATOM     22  H   UNL     1       2.996   5.499  21.157  0.00  0.00    +0.000 HD
BRANCH  19  26
ATOM     23  C   UNL     1       1.473   9.393  18.827  0.00  0.00    +0.000 A 
ATOM     24  C   UNL     1       2.089   8.452  17.994  0.00  0.00    +0.000 A 
ATOM     25  C   UNL     1       2.428   7.187  18.470  0.00  0.00    +0.000 A 
ATOM     26  C   UNL     1       2.203   6.851  19.799  0.00  0.00    +0.000 A 
ATOM     27  C   UNL     1       1.719   7.834  20.668  0.00  0.00    +0.000 A 
ATOM     28  C   UNL     1       1.337   9.104  20.195  0.00  0.00    +0.000 A 
BRANCH  23  30
ATOM     29  C   UNL     1       1.897  11.698  18.515  0.00  0.00    +0.000 C 
ATOM     30  O   UNL     1       1.021  10.585  18.324  0.00  0.00    +0.000 OA
ENDBRANCH  23  30
BRANCH  28  31
ATOM     31  O   UNL     1       0.835   9.897  21.194  0.00  0.00    +0.000 OA
ATOM     32  C   UNL     1      -0.569  10.083  21.288  0.00  0.00    +0.000 C 
ENDBRANCH  28  31
ENDBRANCH  19  26
ENDBRANCH  18  20
ENDBRANCH   1  18
TORSDOF 8
ENDMDL
MODEL 4
REMARK VINA RESULT:      -7.6      0.806      2.888
REMARK  Name = 
REMARK  10 active torsions:
REMARK  status: ('A' for Active; 'I' for Inactive)
REMARK    1  A    between atoms: C_1  and  O_2
REMARK    2  A    between atoms: O_2  and  C_3
REMARK    3  A    between atoms: C_6  and  N_7
REMARK    4  A    between atoms: C_8  and  C_10
REMARK    5  A    between atoms: C_10  and  S_11
REMARK    6  A    between atoms: S_11  and  C_12
REMARK    7  A    between atoms: C_15  and  C_16
REMARK    8  A    between atoms: C_21  and  C_22
REMARK    9  A    between atoms: C_29  and  O_30
REMARK   10  A    between atoms: O_30  and  C_31
REMARK                            x       y       z     vdW  Elec       q    Type
REMARK                         _______ _______ _______ _____ _____    ______ ____
ROOT
ATOM      1  S   UNL     1       4.056   2.632  20.715  0.00  0.00    +0.000 S 
ENDROOT
BRANCH   1   2
ATOM      2  C   UNL     1       4.411   3.373  19.144  0.00  0.00    +0.000 A 
ATOM      3  N   UNL     1       3.990   2.707  18.049  0.00  0.00    +0.000 NA
ATOM      4  N   UNL     1       4.428   3.089  16.814  0.00  0.00    +0.000 NA
ATOM      5  C   UNL     1       5.282   4.129  16.714  0.00  0.00    +0.000 A 
ATOM      6  C   UNL     1       5.611   4.848  17.857  0.00  0.00    +0.000 A 
ATOM      7  N   UNL     1       5.191   4.463  19.095  0.00  0.00    +0.000 NA
BRANCH   5   8
ATOM      8  C   UNL     1       5.860   4.289  15.391  0.00  0.00    +0.000 A 
ATOM      9  C   UNL     1       5.404   4.082  14.102  0.00  0.00    +0.000 A 
ATOM     10  C   UNL     1       6.488   4.371  13.235  0.00  0.00    +0.000 A 
ATOM     11  C   UNL     1       7.547   4.706  14.044  0.00  0.00    +0.000 A 
ATOM     12  O   UNL     1       7.183   4.633  15.347  0.00  0.00    +0.000 OA
ENDBRANCH   5   8
BRANCH   6  13
ATOM     13  C   UNL     1       6.408   6.072  17.859  0.00  0.00    +0.000 A 
ATOM     14  C   UNL     1       6.314   7.304  17.241  0.00  0.00    +0.000 A 
ATOM     15  C   UNL     1       7.473   8.038  17.596  0.00  0.00    +0.000 A 
ATOM     16  C   UNL     1       8.178   7.241  18.460  0.00  0.00    +0.000 A 
ATOM     17  O   UNL     1       7.544   6.053  18.641  0.00  0.00    +0.000 OA
ENDBRANCH   6  13
ENDBRANCH   1   2
BRANCH   1  18
ATOM     18  C   UNL     1       2.258   2.897  20.804  0.00  0.00    +0.000 C 
BRANCH  18  20
ATOM     19  N   UNL     1       2.350   5.329  20.609  0.00  0.00    +0.000 N 
ATOM     20  C   UNL     1       1.880   4.153  20.041  0.00  0.00    +0.000 C 
ATOM     21  O   UNL     1       1.173   4.083  19.035  0.00  0.00    +0.000 OA
ATOM     22  H   UNL     1       2.785   5.278  21.523  0.00  0.00    +0.000 HD
BRANCH  19  26
ATOM     23  C   UNL     1       1.549   9.147  18.989  0.00  0.00    +0.000 A 
ATOM     24  C   UNL     1       2.291   8.213  18.257  0.00  0.00    +0.000 A 
ATOM     25  C   UNL     1       2.575   6.953  18.782  0.00  0.00    +0.000 A 
ATOM     26  C   UNL     1       2.164   6.617  20.067  0.00  0.00    +0.000 A 
ATOM     27  C   UNL     1       1.546   7.596  20.852  0.00  0.00    +0.000 A 
ATOM     28  C   UNL     1       1.220   8.859  20.324  0.00  0.00    +0.000 A 
BRANCH  23  30
ATOM     29  C   UNL     1      -0.248  10.477  18.219  0.00  0.00    +0.000 C 
ATOM     30  O   UNL     1       1.160  10.332  18.421  0.00  0.00    +0.000 OA
ENDBRANCH  23  30
BRANCH  28  31
ATOM     31  O   UNL     1       0.569   9.648  21.236  0.00  0.00    +0.000 OA
ATOM     32  C   UNL     1       0.481   9.214  22.585  0.00  0.00    +0.000 C 
ENDBRANCH  28  31
ENDBRANCH  19  26
ENDBRANCH  18  20
ENDBRANCH   1  18
TORSDOF 8
ENDMDL
MODEL 5
REMARK VINA RESULT:      -7.4      1.294      3.194
REMARK  Name = 
REMARK  10 active torsions:
REMARK  status: ('A' for Active; 'I' for Inactive)
REMARK    1  A    between atoms: C_1  and  O_2
REMARK    2  A    between atoms: O_2  and  C_3
REMARK    3  A    between atoms: C_6  and  N_7
REMARK    4  A    between atoms: C_8  and  C_10
REMARK    5  A    between atoms: C_10  and  S_11
REMARK    6  A    between atoms: S_11  and  C_12
REMARK    7  A    between atoms: C_15  and  C_16
REMARK    8  A    between atoms: C_21  and  C_22
REMARK    9  A    between atoms: C_29  and  O_30
REMARK   10  A    between atoms: O_30  and  C_31
REMARK                            x       y       z     vdW  Elec       q    Type
REMARK                         _______ _______ _______ _____ _____    ______ ____
ROOT
ATOM      1  S   UNL     1       2.548   2.519  20.053  0.00  0.00    +0.000 S 
ENDROOT
BRANCH   1   2
ATOM      2  C   UNL     1       3.399   3.321  18.720  0.00  0.00    +0.000 A 
ATOM      3  N   UNL     1       3.014   2.992  17.468  0.00  0.00    +0.000 NA
ATOM      4  N   UNL     1       3.772   3.383  16.403  0.00  0.00    +0.000 NA
ATOM      5  C   UNL     1       4.900   4.091  16.625  0.00  0.00    +0.000 A 
ATOM      6  C   UNL     1       5.204   4.492  17.920  0.00  0.00    +0.000 A 
ATOM      7  N   UNL     1       4.462   4.092  18.990  0.00  0.00    +0.000 NA
BRANCH   5   8
ATOM      8  C   UNL     1       5.738   4.241  15.449  0.00  0.00    +0.000 A 
ATOM      9  C   UNL     1       6.961   4.836  15.198  0.00  0.00    +0.000 A 
ATOM     10  C   UNL     1       7.211   4.688  13.810  0.00  0.00    +0.000 A 
ATOM     11  C   UNL     1       6.115   4.041  13.291  0.00  0.00    +0.000 A 
ATOM     12  O   UNL     1       5.211   3.791  14.269  0.00  0.00    +0.000 OA
ENDBRANCH   5   8
BRANCH   6  13
ATOM     13  C   UNL     1       6.313   5.376  18.269  0.00  0.00    +0.000 A 
ATOM     14  C   UNL     1       6.740   6.623  17.855  0.00  0.00    +0.000 A 
ATOM     15  C   UNL     1       7.957   6.893  18.531  0.00  0.00    +0.000 A 
ATOM     16  C   UNL     1       8.171   5.827  19.367  0.00  0.00    +0.000 A 
ATOM     17  O   UNL     1       7.183   4.905  19.231  0.00  0.00    +0.000 OA
ENDBRANCH   6  13
ENDBRANCH   1   2
BRANCH   1  18
ATOM     18  C   UNL     1       2.495   3.870  21.269  0.00  0.00    +0.000 C 
BRANCH  18  20
ATOM     19  N   UNL     1       2.410   6.237  20.673  0.00  0.00    +0.000 N 
ATOM     20  C   UNL     1       1.706   5.041  20.711  0.00  0.00    +0.000 C 
ATOM     21  O   UNL     1       0.530   4.899  20.379  0.00  0.00    +0.000 OA
ATOM     22  H   UNL     1       3.320   6.271  21.121  0.00  0.00    +0.000 HD
BRANCH  19  26
ATOM     23  C   UNL     1       0.686   9.774  19.138  0.00  0.00    +0.000 A 
ATOM     24  C   UNL     1       1.665   9.092  18.406  0.00  0.00    +0.000 A 
ATOM     25  C   UNL     1       2.253   7.930  18.904  0.00  0.00    +0.000 A 
ATOM     26  C   UNL     1       1.910   7.452  20.163  0.00  0.00    +0.000 A 
ATOM     27  C   UNL     1       1.038   8.207  20.954  0.00  0.00    +0.000 A 
ATOM     28  C   UNL     1       0.409   9.362  20.452  0.00  0.00    +0.000 A 
BRANCH  23  30
ATOM     29  C   UNL     1       0.725  12.079  18.611  0.00  0.00    +0.000 C 
ATOM     30  O   UNL     1       0.017  10.837  18.591  0.00  0.00    +0.000 OA
ENDBRANCH  23  30
BRANCH  28  31
ATOM     31  O   UNL     1      -0.449   9.920  21.363  0.00  0.00    +0.000 OA
ATOM     32  C   UNL     1      -0.062  11.108  22.037  0.00  0.00    +0.000 C 
ENDBRANCH  28  31
ENDBRANCH  19  26
ENDBRANCH  18  20
ENDBRANCH   1  18
TORSDOF 8
ENDMDL
MODEL 6
REMARK VINA RESULT:      -7.3      1.414      3.525
REMARK  Name = 
REMARK  10 active torsions:
REMARK  status: ('A' for Active; 'I' for Inactive)
REMARK    1  A    between atoms: C_1  and  O_2
REMARK    2  A    between atoms: O_2  and  C_3
REMARK    3  A    between atoms: C_6  and  N_7
REMARK    4  A    between atoms: C_8  and  C_10
REMARK    5  A    between atoms: C_10  and  S_11
REMARK    6  A    between atoms: S_11  and  C_12
REMARK    7  A    between atoms: C_15  and  C_16
REMARK    8  A    between atoms: C_21  and  C_22
REMARK    9  A    between atoms: C_29  and  O_30
REMARK   10  A    between atoms: O_30  and  C_31
REMARK                            x       y       z     vdW  Elec       q    Type
REMARK                         _______ _______ _______ _____ _____    ______ ____
ROOT
ATOM      1  S   UNL     1       2.715   2.225  20.540  0.00  0.00    +0.000 S 
ENDROOT
BRANCH   1   2
ATOM      2  C   UNL     1       3.404   3.144  19.190  0.00  0.00    +0.000 A 
ATOM      3  N   UNL     1       2.871   2.923  17.970  0.00  0.00    +0.000 NA
ATOM      4  N   UNL     1       3.498   3.410  16.859  0.00  0.00    +0.000 NA
ATOM      5  C   UNL     1       4.646   4.104  17.006  0.00  0.00    +0.000 A 
ATOM      6  C   UNL     1       5.104   4.393  18.286  0.00  0.00    +0.000 A 
ATOM      7  N   UNL     1       4.494   3.897  19.398  0.00  0.00    +0.000 NA
BRANCH   5   8
ATOM      8  C   UNL     1       5.340   4.362  15.756  0.00  0.00    +0.000 A 
ATOM      9  C   UNL     1       5.629   5.497  15.024  0.00  0.00    +0.000 A 
ATOM     10  C   UNL     1       6.290   5.066  13.845  0.00  0.00    +0.000 A 
ATOM     11  C   UNL     1       6.335   3.695  13.913  0.00  0.00    +0.000 A 
ATOM     12  O   UNL     1       5.741   3.261  15.051  0.00  0.00    +0.000 OA
ENDBRANCH   5   8
BRANCH   6  13
ATOM     13  C   UNL     1       6.250   5.251  18.576  0.00  0.00    +0.000 A 
ATOM     14  C   UNL     1       6.740   6.438  18.066  0.00  0.00    +0.000 A 
ATOM     15  C   UNL     1       7.960   6.708  18.735  0.00  0.00    +0.000 A 
ATOM     16  C   UNL     1       8.115   5.708  19.659  0.00  0.00    +0.000 A 
ATOM     17  O   UNL     1       7.086   4.824  19.587  0.00  0.00    +0.000 OA
ENDBRANCH   6  13
ENDBRANCH   1   2
BRANCH   1  18
ATOM     18  C   UNL     1       2.299   3.578  21.683  0.00  0.00    +0.000 C 
BRANCH  18  20
ATOM     19  N   UNL     1       2.233   5.932  21.035  0.00  0.00    +0.000 N 
ATOM     20  C   UNL     1       1.605   4.698  20.930  0.00  0.00    +0.000 C 
ATOM     21  O   UNL     1       0.550   4.488  20.332  0.00  0.00    +0.000 OA
ATOM     22  H   UNL     1       3.007   6.020  21.684  0.00  0.00    +0.000 HD
BRANCH  19  26
ATOM     23  C   UNL     1       1.181   9.551  19.129  0.00  0.00    +0.000 A 
ATOM     24  C   UNL     1       0.625   9.221  20.371  0.00  0.00    +0.000 A 
ATOM     25  C   UNL     1       0.952   8.025  21.007  0.00  0.00    +0.000 A 
ATOM     26  C   UNL     1       1.804   7.113  20.396  0.00  0.00    +0.000 A 
ATOM     27  C   UNL     1       2.249   7.375  19.097  0.00  0.00    +0.000 A 
ATOM     28  C   UNL     1       1.958   8.594  18.456  0.00  0.00    +0.000 A 
BRANCH  23  30
ATOM     29  C   UNL     1       2.027  11.723  18.730  0.00  0.00    +0.000 C 
ATOM     30  O   UNL     1       0.962  10.783  18.569  0.00  0.00    +0.000 OA
ENDBRANCH  23  30
BRANCH  28  31
ATOM     31  O   UNL     1       2.535   8.676  17.215  0.00  0.00    +0.000 OA
ATOM     32  C   UNL     1       3.536   7.736  16.856  0.00  0.00    +0.000 C 
ENDBRANCH  28  31
ENDBRANCH  19  26
ENDBRANCH  18  20
ENDBRANCH   1  18
TORSDOF 8
ENDMDL
MODEL 7
REMARK VINA RESULT:      -7.3      1.136      2.004
REMARK  Name = 
REMARK  10 active torsions:
REMARK  status: ('A' for Active; 'I' for Inactive)
REMARK    1  A    between atoms: C_1  and  O_2
REMARK    2  A    between atoms: O_2  and  C_3
REMARK    3  A    between atoms: C_6  and  N_7
REMARK    4  A    between atoms: C_8  and  C_10
REMARK    5  A    between atoms: C_10  and  S_11
REMARK    6  A    between atoms: S_11  and  C_12
REMARK    7  A    between atoms: C_15  and  C_16
REMARK    8  A    between atoms: C_21  and  C_22
REMARK    9  A    between atoms: C_29  and  O_30
REMARK   10  A    between atoms: O_30  and  C_31
REMARK                            x       y       z     vdW  Elec       q    Type
REMARK                         _______ _______ _______ _____ _____    ______ ____
ROOT
ATOM      1  S   UNL     1       3.041   2.172  19.355  0.00  0.00    +0.000 S 
ENDROOT
BRANCH   1   2
ATOM      2  C   UNL     1       4.417   3.203  18.924  0.00  0.00    +0.000 A 
ATOM      3  N   UNL     1       5.007   3.882  19.931  0.00  0.00    +0.000 NA
ATOM      4  N   UNL     1       5.909   4.866  19.646  0.00  0.00    +0.000 NA
ATOM      5  C   UNL     1       6.191   5.144  18.356  0.00  0.00    +0.000 A 
ATOM      6  C   UNL     1       5.637   4.354  17.356  0.00  0.00    +0.000 A 
ATOM      7  N   UNL     1       4.723   3.381  17.630  0.00  0.00    +0.000 NA
BRANCH   5   8
ATOM      8  C   UNL     1       6.972   6.354  18.174  0.00  0.00    +0.000 A 
ATOM      9  C   UNL     1       8.160   6.830  18.697  0.00  0.00    +0.000 A 
ATOM     10  C   UNL     1       8.355   8.126  18.155  0.00  0.00    +0.000 A 
ATOM     11  C   UNL     1       7.263   8.376  17.360  0.00  0.00    +0.000 A 
ATOM     12  O   UNL     1       6.411   7.323  17.387  0.00  0.00    +0.000 OA
ENDBRANCH   5   8
BRANCH   6  13
ATOM     13  C   UNL     1       5.973   4.464  15.939  0.00  0.00    +0.000 A 
ATOM     14  C   UNL     1       5.279   4.318  14.753  0.00  0.00    +0.000 A 
ATOM     15  C   UNL     1       6.216   4.473  13.700  0.00  0.00    +0.000 A 
ATOM     16  C   UNL     1       7.414   4.768  14.298  0.00  0.00    +0.000 A 
ATOM     17  O   UNL     1       7.285   4.779  15.650  0.00  0.00    +0.000 OA
ENDBRANCH   6  13
ENDBRANCH   1   2
BRANCH   1  18
ATOM     18  C   UNL     1       2.501   2.971  20.897  0.00  0.00    +0.000 C 
BRANCH  18  20
ATOM     19  N   UNL     1       2.322   5.407  20.872  0.00  0.00    +0.000 N 
ATOM     20  C   UNL     1       1.682   4.210  20.581  0.00  0.00    +0.000 C 
ATOM     21  O   UNL     1       0.534   4.105  20.150  0.00  0.00    +0.000 OA
ATOM     22  H   UNL     1       3.203   5.368  21.372  0.00  0.00    +0.000 HD
BRANCH  19  26
ATOM     23  C   UNL     1       0.942   9.338  20.179  0.00  0.00    +0.000 A 
ATOM     24  C   UNL     1       0.466   8.606  21.273  0.00  0.00    +0.000 A 
ATOM     25  C   UNL     1       0.902   7.304  21.509  0.00  0.00    +0.000 A 
ATOM     26  C   UNL     1       1.786   6.688  20.631  0.00  0.00    +0.000 A 
ATOM     27  C   UNL     1       2.153   7.363  19.463  0.00  0.00    +0.000 A 
ATOM     28  C   UNL     1       1.750   8.691  19.229  0.00  0.00    +0.000 A 
BRANCH  23  30
ATOM     29  C   UNL     1      -0.512  11.101  20.784  0.00  0.00    +0.000 C 
ATOM     30  O   UNL     1       0.614  10.659  20.024  0.00  0.00    +0.000 OA
ENDBRANCH  23  30
BRANCH  28  31
ATOM     31  O   UNL     1       2.264   9.188  18.059  0.00  0.00    +0.000 OA
ATOM     32  C   UNL     1       3.050   8.340  17.235  0.00  0.00    +0.000 C 
ENDBRANCH  28  31
ENDBRANCH  19  26
ENDBRANCH  18  20
ENDBRANCH   1  18
TORSDOF 8
ENDMDL
MODEL 8
REMARK VINA RESULT:      -7.0      3.860      7.984
REMARK  Name = 
REMARK  10 active torsions:
REMARK  status: ('A' for Active; 'I' for Inactive)
REMARK    1  A    between atoms: C_1  and  O_2
REMARK    2  A    between atoms: O_2  and  C_3
REMARK    3  A    between atoms: C_6  and  N_7
REMARK    4  A    between atoms: C_8  and  C_10
REMARK    5  A    between atoms: C_10  and  S_11
REMARK    6  A    between atoms: S_11  and  C_12
REMARK    7  A    between atoms: C_15  and  C_16
REMARK    8  A    between atoms: C_21  and  C_22
REMARK    9  A    between atoms: C_29  and  O_30
REMARK   10  A    between atoms: O_30  and  C_31
REMARK                            x       y       z     vdW  Elec       q    Type
REMARK                         _______ _______ _______ _____ _____    ______ ____
ROOT
ATOM      1  S   UNL     1       7.540   5.822  17.614  0.00  0.00    +0.000 S 
ENDROOT
BRANCH   1   2
ATOM      2  C   UNL     1       5.994   5.448  18.398  0.00  0.00    +0.000 A 
ATOM      3  N   UNL     1       5.822   4.180  18.828  0.00  0.00    +0.000 NA
ATOM      4  N   UNL     1       4.584   3.762  19.223  0.00  0.00    +0.000 NA
ATOM      5  C   UNL     1       3.552   4.630  19.170  0.00  0.00    +0.000 A 
ATOM      6  C   UNL     1       3.794   5.951  18.817  0.00  0.00    +0.000 A 
ATOM      7  N   UNL     1       5.023   6.373  18.406  0.00  0.00    +0.000 NA
BRANCH   5   8
ATOM      8  C   UNL     1       2.255   4.011  19.383  0.00  0.00    +0.000 A 
ATOM      9  C   UNL     1       1.329   4.027  20.409  0.00  0.00    +0.000 A 
ATOM     10  C   UNL     1       0.278   3.154  20.026  0.00  0.00    +0.000 A 
ATOM     11  C   UNL     1       0.639   2.635  18.806  0.00  0.00    +0.000 A 
ATOM     12  O   UNL     1       1.843   3.127  18.424  0.00  0.00    +0.000 OA
ENDBRANCH   5   8
BRANCH   6  13
ATOM     13  C   UNL     1       2.791   7.012  18.859  0.00  0.00    +0.000 A 
ATOM     14  C   UNL     1       2.180   7.821  17.921  0.00  0.00    +0.000 A 
ATOM     15  C   UNL     1       1.346   8.724  18.627  0.00  0.00    +0.000 A 
ATOM     16  C   UNL     1       1.443   8.374  19.949  0.00  0.00    +0.000 A 
ATOM     17  O   UNL     1       2.302   7.334  20.108  0.00  0.00    +0.000 OA
ENDBRANCH   6  13
ENDBRANCH   1   2
BRANCH   1  18
ATOM     18  C   UNL     1       7.300   7.585  17.237  0.00  0.00    +0.000 C 
BRANCH  18  20
ATOM     19  N   UNL     1       8.208   9.783  17.795  0.00  0.00    +0.000 N 
ATOM     20  C   UNL     1       8.210   8.431  18.110  0.00  0.00    +0.000 C 
ATOM     21  O   UNL     1       8.905   7.906  18.979  0.00  0.00    +0.000 OA
ATOM     22  H   UNL     1       7.718  10.077  16.957  0.00  0.00    +0.000 HD
BRANCH  19  26
ATOM     23  C   UNL     1      10.591  12.684  19.729  0.00  0.00    +0.000 A 
ATOM     24  C   UNL     1      10.006  11.647  20.466  0.00  0.00    +0.000 A 
ATOM     25  C   UNL     1       9.207  10.689  19.845  0.00  0.00    +0.000 A 
ATOM     26  C   UNL     1       8.937  10.773  18.484  0.00  0.00    +0.000 A 
ATOM     27  C   UNL     1       9.402  11.884  17.773  0.00  0.00    +0.000 A 
ATOM     28  C   UNL     1      10.240  12.840  18.378  0.00  0.00    +0.000 A 
BRANCH  23  30
ATOM     29  C   UNL     1      10.907  14.738  20.857  0.00  0.00    +0.000 C 
ATOM     30  O   UNL     1      11.480  13.546  20.317  0.00  0.00    +0.000 OA
ENDBRANCH  23  30
BRANCH  28  31
ATOM     31  O   UNL     1      10.632  13.814  17.497  0.00  0.00    +0.000 OA
ATOM     32  C   UNL     1      11.731  13.562  16.634  0.00  0.00    +0.000 C 
ENDBRANCH  28  31
ENDBRANCH  19  26
ENDBRANCH  18  20
ENDBRANCH   1  18
TORSDOF 8
ENDMDL
MODEL 9
REMARK VINA RESULT:      -6.9      3.929      7.566
REMARK  Name = 
REMARK  10 active torsions:
REMARK  status: ('A' for Active; 'I' for Inactive)
REMARK    1  A    between atoms: C_1  and  O_2
REMARK    2  A    between atoms: O_2  and  C_3
REMARK    3  A    between atoms: C_6  and  N_7
REMARK    4  A    between atoms: C_8  and  C_10
REMARK    5  A    between atoms: C_10  and  S_11
REMARK    6  A    between atoms: S_11  and  C_12
REMARK    7  A    between atoms: C_15  and  C_16
REMARK    8  A    between atoms: C_21  and  C_22
REMARK    9  A    between atoms: C_29  and  O_30
REMARK   10  A    between atoms: O_30  and  C_31
REMARK                            x       y       z     vdW  Elec       q    Type
REMARK                         _______ _______ _______ _____ _____    ______ ____
ROOT
ATOM      1  S   UNL     1       7.197   6.432  17.061  0.00  0.00    +0.000 S 
ENDROOT
BRANCH   1   2
ATOM      2  C   UNL     1       5.862   5.666  17.941  0.00  0.00    +0.000 A 
ATOM      3  N   UNL     1       5.820   4.317  17.925  0.00  0.00    +0.000 NA
ATOM      4  N   UNL     1       4.705   3.670  18.374  0.00  0.00    +0.000 NA
ATOM      5  C   UNL     1       3.661   4.398  18.824  0.00  0.00    +0.000 A 
ATOM      6  C   UNL     1       3.787   5.778  18.916  0.00  0.00    +0.000 A 
ATOM      7  N   UNL     1       4.890   6.433  18.455  0.00  0.00    +0.000 NA
BRANCH   5   8
ATOM      8  C   UNL     1       2.456   3.618  19.047  0.00  0.00    +0.000 A 
ATOM      9  C   UNL     1       1.343   3.312  18.286  0.00  0.00    +0.000 A 
ATOM     10  C   UNL     1       0.481   2.547  19.112  0.00  0.00    +0.000 A 
ATOM     11  C   UNL     1       1.102   2.458  20.334  0.00  0.00    +0.000 A 
ATOM     12  O   UNL     1       2.282   3.124  20.311  0.00  0.00    +0.000 OA
ENDBRANCH   5   8
BRANCH   6  13
ATOM     13  C   UNL     1       2.788   6.658  19.516  0.00  0.00    +0.000 A 
ATOM     14  C   UNL     1       1.985   6.608  20.639  0.00  0.00    +0.000 A 
ATOM     15  C   UNL     1       1.155   7.757  20.611  0.00  0.00    +0.000 A 
ATOM     16  C   UNL     1       1.541   8.476  19.510  0.00  0.00    +0.000 A 
ATOM     17  O   UNL     1       2.534   7.835  18.841  0.00  0.00    +0.000 OA
ENDBRANCH   6  13
ENDBRANCH   1   2
BRANCH   1  18
ATOM     18  C   UNL     1       8.153   7.121  18.447  0.00  0.00    +0.000 C 
BRANCH  18  20
ATOM     19  N   UNL     1       9.204   9.214  19.139  0.00  0.00    +0.000 N 
ATOM     20  C   UNL     1       8.261   8.629  18.304  0.00  0.00    +0.000 C 
ATOM     21  O   UNL     1       7.519   9.237  17.534  0.00  0.00    +0.000 OA
ATOM     22  H   UNL     1       9.644   8.634  19.844  0.00  0.00    +0.000 HD
BRANCH  19  26
ATOM     23  C   UNL     1       9.898  13.379  19.244  0.00  0.00    +0.000 A 
ATOM     24  C   UNL     1      10.207  12.642  18.095  0.00  0.00    +0.000 A 
ATOM     25  C   UNL     1       9.995  11.265  18.048  0.00  0.00    +0.000 A 
ATOM     26  C   UNL     1       9.516  10.589  19.163  0.00  0.00    +0.000 A 
ATOM     27  C   UNL     1       9.341  11.298  20.356  0.00  0.00    +0.000 A 
ATOM     28  C   UNL     1       9.515  12.694  20.409  0.00  0.00    +0.000 A 
BRANCH  23  30
ATOM     29  C   UNL     1       8.988  15.418  18.466  0.00  0.00    +0.000 C 
ATOM     30  O   UNL     1       9.983  14.747  19.243  0.00  0.00    +0.000 OA
ENDBRANCH  23  30
BRANCH  28  31
ATOM     31  O   UNL     1       9.238  13.202  21.651  0.00  0.00    +0.000 OA
ATOM     32  C   UNL     1       8.352  12.493  22.505  0.00  0.00    +0.000 C 
ENDBRANCH  28  31
ENDBRANCH  19  26
ENDBRANCH  18  20
ENDBRANCH   1  18
TORSDOF 8
ENDMDL
