MODEL 1
REMARK VINA RESULT:      -7.1      0.000      0.000
REMARK  Name = 
REMARK  6 active torsions:
REMARK  status: ('A' for Active; 'I' for Inactive)
REMARK    1  A    between atoms: C_1  and  O_2
REMARK    2  A    between atoms: O_2  and  C_3
REMARK    3  A    between atoms: C_8  and  C_9
REMARK    4  A    between atoms: C_9  and  C_11
REMARK    5  A    between atoms: C_12  and  C_13
REMARK    6  A    between atoms: C_16  and  C_17
REMARK                            x       y       z     vdW  Elec       q    Type
REMARK                         _______ _______ _______ _____ _____    ______ ____
ROOT
ATOM      1  C   UNL     1       3.904   3.820  17.949  0.00  0.00    +0.000 C 
ATOM      2  O   UNL     1       3.801   2.687  18.415  0.00  0.00    +0.000 OA
ENDROOT
BRANCH   1   8
ATOM      3  C   UNL     1       6.348   4.507  17.544  0.00  0.00    +0.000 A 
ATOM      4  C   UNL     1       7.317   4.917  16.610  0.00  0.00    +0.000 A 
ATOM      5  C   UNL     1       7.045   4.916  15.241  0.00  0.00    +0.000 A 
ATOM      6  C   UNL     1       5.800   4.511  14.779  0.00  0.00    +0.000 A 
ATOM      7  C   UNL     1       4.817   4.136  15.694  0.00  0.00    +0.000 A 
ATOM      8  C   UNL     1       5.073   4.139  17.079  0.00  0.00    +0.000 A 
BRANCH   3  10
ATOM      9  C   UNL     1       7.311   5.636  19.398  0.00  0.00    +0.000 C 
ATOM     10  O   UNL     1       6.580   4.516  18.895  0.00  0.00    +0.000 OA
ENDBRANCH   3  10
ENDBRANCH   1   8
BRANCH   1  11
ATOM     11  C   UNL     1       2.930   4.884  18.318  0.00  0.00    +0.000 C 
ATOM     12  C   UNL     1       3.362   6.154  18.387  0.00  0.00    +0.000 C 
BRANCH  12  13
ATOM     13  C   UNL     1       2.517   7.326  18.663  0.00  0.00    +0.000 A 
ATOM     14  C   UNL     1       2.025   7.525  19.960  0.00  0.00    +0.000 A 
ATOM     15  C   UNL     1       1.268   8.663  20.274  0.00  0.00    +0.000 A 
ATOM     16  C   UNL     1       1.011   9.624  19.292  0.00  0.00    +0.000 A 
ATOM     17  C   UNL     1       1.516   9.443  18.002  0.00  0.00    +0.000 A 
ATOM     18  C   UNL     1       2.268   8.303  17.691  0.00  0.00    +0.000 A 
BRANCH  16  19
ATOM     19  C   UNL     1       0.243  10.793  19.608  0.00  0.00    +0.000 C 
ATOM     20  N   UNL     1      -0.378  11.743  19.859  0.00  0.00    +0.000 NA
ENDBRANCH  16  19
ENDBRANCH  12  13
ENDBRANCH   1  11
TORSDOF 5
ENDMDL
MODEL 2
REMARK VINA RESULT:      -7.1      0.232      1.102
REMARK  Name = 
REMARK  6 active torsions:
REMARK  status: ('A' for Active; 'I' for Inactive)
REMARK    1  A    between atoms: C_1  and  O_2
REMARK    2  A    between atoms: O_2  and  C_3
REMARK    3  A    between atoms: C_8  and  C_9
REMARK    4  A    between atoms: C_9  and  C_11
REMARK    5  A    between atoms: C_12  and  C_13
REMARK    6  A    between atoms: C_16  and  C_17
REMARK                            x       y       z     vdW  Elec       q    Type
REMARK                         _______ _______ _______ _____ _____    ______ ____
ROOT
ATOM      1  C   UNL     1       4.016   3.874  18.105  0.00  0.00    +0.000 C 
ATOM      2  O   UNL     1       3.714   2.710  18.364  0.00  0.00    +0.000 OA
ENDROOT
BRANCH   1   8
ATOM      3  C   UNL     1       6.442   4.530  17.564  0.00  0.00    +0.000 A 
ATOM      4  C   UNL     1       7.374   4.877  16.570  0.00  0.00    +0.000 A 
ATOM      5  C   UNL     1       7.051   4.787  15.214  0.00  0.00    +0.000 A 
ATOM      6  C   UNL     1       5.790   4.354  14.827  0.00  0.00    +0.000 A 
ATOM      7  C   UNL     1       4.843   4.041  15.801  0.00  0.00    +0.000 A 
ATOM      8  C   UNL     1       5.150   4.134  17.173  0.00  0.00    +0.000 A 
BRANCH   3  10
ATOM      9  C   UNL     1       7.525   5.743  19.294  0.00  0.00    +0.000 C 
ATOM     10  O   UNL     1       6.725   4.627  18.901  0.00  0.00    +0.000 OA
ENDBRANCH   3  10
ENDBRANCH   1   8
BRANCH   1  11
ATOM     11  C   UNL     1       3.323   5.007  18.779  0.00  0.00    +0.000 C 
ATOM     12  C   UNL     1       3.225   6.178  18.128  0.00  0.00    +0.000 C 
BRANCH  12  13
ATOM     13  C   UNL     1       2.512   7.367  18.620  0.00  0.00    +0.000 A 
ATOM     14  C   UNL     1       2.191   8.394  17.722  0.00  0.00    +0.000 A 
ATOM     15  C   UNL     1       1.457   9.512  18.143  0.00  0.00    +0.000 A 
ATOM     16  C   UNL     1       1.021   9.604  19.468  0.00  0.00    +0.000 A 
ATOM     17  C   UNL     1       1.320   8.574  20.364  0.00  0.00    +0.000 A 
ATOM     18  C   UNL     1       2.056   7.460  19.941  0.00  0.00    +0.000 A 
BRANCH  16  19
ATOM     19  C   UNL     1       0.266  10.742  19.904  0.00  0.00    +0.000 C 
ATOM     20  N   UNL     1      -0.345  11.667  20.252  0.00  0.00    +0.000 NA
ENDBRANCH  16  19
ENDBRANCH  12  13
ENDBRANCH   1  11
TORSDOF 5
ENDMDL
MODEL 3
REMARK VINA RESULT:      -6.7      5.273      6.615
REMARK  Name = 
REMARK  6 active torsions:
REMARK  status: ('A' for Active; 'I' for Inactive)
REMARK    1  A    between atoms: C_1  and  O_2
REMARK    2  A    between atoms: O_2  and  C_3
REMARK    3  A    between atoms: C_8  and  C_9
REMARK    4  A    between atoms: C_9  and  C_11
REMARK    5  A    between atoms: C_12  and  C_13
REMARK    6  A    between atoms: C_16  and  C_17
REMARK                            x       y       z     vdW  Elec       q    Type
REMARK                         _______ _______ _______ _____ _____    ______ ____
ROOT
ATOM      1  C   UNL     1       7.546   6.865  17.941  0.00  0.00    +0.000 C 
ATOM      2  O   UNL     1       7.997   6.341  18.958  0.00  0.00    +0.000 OA
ENDROOT
BRANCH   1   8
ATOM      3  C   UNL     1       5.395   5.664  17.205  0.00  0.00    +0.000 A 
ATOM      4  C   UNL     1       4.798   4.764  16.304  0.00  0.00    +0.000 A 
ATOM      5  C   UNL     1       5.499   4.278  15.198  0.00  0.00    +0.000 A 
ATOM      6  C   UNL     1       6.809   4.680  14.974  0.00  0.00    +0.000 A 
ATOM      7  C   UNL     1       7.427   5.544  15.877  0.00  0.00    +0.000 A 
ATOM      8  C   UNL     1       6.736   6.036  17.002  0.00  0.00    +0.000 A 
BRANCH   3  10
ATOM      9  C   UNL     1       4.451   5.185  19.330  0.00  0.00    +0.000 C 
ATOM     10  O   UNL     1       4.738   6.141  18.309  0.00  0.00    +0.000 OA
ENDBRANCH   3  10
ENDBRANCH   1   8
BRANCH   1  11
ATOM     11  C   UNL     1       7.875   8.277  17.602  0.00  0.00    +0.000 C 
ATOM     12  C   UNL     1       8.534   9.018  18.510  0.00  0.00    +0.000 C 
BRANCH  12  13
ATOM     13  C   UNL     1       8.998  10.399  18.304  0.00  0.00    +0.000 A 
ATOM     14  C   UNL     1      10.335  10.719  18.574  0.00  0.00    +0.000 A 
ATOM     15  C   UNL     1      10.827  12.010  18.330  0.00  0.00    +0.000 A 
ATOM     16  C   UNL     1       9.984  12.990  17.797  0.00  0.00    +0.000 A 
ATOM     17  C   UNL     1       8.655  12.671  17.506  0.00  0.00    +0.000 A 
ATOM     18  C   UNL     1       8.167  11.382  17.755  0.00  0.00    +0.000 A 
BRANCH  16  19
ATOM     19  C   UNL     1      10.482  14.309  17.540  0.00  0.00    +0.000 C 
ATOM     20  N   UNL     1      10.891  15.378  17.330  0.00  0.00    +0.000 NA
ENDBRANCH  16  19
ENDBRANCH  12  13
ENDBRANCH   1  11
TORSDOF 5
ENDMDL
MODEL 4
REMARK VINA RESULT:      -6.7      5.150      6.462
REMARK  Name = 
REMARK  6 active torsions:
REMARK  status: ('A' for Active; 'I' for Inactive)
REMARK    1  A    between atoms: C_1  and  O_2
REMARK    2  A    between atoms: O_2  and  C_3
REMARK    3  A    between atoms: C_8  and  C_9
REMARK    4  A    between atoms: C_9  and  C_11
REMARK    5  A    between atoms: C_12  and  C_13
REMARK    6  A    between atoms: C_16  and  C_17
REMARK                            x       y       z     vdW  Elec       q    Type
REMARK                         _______ _______ _______ _____ _____    ______ ____
ROOT
ATOM      1  C   UNL     1       7.538   6.814  18.013  0.00  0.00    +0.000 C 
ATOM      2  O   UNL     1       8.104   6.255  18.950  0.00  0.00    +0.000 OA
ENDROOT
BRANCH   1   8
ATOM      3  C   UNL     1       5.331   5.712  17.291  0.00  0.00    +0.000 A 
ATOM      4  C   UNL     1       4.695   4.816  16.413  0.00  0.00    +0.000 A 
ATOM      5  C   UNL     1       5.378   4.256  15.331  0.00  0.00    +0.000 A 
ATOM      6  C   UNL     1       6.710   4.577  15.110  0.00  0.00    +0.000 A 
ATOM      7  C   UNL     1       7.366   5.435  15.991  0.00  0.00    +0.000 A 
ATOM      8  C   UNL     1       6.693   6.001  17.092  0.00  0.00    +0.000 A 
BRANCH   3  10
ATOM      9  C   UNL     1       4.244   5.341  19.368  0.00  0.00    +0.000 C 
ATOM     10  O   UNL     1       4.691   6.260  18.371  0.00  0.00    +0.000 OA
ENDBRANCH   3  10
ENDBRANCH   1   8
BRANCH   1  11
ATOM     11  C   UNL     1       7.763   8.262  17.744  0.00  0.00    +0.000 C 
ATOM     12  C   UNL     1       8.600   8.941  18.546  0.00  0.00    +0.000 C 
BRANCH  12  13
ATOM     13  C   UNL     1       8.986  10.350  18.374  0.00  0.00    +0.000 A 
ATOM     14  C   UNL     1       8.163  11.199  17.621  0.00  0.00    +0.000 A 
ATOM     15  C   UNL     1       8.467  12.561  17.488  0.00  0.00    +0.000 A 
ATOM     16  C   UNL     1       9.594  13.092  18.123  0.00  0.00    +0.000 A 
ATOM     17  C   UNL     1      10.407  12.255  18.893  0.00  0.00    +0.000 A 
ATOM     18  C   UNL     1      10.102  10.895  19.020  0.00  0.00    +0.000 A 
BRANCH  16  19
ATOM     19  C   UNL     1       9.907  14.484  17.996  0.00  0.00    +0.000 C 
ATOM     20  N   UNL     1      10.167  15.613  17.891  0.00  0.00    +0.000 NA
ENDBRANCH  16  19
ENDBRANCH  12  13
ENDBRANCH   1  11
TORSDOF 5
ENDMDL
MODEL 5
REMARK VINA RESULT:      -6.7      1.014      1.729
REMARK  Name = 
REMARK  6 active torsions:
REMARK  status: ('A' for Active; 'I' for Inactive)
REMARK    1  A    between atoms: C_1  and  O_2
REMARK    2  A    between atoms: O_2  and  C_3
REMARK    3  A    between atoms: C_8  and  C_9
REMARK    4  A    between atoms: C_9  and  C_11
REMARK    5  A    between atoms: C_12  and  C_13
REMARK    6  A    between atoms: C_16  and  C_17
REMARK                            x       y       z     vdW  Elec       q    Type
REMARK                         _______ _______ _______ _____ _____    ______ ____
ROOT
ATOM      1  C   UNL     1       2.932   4.073  17.360  0.00  0.00    +0.000 C 
ATOM      2  O   UNL     1       2.374   3.004  17.118  0.00  0.00    +0.000 OA
ENDROOT
BRANCH   1   8
ATOM      3  C   UNL     1       5.349   4.110  18.235  0.00  0.00    +0.000 A 
ATOM      4  C   UNL     1       6.703   4.357  17.943  0.00  0.00    +0.000 A 
ATOM      5  C   UNL     1       7.126   4.610  16.637  0.00  0.00    +0.000 A 
ATOM      6  C   UNL     1       6.205   4.626  15.599  0.00  0.00    +0.000 A 
ATOM      7  C   UNL     1       4.854   4.419  15.875  0.00  0.00    +0.000 A 
ATOM      8  C   UNL     1       4.410   4.170  17.189  0.00  0.00    +0.000 A 
BRANCH   3  10
ATOM      9  C   UNL     1       4.574   2.524  19.822  0.00  0.00    +0.000 C 
ATOM     10  O   UNL     1       4.903   3.879  19.509  0.00  0.00    +0.000 OA
ENDBRANCH   3  10
ENDBRANCH   1   8
BRANCH   1  11
ATOM     11  C   UNL     1       2.162   5.226  17.903  0.00  0.00    +0.000 C 
ATOM     12  C   UNL     1       2.832   6.332  18.268  0.00  0.00    +0.000 C 
BRANCH  12  13
ATOM     13  C   UNL     1       2.218   7.578  18.751  0.00  0.00    +0.000 A 
ATOM     14  C   UNL     1       1.940   8.604  17.837  0.00  0.00    +0.000 A 
ATOM     15  C   UNL     1       1.299   9.780  18.250  0.00  0.00    +0.000 A 
ATOM     16  C   UNL     1       0.912   9.933  19.585  0.00  0.00    +0.000 A 
ATOM     17  C   UNL     1       1.167   8.906  20.498  0.00  0.00    +0.000 A 
ATOM     18  C   UNL     1       1.812   7.734  20.081  0.00  0.00    +0.000 A 
BRANCH  16  19
ATOM     19  C   UNL     1       0.251  11.130  20.013  0.00  0.00    +0.000 C 
ATOM     20  N   UNL     1      -0.290  12.099  20.360  0.00  0.00    +0.000 NA
ENDBRANCH  16  19
ENDBRANCH  12  13
ENDBRANCH   1  11
TORSDOF 5
ENDMDL
MODEL 6
REMARK VINA RESULT:      -6.6      2.266      3.733
REMARK  Name = 
REMARK  6 active torsions:
REMARK  status: ('A' for Active; 'I' for Inactive)
REMARK    1  A    between atoms: C_1  and  O_2
REMARK    2  A    between atoms: O_2  and  C_3
REMARK    3  A    between atoms: C_8  and  C_9
REMARK    4  A    between atoms: C_9  and  C_11
REMARK    5  A    between atoms: C_12  and  C_13
REMARK    6  A    between atoms: C_16  and  C_17
REMARK                            x       y       z     vdW  Elec       q    Type
REMARK                         _______ _______ _______ _____ _____    ______ ____
ROOT
ATOM      1  C   UNL     1       3.109   6.907  18.003  0.00  0.00    +0.000 C 
ATOM      2  O   UNL     1       3.921   7.246  17.145  0.00  0.00    +0.000 OA
ENDROOT
BRANCH   1   8
ATOM      3  C   UNL     1       3.942   4.763  19.152  0.00  0.00    +0.000 A 
ATOM      4  C   UNL     1       3.792   3.372  19.301  0.00  0.00    +0.000 A 
ATOM      5  C   UNL     1       2.711   2.698  18.729  0.00  0.00    +0.000 A 
ATOM      6  C   UNL     1       1.765   3.398  17.994  0.00  0.00    +0.000 A 
ATOM      7  C   UNL     1       1.918   4.771  17.806  0.00  0.00    +0.000 A 
ATOM      8  C   UNL     1       3.007   5.465  18.370  0.00  0.00    +0.000 A 
BRANCH   3  10
ATOM      9  C   UNL     1       6.239   5.337  18.980  0.00  0.00    +0.000 C 
ATOM     10  O   UNL     1       5.002   5.448  19.685  0.00  0.00    +0.000 OA
ENDBRANCH   3  10
ENDBRANCH   1   8
BRANCH   1  11
ATOM     11  C   UNL     1       2.178   7.901  18.604  0.00  0.00    +0.000 C 
ATOM     12  C   UNL     1       1.972   7.869  19.931  0.00  0.00    +0.000 C 
BRANCH  12  13
ATOM     13  C   UNL     1       1.145   8.822  20.687  0.00  0.00    +0.000 A 
ATOM     14  C   UNL     1       0.415   9.796  19.993  0.00  0.00    +0.000 A 
ATOM     15  C   UNL     1      -0.432  10.681  20.675  0.00  0.00    +0.000 A 
ATOM     16  C   UNL     1      -0.569  10.587  22.064  0.00  0.00    +0.000 A 
ATOM     17  C   UNL     1       0.140   9.605  22.760  0.00  0.00    +0.000 A 
ATOM     18  C   UNL     1       0.988   8.725  22.075  0.00  0.00    +0.000 A 
BRANCH  16  19
ATOM     19  C   UNL     1      -1.437  11.485  22.767  0.00  0.00    +0.000 C 
ATOM     20  N   UNL     1      -2.145  12.209  23.338  0.00  0.00    +0.000 NA
ENDBRANCH  16  19
ENDBRANCH  12  13
ENDBRANCH   1  11
TORSDOF 5
ENDMDL
MODEL 7
REMARK VINA RESULT:      -6.6      2.166      3.239
REMARK  Name = 
REMARK  6 active torsions:
REMARK  status: ('A' for Active; 'I' for Inactive)
REMARK    1  A    between atoms: C_1  and  O_2
REMARK    2  A    between atoms: O_2  and  C_3
REMARK    3  A    between atoms: C_8  and  C_9
REMARK    4  A    between atoms: C_9  and  C_11
REMARK    5  A    between atoms: C_12  and  C_13
REMARK    6  A    between atoms: C_16  and  C_17
REMARK                            x       y       z     vdW  Elec       q    Type
REMARK                         _______ _______ _______ _____ _____    ______ ____
ROOT
ATOM      1  C   UNL     1       3.479   6.649  17.833  0.00  0.00    +0.000 C 
ATOM      2  O   UNL     1       4.273   6.978  16.954  0.00  0.00    +0.000 OA
ENDROOT
BRANCH   1   8
ATOM      3  C   UNL     1       4.396   4.630  19.135  0.00  0.00    +0.000 A 
ATOM      4  C   UNL     1       4.321   3.244  19.363  0.00  0.00    +0.000 A 
ATOM      5  C   UNL     1       3.303   2.473  18.799  0.00  0.00    +0.000 A 
ATOM      6  C   UNL     1       2.343   3.070  17.994  0.00  0.00    +0.000 A 
ATOM      7  C   UNL     1       2.422   4.437  17.729  0.00  0.00    +0.000 A 
ATOM      8  C   UNL     1       3.449   5.227  18.283  0.00  0.00    +0.000 A 
BRANCH   3  10
ATOM      9  C   UNL     1       6.661   5.326  19.003  0.00  0.00    +0.000 C 
ATOM     10  O   UNL     1       5.395   5.407  19.658  0.00  0.00    +0.000 OA
ENDBRANCH   3  10
ENDBRANCH   1   8
BRANCH   1  11
ATOM     11  C   UNL     1       2.499   7.629  18.378  0.00  0.00    +0.000 C 
ATOM     12  C   UNL     1       2.178   7.560  19.681  0.00  0.00    +0.000 C 
BRANCH  12  13
ATOM     13  C   UNL     1       1.289   8.495  20.387  0.00  0.00    +0.000 A 
ATOM     14  C   UNL     1       1.140   8.382  21.776  0.00  0.00    +0.000 A 
ATOM     15  C   UNL     1       0.350   9.294  22.490  0.00  0.00    +0.000 A 
ATOM     16  C   UNL     1      -0.287  10.341  21.820  0.00  0.00    +0.000 A 
ATOM     17  C   UNL     1      -0.127  10.473  20.438  0.00  0.00    +0.000 A 
ATOM     18  C   UNL     1       0.660   9.557  19.727  0.00  0.00    +0.000 A 
BRANCH  16  19
ATOM     19  C   UNL     1      -1.092  11.280  22.544  0.00  0.00    +0.000 C 
ATOM     20  N   UNL     1      -1.742  12.047  23.130  0.00  0.00    +0.000 NA
ENDBRANCH  16  19
ENDBRANCH  12  13
ENDBRANCH   1  11
TORSDOF 5
ENDMDL
MODEL 8
REMARK VINA RESULT:      -6.6      1.459      2.482
REMARK  Name = 
REMARK  6 active torsions:
REMARK  status: ('A' for Active; 'I' for Inactive)
REMARK    1  A    between atoms: C_1  and  O_2
REMARK    2  A    between atoms: O_2  and  C_3
REMARK    3  A    between atoms: C_8  and  C_9
REMARK    4  A    between atoms: C_9  and  C_11
REMARK    5  A    between atoms: C_12  and  C_13
REMARK    6  A    between atoms: C_16  and  C_17
REMARK                            x       y       z     vdW  Elec       q    Type
REMARK                         _______ _______ _______ _____ _____    ______ ____
ROOT
ATOM      1  C   UNL     1       3.661   5.209  17.756  0.00  0.00    +0.000 C 
ATOM      2  O   UNL     1       3.378   4.167  17.168  0.00  0.00    +0.000 OA
ENDROOT
BRANCH   1   8
ATOM      3  C   UNL     1       5.945   6.055  16.935  0.00  0.00    +0.000 A 
ATOM      4  C   UNL     1       7.313   6.214  17.220  0.00  0.00    +0.000 A 
ATOM      5  C   UNL     1       7.823   5.941  18.491  0.00  0.00    +0.000 A 
ATOM      6  C   UNL     1       6.977   5.499  19.499  0.00  0.00    +0.000 A 
ATOM      7  C   UNL     1       5.624   5.301  19.223  0.00  0.00    +0.000 A 
ATOM      8  C   UNL     1       5.097   5.564  17.944  0.00  0.00    +0.000 A 
BRANCH   3  10
ATOM      9  C   UNL     1       5.703   5.317  14.692  0.00  0.00    +0.000 C 
ATOM     10  O   UNL     1       5.421   6.296  15.692  0.00  0.00    +0.000 OA
ENDBRANCH   3  10
ENDBRANCH   1   8
BRANCH   1  11
ATOM     11  C   UNL     1       2.593   6.059  18.351  0.00  0.00    +0.000 C 
ATOM     12  C   UNL     1       2.754   7.393  18.342  0.00  0.00    +0.000 C 
BRANCH  12  13
ATOM     13  C   UNL     1       1.766   8.372  18.821  0.00  0.00    +0.000 A 
ATOM     14  C   UNL     1       1.400   8.371  20.173  0.00  0.00    +0.000 A 
ATOM     15  C   UNL     1       0.509   9.330  20.676  0.00  0.00    +0.000 A 
ATOM     16  C   UNL     1      -0.013  10.312  19.829  0.00  0.00    +0.000 A 
ATOM     17  C   UNL     1       0.364  10.332  18.484  0.00  0.00    +0.000 A 
ATOM     18  C   UNL     1       1.251   9.370  17.984  0.00  0.00    +0.000 A 
BRANCH  16  19
ATOM     19  C   UNL     1      -0.920  11.298  20.338  0.00  0.00    +0.000 C 
ATOM     20  N   UNL     1      -1.660  12.093  20.753  0.00  0.00    +0.000 NA
ENDBRANCH  16  19
ENDBRANCH  12  13
ENDBRANCH   1  11
TORSDOF 5
ENDMDL
MODEL 9
REMARK VINA RESULT:      -6.5      5.075      6.620
REMARK  Name = 
REMARK  6 active torsions:
REMARK  status: ('A' for Active; 'I' for Inactive)
REMARK    1  A    between atoms: C_1  and  O_2
REMARK    2  A    between atoms: O_2  and  C_3
REMARK    3  A    between atoms: C_8  and  C_9
REMARK    4  A    between atoms: C_9  and  C_11
REMARK    5  A    between atoms: C_12  and  C_13
REMARK    6  A    between atoms: C_16  and  C_17
REMARK                            x       y       z     vdW  Elec       q    Type
REMARK                         _______ _______ _______ _____ _____    ______ ____
ROOT
ATOM      1  C   UNL     1       7.151   7.197  17.187  0.00  0.00    +0.000 C 
ATOM      2  O   UNL     1       7.806   6.678  16.285  0.00  0.00    +0.000 OA
ENDROOT
BRANCH   1   8
ATOM      3  C   UNL     1       6.099   5.281  18.541  0.00  0.00    +0.000 A 
ATOM      4  C   UNL     1       4.922   4.601  18.900  0.00  0.00    +0.000 A 
ATOM      5  C   UNL     1       3.666   5.092  18.538  0.00  0.00    +0.000 A 
ATOM      6  C   UNL     1       3.563   6.268  17.808  0.00  0.00    +0.000 A 
ATOM      7  C   UNL     1       4.722   6.935  17.413  0.00  0.00    +0.000 A 
ATOM      8  C   UNL     1       5.997   6.448  17.762  0.00  0.00    +0.000 A 
BRANCH   3  10
ATOM      9  C   UNL     1       8.032   5.520  19.898  0.00  0.00    +0.000 C 
ATOM     10  O   UNL     1       7.345   4.812  18.865  0.00  0.00    +0.000 OA
ENDBRANCH   3  10
ENDBRANCH   1   8
BRANCH   1  11
ATOM     11  C   UNL     1       7.444   8.586  17.636  0.00  0.00    +0.000 C 
ATOM     12  C   UNL     1       8.569   8.811  18.335  0.00  0.00    +0.000 C 
BRANCH  12  13
ATOM     13  C   UNL     1       9.041  10.129  18.787  0.00  0.00    +0.000 A 
ATOM     14  C   UNL     1       9.333  10.324  20.143  0.00  0.00    +0.000 A 
ATOM     15  C   UNL     1       9.843  11.548  20.599  0.00  0.00    +0.000 A 
ATOM     16  C   UNL     1      10.082  12.586  19.694  0.00  0.00    +0.000 A 
ATOM     17  C   UNL     1       9.812  12.392  18.337  0.00  0.00    +0.000 A 
ATOM     18  C   UNL     1       9.299  11.169  17.886  0.00  0.00    +0.000 A 
BRANCH  16  19
ATOM     19  C   UNL     1      10.608  13.838  20.152  0.00  0.00    +0.000 C 
ATOM     20  N   UNL     1      11.030  14.855  20.526  0.00  0.00    +0.000 NA
ENDBRANCH  16  19
ENDBRANCH  12  13
ENDBRANCH   1  11
TORSDOF 5
ENDMDL
