MODEL 1
REMARK VINA RESULT:      -8.9      0.000      0.000
REMARK  Name = 
REMARK  7 active torsions:
REMARK  status: ('A' for Active; 'I' for Inactive)
REMARK    1  A    between atoms: C_2  and  S_3
REMARK    2  A    between atoms: S_3  and  N_6
REMARK    3  A    between atoms: C_10  and  N_11
REMARK    4  A    between atoms: C_13  and  C_14
REMARK    5  A    between atoms: C_15  and  C_16
REMARK    6  A    between atoms: C_16  and  O_17
REMARK    7  A    between atoms: O_17  and  C_18
REMARK                            x       y       z     vdW  Elec       q    Type
REMARK                         _______ _______ _______ _____ _____    ______ ____
ROOT
ATOM      1  N   UNL     1       2.609   6.332  19.286  0.00  0.00    +0.000 N 
ATOM      2  N   UNL     1       3.704   6.455  18.485  0.00  0.00    +0.000 NA
ATOM      3  C   UNL     1       4.330   5.279  18.640  0.00  0.00    +0.000 A 
ATOM      4  C   UNL     1       3.666   4.412  19.529  0.00  0.00    +0.000 A 
ATOM      5  C   UNL     1       3.813   3.114  20.029  0.00  0.00    +0.000 A 
ATOM      6  N   UNL     1       4.804   2.233  19.637  0.00  0.00    +0.000 N 
ATOM      7  N   UNL     1       2.917   2.671  20.935  0.00  0.00    +0.000 NA
ATOM      8  C   UNL     1       1.902   3.486  21.290  0.00  0.00    +0.000 A 
ATOM      9  N   UNL     1       1.639   4.729  20.845  0.00  0.00    +0.000 NA
ATOM     10  C   UNL     1       2.568   5.137  19.962  0.00  0.00    +0.000 A 
ATOM     11  H   UNL     1       5.644   2.612  19.224  0.00  0.00    +0.000 HD
ATOM     12  H   UNL     1       4.904   1.443  20.262  0.00  0.00    +0.000 HD
ENDROOT
BRANCH   1  17
ATOM     13  N   UNL     1       0.525   9.107  20.840  0.00  0.00    +0.000 NA
ATOM     14  C   UNL     1       0.901  10.209  19.922  0.00  0.00    +0.000 C 
ATOM     15  C   UNL     1       0.958   9.693  18.489  0.00  0.00    +0.000 C 
ATOM     16  C   UNL     1       1.942   8.532  18.356  0.00  0.00    +0.000 C 
ATOM     17  C   UNL     1       1.605   7.399  19.337  0.00  0.00    +0.000 C 
ATOM     18  C   UNL     1       1.436   7.920  20.770  0.00  0.00    +0.000 C 
BRANCH  13  19
ATOM     19  S   UNL     1       0.121   9.606  22.438  0.00  0.00    +0.000 S 
ATOM     20  O   UNL     1       1.363   9.647  23.183  0.00  0.00    +0.000 OA
ATOM     21  O   UNL     1      -0.964   8.753  22.882  0.00  0.00    +0.000 OA
BRANCH  19  23
ATOM     22  C   UNL     1      -1.590  11.635  22.899  0.00  0.00    +0.000 C 
ATOM     23  C   UNL     1      -0.455  11.246  22.299  0.00  0.00    +0.000 C 
ENDBRANCH  19  23
ENDBRANCH  13  19
ENDBRANCH   1  17
BRANCH   3  24
ATOM     24  C   UNL     1       5.548   5.023  17.930  0.00  0.00    +0.000 C 
ATOM     25  C   UNL     1       6.520   4.847  17.249  0.00  0.00    +0.000 C 
BRANCH  25  26
ATOM     26  C   UNL     1       7.702   4.715  16.377  0.00  0.00    +0.000 C 
BRANCH  26  27
ATOM     27  O   UNL     1       7.514   5.472  15.177  0.00  0.00    +0.000 OA
BRANCH  27  28
ATOM     28  C   UNL     1       6.912   4.796  14.144  0.00  0.00    +0.000 A 
ATOM     29  C   UNL     1       7.653   4.707  12.963  0.00  0.00    +0.000 A 
ATOM     30  C   UNL     1       7.134   4.046  11.844  0.00  0.00    +0.000 A 
ATOM     31  C   UNL     1       5.876   3.451  11.909  0.00  0.00    +0.000 A 
ATOM     32  C   UNL     1       5.143   3.513  13.092  0.00  0.00    +0.000 A 
ATOM     33  C   UNL     1       5.659   4.180  14.207  0.00  0.00    +0.000 A 
ENDBRANCH  27  28
ENDBRANCH  26  27
ENDBRANCH  25  26
ENDBRANCH   3  24
TORSDOF 7
ENDMDL
MODEL 2
REMARK VINA RESULT:      -8.6      0.686      1.177
REMARK  Name = 
REMARK  7 active torsions:
REMARK  status: ('A' for Active; 'I' for Inactive)
REMARK    1  A    between atoms: C_2  and  S_3
REMARK    2  A    between atoms: S_3  and  N_6
REMARK    3  A    between atoms: C_10  and  N_11
REMARK    4  A    between atoms: C_13  and  C_14
REMARK    5  A    between atoms: C_15  and  C_16
REMARK    6  A    between atoms: C_16  and  O_17
REMARK    7  A    between atoms: O_17  and  C_18
REMARK                            x       y       z     vdW  Elec       q    Type
REMARK                         _______ _______ _______ _____ _____    ______ ____
ROOT
ATOM      1  N   UNL     1       2.556   6.510  19.123  0.00  0.00    +0.000 N 
ATOM      2  N   UNL     1       3.664   6.583  18.333  0.00  0.00    +0.000 NA
ATOM      3  C   UNL     1       4.280   5.414  18.562  0.00  0.00    +0.000 A 
ATOM      4  C   UNL     1       3.598   4.601  19.488  0.00  0.00    +0.000 A 
ATOM      5  C   UNL     1       3.731   3.332  20.060  0.00  0.00    +0.000 A 
ATOM      6  N   UNL     1       4.722   2.425  19.732  0.00  0.00    +0.000 N 
ATOM      7  N   UNL     1       2.819   2.945  20.977  0.00  0.00    +0.000 NA
ATOM      8  C   UNL     1       1.804   3.784  21.271  0.00  0.00    +0.000 A 
ATOM      9  N   UNL     1       1.555   5.002  20.754  0.00  0.00    +0.000 NA
ATOM     10  C   UNL     1       2.498   5.354  19.863  0.00  0.00    +0.000 A 
ATOM     11  H   UNL     1       5.570   2.776  19.312  0.00  0.00    +0.000 HD
ATOM     12  H   UNL     1       4.808   1.671  20.402  0.00  0.00    +0.000 HD
ENDROOT
BRANCH   1  17
ATOM     13  N   UNL     1       0.793   9.675  20.274  0.00  0.00    +0.000 NA
ATOM     14  C   UNL     1       0.920  10.469  19.028  0.00  0.00    +0.000 C 
ATOM     15  C   UNL     1       0.670   9.575  17.818  0.00  0.00    +0.000 C 
ATOM     16  C   UNL     1       1.634   8.390  17.795  0.00  0.00    +0.000 C 
ATOM     17  C   UNL     1       1.559   7.583  19.100  0.00  0.00    +0.000 C 
ATOM     18  C   UNL     1       1.700   8.485  20.333  0.00  0.00    +0.000 C 
BRANCH  13  19
ATOM     19  S   UNL     1       0.742  10.609  21.720  0.00  0.00    +0.000 S 
ATOM     20  O   UNL     1       1.484  11.825  21.452  0.00  0.00    +0.000 OA
ATOM     21  O   UNL     1       1.151   9.733  22.800  0.00  0.00    +0.000 OA
BRANCH  19  23
ATOM     22  C   UNL     1      -1.468  11.130  23.170  0.00  0.00    +0.000 C 
ATOM     23  C   UNL     1      -0.927  11.060  21.945  0.00  0.00    +0.000 C 
ENDBRANCH  19  23
ENDBRANCH  13  19
ENDBRANCH   1  17
BRANCH   3  24
ATOM     24  C   UNL     1       5.506   5.112  17.884  0.00  0.00    +0.000 C 
ATOM     25  C   UNL     1       6.489   4.898  17.229  0.00  0.00    +0.000 C 
BRANCH  25  26
ATOM     26  C   UNL     1       7.687   4.720  16.389  0.00  0.00    +0.000 C 
BRANCH  26  27
ATOM     27  O   UNL     1       7.570   5.502  15.196  0.00  0.00    +0.000 OA
BRANCH  27  28
ATOM     28  C   UNL     1       7.088   4.833  14.098  0.00  0.00    +0.000 A 
ATOM     29  C   UNL     1       5.839   4.226  14.257  0.00  0.00    +0.000 A 
ATOM     30  C   UNL     1       5.256   3.512  13.205  0.00  0.00    +0.000 A 
ATOM     31  C   UNL     1       5.911   3.418  11.979  0.00  0.00    +0.000 A 
ATOM     32  C   UNL     1       7.145   4.042  11.806  0.00  0.00    +0.000 A 
ATOM     33  C   UNL     1       7.730   4.750  12.859  0.00  0.00    +0.000 A 
ENDBRANCH  27  28
ENDBRANCH  26  27
ENDBRANCH  25  26
ENDBRANCH   3  24
TORSDOF 7
ENDMDL
MODEL 3
REMARK VINA RESULT:      -8.2      0.870      1.280
REMARK  Name = 
REMARK  7 active torsions:
REMARK  status: ('A' for Active; 'I' for Inactive)
REMARK    1  A    between atoms: C_2  and  S_3
REMARK    2  A    between atoms: S_3  and  N_6
REMARK    3  A    between atoms: C_10  and  N_11
REMARK    4  A    between atoms: C_13  and  C_14
REMARK    5  A    between atoms: C_15  and  C_16
REMARK    6  A    between atoms: C_16  and  O_17
REMARK    7  A    between atoms: O_17  and  C_18
REMARK                            x       y       z     vdW  Elec       q    Type
REMARK                         _______ _______ _______ _____ _____    ______ ____
ROOT
ATOM      1  N   UNL     1       2.678   6.641  18.738  0.00  0.00    +0.000 N 
ATOM      2  N   UNL     1       3.608   6.657  17.741  0.00  0.00    +0.000 NA
ATOM      3  C   UNL     1       4.235   5.481  17.890  0.00  0.00    +0.000 A 
ATOM      4  C   UNL     1       3.736   4.719  18.964  0.00  0.00    +0.000 A 
ATOM      5  C   UNL     1       3.956   3.467  19.548  0.00  0.00    +0.000 A 
ATOM      6  N   UNL     1       4.845   2.524  19.066  0.00  0.00    +0.000 N 
ATOM      7  N   UNL     1       3.238   3.136  20.642  0.00  0.00    +0.000 NA
ATOM      8  C   UNL     1       2.318   4.011  21.098  0.00  0.00    +0.000 A 
ATOM      9  N   UNL     1       1.994   5.217  20.593  0.00  0.00    +0.000 NA
ATOM     10  C   UNL     1       2.747   5.514  19.520  0.00  0.00    +0.000 A 
ATOM     11  H   UNL     1       5.599   2.838  18.472  0.00  0.00    +0.000 HD
ATOM     12  H   UNL     1       5.049   1.791  19.734  0.00  0.00    +0.000 HD
ENDROOT
BRANCH   1  17
ATOM     13  N   UNL     1       0.642   9.314  20.516  0.00  0.00    +0.000 NA
ATOM     14  C   UNL     1       1.099  10.494  19.744  0.00  0.00    +0.000 C 
ATOM     15  C   UNL     1       1.197  10.139  18.264  0.00  0.00    +0.000 C 
ATOM     16  C   UNL     1       2.139   8.958  18.039  0.00  0.00    +0.000 C 
ATOM     17  C   UNL     1       1.717   7.738  18.871  0.00  0.00    +0.000 C 
ATOM     18  C   UNL     1       1.508   8.104  20.347  0.00  0.00    +0.000 C 
BRANCH  13  19
ATOM     19  S   UNL     1       0.190   9.649  22.143  0.00  0.00    +0.000 S 
ATOM     20  O   UNL     1       1.421   9.730  22.904  0.00  0.00    +0.000 OA
ATOM     21  O   UNL     1      -0.825   8.679  22.506  0.00  0.00    +0.000 OA
BRANCH  19  23
ATOM     22  C   UNL     1      -1.436  11.602  23.036  0.00  0.00    +0.000 C 
ATOM     23  C   UNL     1      -0.516  11.244  22.129  0.00  0.00    +0.000 C 
ENDBRANCH  19  23
ENDBRANCH  13  19
ENDBRANCH   1  17
BRANCH   3  24
ATOM     24  C   UNL     1       5.296   5.124  16.995  0.00  0.00    +0.000 C 
ATOM     25  C   UNL     1       6.111   4.814  16.170  0.00  0.00    +0.000 C 
BRANCH  25  26
ATOM     26  C   UNL     1       7.071   4.491  15.098  0.00  0.00    +0.000 C 
BRANCH  26  27
ATOM     27  O   UNL     1       6.570   4.947  13.837  0.00  0.00    +0.000 OA
BRANCH  27  28
ATOM     28  C   UNL     1       6.338   3.965  12.907  0.00  0.00    +0.000 A 
ATOM     29  C   UNL     1       4.998   3.748  12.574  0.00  0.00    +0.000 A 
ATOM     30  C   UNL     1       4.646   2.765  11.642  0.00  0.00    +0.000 A 
ATOM     31  C   UNL     1       5.636   2.008  11.022  0.00  0.00    +0.000 A 
ATOM     32  C   UNL     1       6.975   2.236  11.329  0.00  0.00    +0.000 A 
ATOM     33  C   UNL     1       7.327   3.213  12.266  0.00  0.00    +0.000 A 
ENDBRANCH  27  28
ENDBRANCH  26  27
ENDBRANCH  25  26
ENDBRANCH   3  24
TORSDOF 7
ENDMDL
MODEL 4
REMARK VINA RESULT:      -8.0      7.564      9.078
REMARK  Name = 
REMARK  7 active torsions:
REMARK  status: ('A' for Active; 'I' for Inactive)
REMARK    1  A    between atoms: C_2  and  S_3
REMARK    2  A    between atoms: S_3  and  N_6
REMARK    3  A    between atoms: C_10  and  N_11
REMARK    4  A    between atoms: C_13  and  C_14
REMARK    5  A    between atoms: C_15  and  C_16
REMARK    6  A    between atoms: C_16  and  O_17
REMARK    7  A    between atoms: O_17  and  C_18
REMARK                            x       y       z     vdW  Elec       q    Type
REMARK                         _______ _______ _______ _____ _____    ______ ____
ROOT
ATOM      1  N   UNL     1       8.453  14.334  18.016  0.00  0.00    +0.000 N 
ATOM      2  N   UNL     1       7.897  13.105  18.212  0.00  0.00    +0.000 NA
ATOM      3  C   UNL     1       8.934  12.271  18.050  0.00  0.00    +0.000 A 
ATOM      4  C   UNL     1      10.138  12.936  17.745  0.00  0.00    +0.000 A 
ATOM      5  C   UNL     1      11.480  12.615  17.517  0.00  0.00    +0.000 A 
ATOM      6  N   UNL     1      12.007  11.341  17.612  0.00  0.00    +0.000 N 
ATOM      7  N   UNL     1      12.333  13.615  17.208  0.00  0.00    +0.000 NA
ATOM      8  C   UNL     1      11.860  14.878  17.170  0.00  0.00    +0.000 A 
ATOM      9  N   UNL     1      10.606  15.304  17.412  0.00  0.00    +0.000 NA
ATOM     10  C   UNL     1       9.788  14.275  17.694  0.00  0.00    +0.000 A 
ATOM     11  H   UNL     1      11.377  10.556  17.526  0.00  0.00    +0.000 HD
ATOM     12  H   UNL     1      12.922  11.256  17.188  0.00  0.00    +0.000 HD
ENDROOT
BRANCH   1  17
ATOM     13  N   UNL     1       5.311  16.400  18.569  0.00  0.00    +0.000 NA
ATOM     14  C   UNL     1       5.736  17.133  19.786  0.00  0.00    +0.000 C 
ATOM     15  C   UNL     1       7.194  17.558  19.651  0.00  0.00    +0.000 C 
ATOM     16  C   UNL     1       8.103  16.354  19.410  0.00  0.00    +0.000 C 
ATOM     17  C   UNL     1       7.649  15.546  18.185  0.00  0.00    +0.000 C 
ATOM     18  C   UNL     1       6.154  15.204  18.254  0.00  0.00    +0.000 C 
BRANCH  13  19
ATOM     19  S   UNL     1       3.614  16.132  18.447  0.00  0.00    +0.000 S 
ATOM     20  O   UNL     1       3.326  15.950  17.038  0.00  0.00    +0.000 OA
ATOM     21  O   UNL     1       2.966  17.196  19.188  0.00  0.00    +0.000 OA
BRANCH  19  23
ATOM     22  C   UNL     1       2.121  13.996  19.128  0.00  0.00    +0.000 C 
ATOM     23  C   UNL     1       3.308  14.609  19.239  0.00  0.00    +0.000 C 
ENDBRANCH  19  23
ENDBRANCH  13  19
ENDBRANCH   1  17
BRANCH   3  24
ATOM     24  C   UNL     1       8.739  10.858  18.194  0.00  0.00    +0.000 C 
ATOM     25  C   UNL     1       8.498   9.684  18.243  0.00  0.00    +0.000 C 
BRANCH  25  26
ATOM     26  C   UNL     1       8.197   8.240  18.212  0.00  0.00    +0.000 C 
BRANCH  26  27
ATOM     27  O   UNL     1       7.282   7.953  17.149  0.00  0.00    +0.000 OA
BRANCH  27  28
ATOM     28  C   UNL     1       6.649   6.737  17.232  0.00  0.00    +0.000 A 
ATOM     29  C   UNL     1       5.496   6.598  16.455  0.00  0.00    +0.000 A 
ATOM     30  C   UNL     1       4.768   5.403  16.467  0.00  0.00    +0.000 A 
ATOM     31  C   UNL     1       5.203   4.332  17.244  0.00  0.00    +0.000 A 
ATOM     32  C   UNL     1       6.366   4.454  18.001  0.00  0.00    +0.000 A 
ATOM     33  C   UNL     1       7.089   5.650  17.993  0.00  0.00    +0.000 A 
ENDBRANCH  27  28
ENDBRANCH  26  27
ENDBRANCH  25  26
ENDBRANCH   3  24
TORSDOF 7
ENDMDL
MODEL 5
REMARK VINA RESULT:      -8.0      7.551      9.078
REMARK  Name = 
REMARK  7 active torsions:
REMARK  status: ('A' for Active; 'I' for Inactive)
REMARK    1  A    between atoms: C_2  and  S_3
REMARK    2  A    between atoms: S_3  and  N_6
REMARK    3  A    between atoms: C_10  and  N_11
REMARK    4  A    between atoms: C_13  and  C_14
REMARK    5  A    between atoms: C_15  and  C_16
REMARK    6  A    between atoms: C_16  and  O_17
REMARK    7  A    between atoms: O_17  and  C_18
REMARK                            x       y       z     vdW  Elec       q    Type
REMARK                         _______ _______ _______ _____ _____    ______ ____
ROOT
ATOM      1  N   UNL     1       8.380  14.352  17.939  0.00  0.00    +0.000 N 
ATOM      2  N   UNL     1       7.846  13.101  18.014  0.00  0.00    +0.000 NA
ATOM      3  C   UNL     1       8.917  12.303  17.890  0.00  0.00    +0.000 A 
ATOM      4  C   UNL     1      10.121  13.015  17.727  0.00  0.00    +0.000 A 
ATOM      5  C   UNL     1      11.486  12.742  17.593  0.00  0.00    +0.000 A 
ATOM      6  N   UNL     1      12.041  11.477  17.656  0.00  0.00    +0.000 N 
ATOM      7  N   UNL     1      12.332  13.779  17.417  0.00  0.00    +0.000 NA
ATOM      8  C   UNL     1      11.827  15.030  17.414  0.00  0.00    +0.000 A 
ATOM      9  N   UNL     1      10.545  15.410  17.576  0.00  0.00    +0.000 NA
ATOM     10  C   UNL     1       9.737  14.346  17.727  0.00  0.00    +0.000 A 
ATOM     11  H   UNL     1      11.444  10.684  17.471  0.00  0.00    +0.000 HD
ATOM     12  H   UNL     1      12.990  11.441  17.305  0.00  0.00    +0.000 HD
ENDROOT
BRANCH   1  17
ATOM     13  N   UNL     1       5.167  16.292  18.543  0.00  0.00    +0.000 NA
ATOM     14  C   UNL     1       5.590  17.059  19.739  0.00  0.00    +0.000 C 
ATOM     15  C   UNL     1       7.025  17.543  19.562  0.00  0.00    +0.000 C 
ATOM     16  C   UNL     1       7.978  16.375  19.315  0.00  0.00    +0.000 C 
ATOM     17  C   UNL     1       7.529  15.532  18.112  0.00  0.00    +0.000 C 
ATOM     18  C   UNL     1       6.052  15.128  18.222  0.00  0.00    +0.000 C 
BRANCH  13  19
ATOM     19  S   UNL     1       3.480  15.951  18.466  0.00  0.00    +0.000 S 
ATOM     20  O   UNL     1       3.333  14.790  17.611  0.00  0.00    +0.000 OA
ATOM     21  O   UNL     1       2.816  17.193  18.124  0.00  0.00    +0.000 OA
BRANCH  19  23
ATOM     22  C   UNL     1       3.179  14.211  20.500  0.00  0.00    +0.000 C 
ATOM     23  C   UNL     1       3.012  15.472  20.076  0.00  0.00    +0.000 C 
ENDBRANCH  19  23
ENDBRANCH  13  19
ENDBRANCH   1  17
BRANCH   3  24
ATOM     24  C   UNL     1       8.752  10.880  17.933  0.00  0.00    +0.000 C 
ATOM     25  C   UNL     1       8.547   9.703  18.049  0.00  0.00    +0.000 C 
BRANCH  25  26
ATOM     26  C   UNL     1       8.206   8.277  18.199  0.00  0.00    +0.000 C 
BRANCH  26  27
ATOM     27  O   UNL     1       7.507   7.815  17.038  0.00  0.00    +0.000 OA
BRANCH  27  28
ATOM     28  C   UNL     1       6.631   6.779  17.252  0.00  0.00    +0.000 A 
ATOM     29  C   UNL     1       7.089   5.759  18.090  0.00  0.00    +0.000 A 
ATOM     30  C   UNL     1       6.281   4.652  18.371  0.00  0.00    +0.000 A 
ATOM     31  C   UNL     1       5.000   4.571  17.831  0.00  0.00    +0.000 A 
ATOM     32  C   UNL     1       4.527   5.597  17.017  0.00  0.00    +0.000 A 
ATOM     33  C   UNL     1       5.337   6.699  16.730  0.00  0.00    +0.000 A 
ENDBRANCH  27  28
ENDBRANCH  26  27
ENDBRANCH  25  26
ENDBRANCH   3  24
TORSDOF 7
ENDMDL
MODEL 6
REMARK VINA RESULT:      -7.9      2.230      3.472
REMARK  Name = 
REMARK  7 active torsions:
REMARK  status: ('A' for Active; 'I' for Inactive)
REMARK    1  A    between atoms: C_2  and  S_3
REMARK    2  A    between atoms: S_3  and  N_6
REMARK    3  A    between atoms: C_10  and  N_11
REMARK    4  A    between atoms: C_13  and  C_14
REMARK    5  A    between atoms: C_15  and  C_16
REMARK    6  A    between atoms: C_16  and  O_17
REMARK    7  A    between atoms: O_17  and  C_18
REMARK                            x       y       z     vdW  Elec       q    Type
REMARK                         _______ _______ _______ _____ _____    ______ ____
ROOT
ATOM      1  N   UNL     1       2.548   6.073  19.486  0.00  0.00    +0.000 N 
ATOM      2  N   UNL     1       3.408   6.115  18.430  0.00  0.00    +0.000 NA
ATOM      3  C   UNL     1       3.464   4.836  18.030  0.00  0.00    +0.000 A 
ATOM      4  C   UNL     1       2.668   3.977  18.812  0.00  0.00    +0.000 A 
ATOM      5  C   UNL     1       2.318   2.623  18.849  0.00  0.00    +0.000 A 
ATOM      6  N   UNL     1       2.719   1.685  17.916  0.00  0.00    +0.000 N 
ATOM      7  N   UNL     1       1.511   2.198  19.844  0.00  0.00    +0.000 NA
ATOM      8  C   UNL     1       1.052   3.103  20.734  0.00  0.00    +0.000 A 
ATOM      9  N   UNL     1       1.289   4.428  20.769  0.00  0.00    +0.000 NA
ATOM     10  C   UNL     1       2.112   4.803  19.775  0.00  0.00    +0.000 A 
ATOM     11  H   UNL     1       3.543   1.881  17.366  0.00  0.00    +0.000 HD
ATOM     12  H   UNL     1       2.576   0.731  18.224  0.00  0.00    +0.000 HD
ENDROOT
BRANCH   1  17
ATOM     13  N   UNL     1       1.232   9.625  19.814  0.00  0.00    +0.000 NA
ATOM     14  C   UNL     1       0.104   9.361  20.739  0.00  0.00    +0.000 C 
ATOM     15  C   UNL     1       0.533   8.358  21.804  0.00  0.00    +0.000 C 
ATOM     16  C   UNL     1       1.019   7.054  21.174  0.00  0.00    +0.000 C 
ATOM     17  C   UNL     1       2.153   7.308  20.169  0.00  0.00    +0.000 C 
ATOM     18  C   UNL     1       1.778   8.396  19.154  0.00  0.00    +0.000 C 
BRANCH  13  19
ATOM     19  S   UNL     1       0.996  10.961  18.753  0.00  0.00    +0.000 S 
ATOM     20  O   UNL     1       1.707  10.647  17.530  0.00  0.00    +0.000 OA
ATOM     21  O   UNL     1       1.334  12.156  19.502  0.00  0.00    +0.000 OA
BRANCH  19  23
ATOM     22  C   UNL     1      -1.235  10.091  17.521  0.00  0.00    +0.000 C 
ATOM     23  C   UNL     1      -0.705  10.981  18.373  0.00  0.00    +0.000 C 
ENDBRANCH  19  23
ENDBRANCH  13  19
ENDBRANCH   1  17
BRANCH   3  24
ATOM     24  C   UNL     1       4.279   4.478  16.907  0.00  0.00    +0.000 C 
ATOM     25  C   UNL     1       5.045   4.214  16.022  0.00  0.00    +0.000 C 
BRANCH  25  26
ATOM     26  C   UNL     1       6.042   3.855  14.997  0.00  0.00    +0.000 C 
BRANCH  26  27
ATOM     27  O   UNL     1       7.185   4.710  15.103  0.00  0.00    +0.000 OA
BRANCH  27  28
ATOM     28  C   UNL     1       7.417   5.229  16.353  0.00  0.00    +0.000 A 
ATOM     29  C   UNL     1       7.271   6.614  16.472  0.00  0.00    +0.000 A 
ATOM     30  C   UNL     1       7.490   7.250  17.699  0.00  0.00    +0.000 A 
ATOM     31  C   UNL     1       7.835   6.499  18.820  0.00  0.00    +0.000 A 
ATOM     32  C   UNL     1       7.956   5.116  18.715  0.00  0.00    +0.000 A 
ATOM     33  C   UNL     1       7.745   4.481  17.488  0.00  0.00    +0.000 A 
ENDBRANCH  27  28
ENDBRANCH  26  27
ENDBRANCH  25  26
ENDBRANCH   3  24
TORSDOF 7
ENDMDL
MODEL 7
REMARK VINA RESULT:      -7.8      2.271      3.423
REMARK  Name = 
REMARK  7 active torsions:
REMARK  status: ('A' for Active; 'I' for Inactive)
REMARK    1  A    between atoms: C_2  and  S_3
REMARK    2  A    between atoms: S_3  and  N_6
REMARK    3  A    between atoms: C_10  and  N_11
REMARK    4  A    between atoms: C_13  and  C_14
REMARK    5  A    between atoms: C_15  and  C_16
REMARK    6  A    between atoms: C_16  and  O_17
REMARK    7  A    between atoms: O_17  and  C_18
REMARK                            x       y       z     vdW  Elec       q    Type
REMARK                         _______ _______ _______ _____ _____    ______ ____
ROOT
ATOM      1  N   UNL     1       2.400   6.281  19.530  0.00  0.00    +0.000 N 
ATOM      2  N   UNL     1       3.244   6.367  18.464  0.00  0.00    +0.000 NA
ATOM      3  C   UNL     1       3.342   5.096  18.048  0.00  0.00    +0.000 A 
ATOM      4  C   UNL     1       2.588   4.199  18.830  0.00  0.00    +0.000 A 
ATOM      5  C   UNL     1       2.288   2.833  18.855  0.00  0.00    +0.000 A 
ATOM      6  N   UNL     1       2.711   1.921  17.906  0.00  0.00    +0.000 N 
ATOM      7  N   UNL     1       1.510   2.367  19.855  0.00  0.00    +0.000 NA
ATOM      8  C   UNL     1       1.030   3.244  20.760  0.00  0.00    +0.000 A 
ATOM      9  N   UNL     1       1.218   4.577  20.809  0.00  0.00    +0.000 NA
ATOM     10  C   UNL     1       2.014   4.993  19.809  0.00  0.00    +0.000 A 
ATOM     11  H   UNL     1       3.521   2.153  17.348  0.00  0.00    +0.000 HD
ATOM     12  H   UNL     1       2.608   0.959  18.204  0.00  0.00    +0.000 HD
ENDROOT
BRANCH   1  17
ATOM     13  N   UNL     1       1.114   9.839  19.906  0.00  0.00    +0.000 NA
ATOM     14  C   UNL     1      -0.089   9.557  20.725  0.00  0.00    +0.000 C 
ATOM     15  C   UNL     1       0.236   8.502  21.776  0.00  0.00    +0.000 C 
ATOM     16  C   UNL     1       0.753   7.218  21.130  0.00  0.00    +0.000 C 
ATOM     17  C   UNL     1       1.969   7.493  20.233  0.00  0.00    +0.000 C 
ATOM     18  C   UNL     1       1.694   8.630  19.239  0.00  0.00    +0.000 C 
BRANCH  13  19
ATOM     19  S   UNL     1       0.985  11.224  18.889  0.00  0.00    +0.000 S 
ATOM     20  O   UNL     1      -0.322  11.158  18.267  0.00  0.00    +0.000 OA
ATOM     21  O   UNL     1       2.179  11.254  18.068  0.00  0.00    +0.000 OA
BRANCH  19  23
ATOM     22  C   UNL     1       2.125  13.084  20.469  0.00  0.00    +0.000 C 
ATOM     23  C   UNL     1       0.984  12.605  19.954  0.00  0.00    +0.000 C 
ENDBRANCH  19  23
ENDBRANCH  13  19
ENDBRANCH   1  17
BRANCH   3  24
ATOM     24  C   UNL     1       4.156   4.781  16.912  0.00  0.00    +0.000 C 
ATOM     25  C   UNL     1       4.907   4.475  16.027  0.00  0.00    +0.000 C 
BRANCH  25  26
ATOM     26  C   UNL     1       5.839   4.017  14.981  0.00  0.00    +0.000 C 
BRANCH  26  27
ATOM     27  O   UNL     1       7.090   4.702  15.105  0.00  0.00    +0.000 OA
BRANCH  27  28
ATOM     28  C   UNL     1       7.348   5.235  16.344  0.00  0.00    +0.000 A 
ATOM     29  C   UNL     1       7.256   6.627  16.438  0.00  0.00    +0.000 A 
ATOM     30  C   UNL     1       7.505   7.277  17.651  0.00  0.00    +0.000 A 
ATOM     31  C   UNL     1       7.828   6.534  18.785  0.00  0.00    +0.000 A 
ATOM     32  C   UNL     1       7.897   5.145  18.705  0.00  0.00    +0.000 A 
ATOM     33  C   UNL     1       7.654   4.497  17.490  0.00  0.00    +0.000 A 
ENDBRANCH  27  28
ENDBRANCH  26  27
ENDBRANCH  25  26
ENDBRANCH   3  24
TORSDOF 7
ENDMDL
MODEL 8
REMARK VINA RESULT:      -7.8      5.187      7.593
REMARK  Name = 
REMARK  7 active torsions:
REMARK  status: ('A' for Active; 'I' for Inactive)
REMARK    1  A    between atoms: C_2  and  S_3
REMARK    2  A    between atoms: S_3  and  N_6
REMARK    3  A    between atoms: C_10  and  N_11
REMARK    4  A    between atoms: C_13  and  C_14
REMARK    5  A    between atoms: C_15  and  C_16
REMARK    6  A    between atoms: C_16  and  O_17
REMARK    7  A    between atoms: O_17  and  C_18
REMARK                            x       y       z     vdW  Elec       q    Type
REMARK                         _______ _______ _______ _____ _____    ______ ____
ROOT
ATOM      1  N   UNL     1      -1.489  12.097  19.893  0.00  0.00    +0.000 N 
ATOM      2  N   UNL     1      -0.314  11.416  19.780  0.00  0.00    +0.000 NA
ATOM      3  C   UNL     1      -0.524  10.618  18.723  0.00  0.00    +0.000 A 
ATOM      4  C   UNL     1      -1.809  10.766  18.165  0.00  0.00    +0.000 A 
ATOM      5  C   UNL     1      -2.546  10.257  17.091  0.00  0.00    +0.000 A 
ATOM      6  N   UNL     1      -2.050   9.375  16.149  0.00  0.00    +0.000 N 
ATOM      7  N   UNL     1      -3.822  10.671  16.937  0.00  0.00    +0.000 NA
ATOM      8  C   UNL     1      -4.314  11.581  17.804  0.00  0.00    +0.000 A 
ATOM      9  N   UNL     1      -3.685  12.166  18.841  0.00  0.00    +0.000 NA
ATOM     10  C   UNL     1      -2.427  11.709  18.969  0.00  0.00    +0.000 A 
ATOM     11  H   UNL     1      -1.246   8.816  16.395  0.00  0.00    +0.000 HD
ATOM     12  H   UNL     1      -2.775   8.934  15.596  0.00  0.00    +0.000 HD
ENDROOT
BRANCH   1  17
ATOM     13  N   UNL     1      -2.692  13.696  23.126  0.00  0.00    +0.000 NA
ATOM     14  C   UNL     1      -1.374  14.043  23.709  0.00  0.00    +0.000 C 
ATOM     15  C   UNL     1      -0.451  14.577  22.619  0.00  0.00    +0.000 C 
ATOM     16  C   UNL     1      -0.283  13.564  21.489  0.00  0.00    +0.000 C 
ATOM     17  C   UNL     1      -1.641  13.147  20.904  0.00  0.00    +0.000 C 
ATOM     18  C   UNL     1      -2.620  12.709  22.002  0.00  0.00    +0.000 C 
BRANCH  13  19
ATOM     19  S   UNL     1      -3.929  13.375  24.282  0.00  0.00    +0.000 S 
ATOM     20  O   UNL     1      -3.585  14.126  25.472  0.00  0.00    +0.000 OA
ATOM     21  O   UNL     1      -4.076  11.934  24.350  0.00  0.00    +0.000 OA
BRANCH  19  23
ATOM     22  C   UNL     1      -6.596  13.612  23.991  0.00  0.00    +0.000 C 
ATOM     23  C   UNL     1      -5.388  14.072  23.632  0.00  0.00    +0.000 C 
ENDBRANCH  19  23
ENDBRANCH  13  19
ENDBRANCH   1  17
BRANCH   3  24
ATOM     24  C   UNL     1       0.515   9.737  18.279  0.00  0.00    +0.000 C 
ATOM     25  C   UNL     1       1.400   8.972  18.009  0.00  0.00    +0.000 C 
BRANCH  25  26
ATOM     26  C   UNL     1       2.448   7.972  17.734  0.00  0.00    +0.000 C 
BRANCH  26  27
ATOM     27  O   UNL     1       2.851   7.337  18.951  0.00  0.00    +0.000 OA
BRANCH  27  28
ATOM     28  C   UNL     1       2.294   6.103  19.184  0.00  0.00    +0.000 A 
ATOM     29  C   UNL     1       2.223   5.251  18.078  0.00  0.00    +0.000 A 
ATOM     30  C   UNL     1       1.667   3.973  18.200  0.00  0.00    +0.000 A 
ATOM     31  C   UNL     1       1.198   3.532  19.435  0.00  0.00    +0.000 A 
ATOM     32  C   UNL     1       1.289   4.367  20.546  0.00  0.00    +0.000 A 
ATOM     33  C   UNL     1       1.838   5.646  20.424  0.00  0.00    +0.000 A 
ENDBRANCH  27  28
ENDBRANCH  26  27
ENDBRANCH  25  26
ENDBRANCH   3  24
TORSDOF 7
ENDMDL
MODEL 9
REMARK VINA RESULT:      -7.8      4.864      7.620
REMARK  Name = 
REMARK  7 active torsions:
REMARK  status: ('A' for Active; 'I' for Inactive)
REMARK    1  A    between atoms: C_2  and  S_3
REMARK    2  A    between atoms: S_3  and  N_6
REMARK    3  A    between atoms: C_10  and  N_11
REMARK    4  A    between atoms: C_13  and  C_14
REMARK    5  A    between atoms: C_15  and  C_16
REMARK    6  A    between atoms: C_16  and  O_17
REMARK    7  A    between atoms: O_17  and  C_18
REMARK                            x       y       z     vdW  Elec       q    Type
REMARK                         _______ _______ _______ _____ _____    ______ ____
ROOT
ATOM      1  N   UNL     1       0.701  12.613  20.327  0.00  0.00    +0.000 N 
ATOM      2  N   UNL     1       1.302  11.787  19.426  0.00  0.00    +0.000 NA
ATOM      3  C   UNL     1       0.989  10.563  19.876  0.00  0.00    +0.000 A 
ATOM      4  C   UNL     1       0.211  10.588  21.050  0.00  0.00    +0.000 A 
ATOM      5  C   UNL     1      -0.411   9.678  21.910  0.00  0.00    +0.000 A 
ATOM      6  N   UNL     1      -0.435   8.309  21.716  0.00  0.00    +0.000 N 
ATOM      7  N   UNL     1      -1.059  10.159  22.992  0.00  0.00    +0.000 NA
ATOM      8  C   UNL     1      -1.106  11.496  23.173  0.00  0.00    +0.000 A 
ATOM      9  N   UNL     1      -0.583  12.460  22.393  0.00  0.00    +0.000 NA
ATOM     10  C   UNL     1       0.069  11.935  21.341  0.00  0.00    +0.000 A 
ATOM     11  H   UNL     1       0.275   7.898  21.127  0.00  0.00    +0.000 HD
ATOM     12  H   UNL     1      -0.714   7.795  22.543  0.00  0.00    +0.000 HD
ENDROOT
BRANCH   1  17
ATOM     13  N   UNL     1       1.874  15.925  18.875  0.00  0.00    +0.000 NA
ATOM     14  C   UNL     1       0.575  16.413  18.352  0.00  0.00    +0.000 C 
ATOM     15  C   UNL     1      -0.534  16.103  19.352  0.00  0.00    +0.000 C 
ATOM     16  C   UNL     1      -0.609  14.607  19.650  0.00  0.00    +0.000 C 
ATOM     17  C   UNL     1       0.742  14.066  20.142  0.00  0.00    +0.000 C 
ATOM     18  C   UNL     1       1.889  14.464  19.202  0.00  0.00    +0.000 C 
BRANCH  13  19
ATOM     19  S   UNL     1       3.254  16.477  18.004  0.00  0.00    +0.000 S 
ATOM     20  O   UNL     1       2.849  17.684  17.312  0.00  0.00    +0.000 OA
ATOM     21  O   UNL     1       3.757  15.344  17.253  0.00  0.00    +0.000 OA
BRANCH  19  23
ATOM     22  C   UNL     1       4.066  17.599  20.315  0.00  0.00    +0.000 C 
ATOM     23  C   UNL     1       4.430  16.938  19.206  0.00  0.00    +0.000 C 
ENDBRANCH  19  23
ENDBRANCH  13  19
ENDBRANCH   1  17
BRANCH   3  24
ATOM     24  C   UNL     1       1.446   9.406  19.165  0.00  0.00    +0.000 C 
ATOM     25  C   UNL     1       1.901   8.499  18.525  0.00  0.00    +0.000 C 
BRANCH  25  26
ATOM     26  C   UNL     1       2.544   7.413  17.762  0.00  0.00    +0.000 C 
BRANCH  26  27
ATOM     27  O   UNL     1       3.192   6.502  18.656  0.00  0.00    +0.000 OA
BRANCH  27  28
ATOM     28  C   UNL     1       2.431   5.434  19.061  0.00  0.00    +0.000 A 
ATOM     29  C   UNL     1       2.046   4.545  18.054  0.00  0.00    +0.000 A 
ATOM     30  C   UNL     1       1.262   3.426  18.353  0.00  0.00    +0.000 A 
ATOM     31  C   UNL     1       0.876   3.178  19.668  0.00  0.00    +0.000 A 
ATOM     32  C   UNL     1       1.277   4.046  20.681  0.00  0.00    +0.000 A 
ATOM     33  C   UNL     1       2.055   5.168  20.381  0.00  0.00    +0.000 A 
ENDBRANCH  27  28
ENDBRANCH  26  27
ENDBRANCH  25  26
ENDBRANCH   3  24
TORSDOF 7
ENDMDL
