MODEL 1
REMARK VINA RESULT:      -8.2      0.000      0.000
REMARK  Name = 
REMARK  4 active torsions:
REMARK  status: ('A' for Active; 'I' for Inactive)
REMARK    1  A    between atoms: C_2  and  C_14
REMARK    2  A    between atoms: N_3  and  C_4
REMARK    3  A    between atoms: C_12  and  O_13
REMARK    4  A    between atoms: C_18  and  C_19
REMARK                            x       y       z     vdW  Elec       q    Type
REMARK                         _______ _______ _______ _____ _____    ______ ____
ROOT
ATOM      1  O   UNL     1       2.916   8.519  17.051  0.00  0.00    +0.000 OA
ATOM      2  C   UNL     1       2.390   8.029  18.044  0.00  0.00    +0.000 C 
ATOM      3  N   UNL     1       2.708   6.770  18.513  0.00  0.00    +0.000 N 
ATOM      4  H   UNL     1       2.101   6.320  19.184  0.00  0.00    +0.000 HD
ENDROOT
BRANCH   3   5
ATOM      5  C   UNL     1       3.622   5.931  17.752  0.00  0.00    +0.000 C 
ATOM      6  C   UNL     1       3.359   4.467  17.996  0.00  0.00    +0.000 A 
ATOM      7  C   UNL     1       2.383   3.664  17.426  0.00  0.00    +0.000 A 
ATOM      8  C   UNL     1       2.352   2.310  17.772  0.00  0.00    +0.000 A 
ATOM      9  C   UNL     1       3.270   1.783  18.693  0.00  0.00    +0.000 A 
ATOM     10  C   UNL     1       4.248   2.597  19.268  0.00  0.00    +0.000 A 
ATOM     11  C   UNL     1       4.292   3.930  18.894  0.00  0.00    +0.000 A 
ATOM     12  C   UNL     1       5.285   4.968  19.326  0.00  0.00    +0.000 C 
ATOM     13  C   UNL     1       5.108   6.027  18.218  0.00  0.00    +0.000 C 
BRANCH  13  14
ATOM     14  O   UNL     1       6.008   5.729  17.131  0.00  0.00    +0.000 OA
ATOM     15  H   UNL     1       6.835   5.389  17.519  0.00  0.00    +0.000 HD
ENDBRANCH  13  14
ENDBRANCH   3   5
BRANCH   2  16
ATOM     16  C   UNL     1       1.338   8.793  18.768  0.00  0.00    +0.000 A 
ATOM     17  C   UNL     1       1.380   9.019  20.147  0.00  0.00    +0.000 A 
ATOM     18  C   UNL     1       0.373   9.775  20.753  0.00  0.00    +0.000 A 
ATOM     19  C   UNL     1      -0.673  10.305  19.989  0.00  0.00    +0.000 A 
ATOM     20  C   UNL     1      -0.725  10.097  18.605  0.00  0.00    +0.000 A 
ATOM     21  C   UNL     1       0.293   9.340  18.005  0.00  0.00    +0.000 A 
BRANCH  20  22
ATOM     22  C   UNL     1      -1.813  10.647  17.814  0.00  0.00    +0.000 A 
ATOM     23  C   UNL     1      -2.276  10.321  16.516  0.00  0.00    +0.000 A 
ATOM     24  N   UNL     1      -3.313  11.069  16.131  0.00  0.00    +0.000 NA
ATOM     25  N   UNL     1      -3.522  11.880  17.181  0.00  0.00    +0.000 N 
ATOM     26  C   UNL     1      -2.659  11.661  18.216  0.00  0.00    +0.000 A 
ATOM     27  H   UNL     1      -4.273  12.560  17.124  0.00  0.00    +0.000 HD
ENDBRANCH  20  22
ENDBRANCH   2  16
TORSDOF 4
ENDMDL
MODEL 2
REMARK VINA RESULT:      -8.1      2.900      4.047
REMARK  Name = 
REMARK  4 active torsions:
REMARK  status: ('A' for Active; 'I' for Inactive)
REMARK    1  A    between atoms: C_2  and  C_14
REMARK    2  A    between atoms: N_3  and  C_4
REMARK    3  A    between atoms: C_12  and  O_13
REMARK    4  A    between atoms: C_18  and  C_19
REMARK                            x       y       z     vdW  Elec       q    Type
REMARK                         _______ _______ _______ _____ _____    ______ ____
ROOT
ATOM      1  O   UNL     1       2.438   5.887  20.524  0.00  0.00    +0.000 OA
ATOM      2  C   UNL     1       2.484   6.462  19.442  0.00  0.00    +0.000 C 
ATOM      3  N   UNL     1       3.067   5.901  18.324  0.00  0.00    +0.000 N 
ATOM      4  H   UNL     1       3.285   6.486  17.529  0.00  0.00    +0.000 HD
ENDROOT
BRANCH   3   5
ATOM      5  C   UNL     1       3.756   4.623  18.437  0.00  0.00    +0.000 C 
ATOM      6  C   UNL     1       5.250   4.792  18.332  0.00  0.00    +0.000 A 
ATOM      7  C   UNL     1       6.140   5.190  19.318  0.00  0.00    +0.000 A 
ATOM      8  C   UNL     1       7.501   5.234  19.005  0.00  0.00    +0.000 A 
ATOM      9  C   UNL     1       7.952   4.908  17.716  0.00  0.00    +0.000 A 
ATOM     10  C   UNL     1       7.051   4.513  16.726  0.00  0.00    +0.000 A 
ATOM     11  C   UNL     1       5.709   4.439  17.054  0.00  0.00    +0.000 A 
ATOM     12  C   UNL     1       4.577   3.981  16.183  0.00  0.00    +0.000 C 
ATOM     13  C   UNL     1       3.501   3.657  17.238  0.00  0.00    +0.000 C 
BRANCH  13  14
ATOM     14  O   UNL     1       3.640   2.282  17.650  0.00  0.00    +0.000 OA
ATOM     15  H   UNL     1       2.972   2.113  18.339  0.00  0.00    +0.000 HD
ENDBRANCH  13  14
ENDBRANCH   3   5
BRANCH   2  16
ATOM     16  C   UNL     1       1.925   7.836  19.318  0.00  0.00    +0.000 A 
ATOM     17  C   UNL     1       2.015   8.586  18.142  0.00  0.00    +0.000 A 
ATOM     18  C   UNL     1       1.438   9.857  18.089  0.00  0.00    +0.000 A 
ATOM     19  C   UNL     1       0.771  10.380  19.203  0.00  0.00    +0.000 A 
ATOM     20  C   UNL     1       0.663   9.638  20.386  0.00  0.00    +0.000 A 
ATOM     21  C   UNL     1       1.243   8.362  20.428  0.00  0.00    +0.000 A 
BRANCH  20  22
ATOM     22  C   UNL     1      -0.028  10.183  21.542  0.00  0.00    +0.000 A 
ATOM     23  C   UNL     1      -0.366  11.516  21.881  0.00  0.00    +0.000 A 
ATOM     24  N   UNL     1      -1.006  11.609  23.049  0.00  0.00    +0.000 NA
ATOM     25  N   UNL     1      -1.083  10.335  23.467  0.00  0.00    +0.000 N 
ATOM     26  C   UNL     1      -0.523   9.444  22.597  0.00  0.00    +0.000 A 
ATOM     27  H   UNL     1      -1.534  10.145  24.356  0.00  0.00    +0.000 HD
ENDBRANCH  20  22
ENDBRANCH   2  16
TORSDOF 4
ENDMDL
MODEL 3
REMARK VINA RESULT:      -8.1      2.881      4.058
REMARK  Name = 
REMARK  4 active torsions:
REMARK  status: ('A' for Active; 'I' for Inactive)
REMARK    1  A    between atoms: C_2  and  C_14
REMARK    2  A    between atoms: N_3  and  C_4
REMARK    3  A    between atoms: C_12  and  O_13
REMARK    4  A    between atoms: C_18  and  C_19
REMARK                            x       y       z     vdW  Elec       q    Type
REMARK                         _______ _______ _______ _____ _____    ______ ____
ROOT
ATOM      1  O   UNL     1       2.849   5.875  20.141  0.00  0.00    +0.000 OA
ATOM      2  C   UNL     1       2.980   6.617  19.174  0.00  0.00    +0.000 C 
ATOM      3  N   UNL     1       3.917   6.394  18.185  0.00  0.00    +0.000 N 
ATOM      4  H   UNL     1       4.143   7.137  17.538  0.00  0.00    +0.000 HD
ENDROOT
BRANCH   3   5
ATOM      5  C   UNL     1       4.869   5.303  18.330  0.00  0.00    +0.000 C 
ATOM      6  C   UNL     1       5.617   5.050  17.046  0.00  0.00    +0.000 A 
ATOM      7  C   UNL     1       6.708   5.737  16.540  0.00  0.00    +0.000 A 
ATOM      8  C   UNL     1       7.273   5.296  15.340  0.00  0.00    +0.000 A 
ATOM      9  C   UNL     1       6.730   4.199  14.652  0.00  0.00    +0.000 A 
ATOM     10  C   UNL     1       5.628   3.513  15.165  0.00  0.00    +0.000 A 
ATOM     11  C   UNL     1       5.096   3.936  16.371  0.00  0.00    +0.000 A 
ATOM     12  C   UNL     1       3.965   3.320  17.139  0.00  0.00    +0.000 C 
ATOM     13  C   UNL     1       4.205   3.907  18.544  0.00  0.00    +0.000 C 
BRANCH  13  14
ATOM     14  O   UNL     1       5.082   3.029  19.280  0.00  0.00    +0.000 OA
ATOM     15  H   UNL     1       4.529   2.339  19.690  0.00  0.00    +0.000 HD
ENDBRANCH  13  14
ENDBRANCH   3   5
BRANCH   2  16
ATOM     16  C   UNL     1       2.127   7.832  19.062  0.00  0.00    +0.000 A 
ATOM     17  C   UNL     1       1.852   8.453  17.840  0.00  0.00    +0.000 A 
ATOM     18  C   UNL     1       1.015   9.570  17.808  0.00  0.00    +0.000 A 
ATOM     19  C   UNL     1       0.452  10.069  18.989  0.00  0.00    +0.000 A 
ATOM     20  C   UNL     1       0.709   9.454  20.219  0.00  0.00    +0.000 A 
ATOM     21  C   UNL     1       1.548   8.329  20.241  0.00  0.00    +0.000 A 
BRANCH  20  22
ATOM     22  C   UNL     1       0.125   9.974  21.445  0.00  0.00    +0.000 A 
ATOM     23  C   UNL     1      -0.061   9.374  22.713  0.00  0.00    +0.000 A 
ATOM     24  N   UNL     1      -0.649  10.190  23.593  0.00  0.00    +0.000 NA
ATOM     25  N   UNL     1      -0.843  11.319  22.892  0.00  0.00    +0.000 N 
ATOM     26  C   UNL     1      -0.388  11.245  21.607  0.00  0.00    +0.000 A 
ATOM     27  H   UNL     1      -1.290  12.104  23.355  0.00  0.00    +0.000 HD
ENDBRANCH  20  22
ENDBRANCH   2  16
TORSDOF 4
ENDMDL
MODEL 4
REMARK VINA RESULT:      -7.8      1.856      1.979
REMARK  Name = 
REMARK  4 active torsions:
REMARK  status: ('A' for Active; 'I' for Inactive)
REMARK    1  A    between atoms: C_2  and  C_14
REMARK    2  A    between atoms: N_3  and  C_4
REMARK    3  A    between atoms: C_12  and  O_13
REMARK    4  A    between atoms: C_18  and  C_19
REMARK                            x       y       z     vdW  Elec       q    Type
REMARK                         _______ _______ _______ _____ _____    ______ ____
ROOT
ATOM      1  O   UNL     1       2.445   8.625  17.378  0.00  0.00    +0.000 OA
ATOM      2  C   UNL     1       2.238   8.158  18.492  0.00  0.00    +0.000 C 
ATOM      3  N   UNL     1       2.676   6.904  18.868  0.00  0.00    +0.000 N 
ATOM      4  H   UNL     1       2.296   6.473  19.699  0.00  0.00    +0.000 HD
ENDROOT
BRANCH   3   5
ATOM      5  C   UNL     1       3.316   6.043  17.885  0.00  0.00    +0.000 C 
ATOM      6  C   UNL     1       3.018   4.589  18.150  0.00  0.00    +0.000 A 
ATOM      7  C   UNL     1       1.879   3.873  17.817  0.00  0.00    +0.000 A 
ATOM      8  C   UNL     1       1.838   2.510  18.125  0.00  0.00    +0.000 A 
ATOM      9  C   UNL     1       2.915   1.889  18.779  0.00  0.00    +0.000 A 
ATOM     10  C   UNL     1       4.057   2.617  19.116  0.00  0.00    +0.000 A 
ATOM     11  C   UNL     1       4.102   3.958  18.776  0.00  0.00    +0.000 A 
ATOM     12  C   UNL     1       5.241   4.915  18.976  0.00  0.00    +0.000 C 
ATOM     13  C   UNL     1       4.874   6.027  17.974  0.00  0.00    +0.000 C 
BRANCH  13  14
ATOM     14  O   UNL     1       5.458   5.720  16.691  0.00  0.00    +0.000 OA
ATOM     15  H   UNL     1       5.175   6.412  16.067  0.00  0.00    +0.000 HD
ENDBRANCH  13  14
ENDBRANCH   3   5
BRANCH   2  16
ATOM     16  C   UNL     1       1.455   8.946  19.483  0.00  0.00    +0.000 A 
ATOM     17  C   UNL     1       1.168   8.475  20.767  0.00  0.00    +0.000 A 
ATOM     18  C   UNL     1       0.456   9.284  21.656  0.00  0.00    +0.000 A 
ATOM     19  C   UNL     1       0.030  10.560  21.267  0.00  0.00    +0.000 A 
ATOM     20  C   UNL     1       0.318  11.051  19.988  0.00  0.00    +0.000 A 
ATOM     21  C   UNL     1       1.037  10.233  19.105  0.00  0.00    +0.000 A 
BRANCH  20  22
ATOM     22  C   UNL     1      -0.126  12.376  19.586  0.00  0.00    +0.000 A 
ATOM     23  C   UNL     1       0.539  13.403  18.875  0.00  0.00    +0.000 A 
ATOM     24  N   UNL     1      -0.216  14.491  18.705  0.00  0.00    +0.000 NA
ATOM     25  N   UNL     1      -1.372  14.168  19.307  0.00  0.00    +0.000 N 
ATOM     26  C   UNL     1      -1.373  12.911  19.840  0.00  0.00    +0.000 A 
ATOM     27  H   UNL     1      -2.120  14.853  19.316  0.00  0.00    +0.000 HD
ENDBRANCH  20  22
ENDBRANCH   2  16
TORSDOF 4
ENDMDL
MODEL 5
REMARK VINA RESULT:      -7.8      1.611      2.149
REMARK  Name = 
REMARK  4 active torsions:
REMARK  status: ('A' for Active; 'I' for Inactive)
REMARK    1  A    between atoms: C_2  and  C_14
REMARK    2  A    between atoms: N_3  and  C_4
REMARK    3  A    between atoms: C_12  and  O_13
REMARK    4  A    between atoms: C_18  and  C_19
REMARK                            x       y       z     vdW  Elec       q    Type
REMARK                         _______ _______ _______ _____ _____    ______ ____
ROOT
ATOM      1  O   UNL     1       1.652   8.834  17.762  0.00  0.00    +0.000 OA
ATOM      2  C   UNL     1       1.755   8.321  18.871  0.00  0.00    +0.000 C 
ATOM      3  N   UNL     1       2.443   7.144  19.088  0.00  0.00    +0.000 N 
ATOM      4  H   UNL     1       2.313   6.645  19.957  0.00  0.00    +0.000 HD
ENDROOT
BRANCH   3   5
ATOM      5  C   UNL     1       2.983   6.409  17.953  0.00  0.00    +0.000 C 
ATOM      6  C   UNL     1       2.807   4.922  18.126  0.00  0.00    +0.000 A 
ATOM      7  C   UNL     1       1.673   4.160  17.889  0.00  0.00    +0.000 A 
ATOM      8  C   UNL     1       1.752   2.778  18.078  0.00  0.00    +0.000 A 
ATOM      9  C   UNL     1       2.942   2.180  18.520  0.00  0.00    +0.000 A 
ATOM     10  C   UNL     1       4.079   2.953  18.762  0.00  0.00    +0.000 A 
ATOM     11  C   UNL     1       4.002   4.317  18.540  0.00  0.00    +0.000 A 
ATOM     12  C   UNL     1       5.103   5.329  18.667  0.00  0.00    +0.000 C 
ATOM     13  C   UNL     1       4.537   6.491  17.827  0.00  0.00    +0.000 C 
BRANCH  13  14
ATOM     14  O   UNL     1       4.949   6.328  16.455  0.00  0.00    +0.000 OA
ATOM     15  H   UNL     1       4.143   6.269  15.911  0.00  0.00    +0.000 HD
ENDBRANCH  13  14
ENDBRANCH   3   5
BRANCH   2  16
ATOM     16  C   UNL     1       1.088   8.961  20.039  0.00  0.00    +0.000 A 
ATOM     17  C   UNL     1       1.307   8.546  21.355  0.00  0.00    +0.000 A 
ATOM     18  C   UNL     1       0.672   9.216  22.404  0.00  0.00    +0.000 A 
ATOM     19  C   UNL     1      -0.179  10.296  22.142  0.00  0.00    +0.000 A 
ATOM     20  C   UNL     1      -0.402  10.731  20.830  0.00  0.00    +0.000 A 
ATOM     21  C   UNL     1       0.244  10.054  19.785  0.00  0.00    +0.000 A 
BRANCH  20  22
ATOM     22  C   UNL     1      -1.287  11.852  20.561  0.00  0.00    +0.000 A 
ATOM     23  C   UNL     1      -1.506  13.055  21.273  0.00  0.00    +0.000 A 
ATOM     24  N   UNL     1      -2.417  13.843  20.696  0.00  0.00    +0.000 NA
ATOM     25  N   UNL     1      -2.789  13.147  19.609  0.00  0.00    +0.000 N 
ATOM     26  C   UNL     1      -2.135  11.956  19.477  0.00  0.00    +0.000 A 
ATOM     27  H   UNL     1      -3.493  13.547  18.998  0.00  0.00    +0.000 HD
ENDBRANCH  20  22
ENDBRANCH   2  16
TORSDOF 4
ENDMDL
MODEL 6
REMARK VINA RESULT:      -7.6      3.120      8.312
REMARK  Name = 
REMARK  4 active torsions:
REMARK  status: ('A' for Active; 'I' for Inactive)
REMARK    1  A    between atoms: C_2  and  C_14
REMARK    2  A    between atoms: N_3  and  C_4
REMARK    3  A    between atoms: C_12  and  O_13
REMARK    4  A    between atoms: C_18  and  C_19
REMARK                            x       y       z     vdW  Elec       q    Type
REMARK                         _______ _______ _______ _____ _____    ______ ____
ROOT
ATOM      1  O   UNL     1       1.791   8.938  17.095  0.00  0.00    +0.000 OA
ATOM      2  C   UNL     1       1.839   8.588  18.269  0.00  0.00    +0.000 C 
ATOM      3  N   UNL     1       1.194   9.273  19.278  0.00  0.00    +0.000 N 
ATOM      4  H   UNL     1       1.441   9.090  20.241  0.00  0.00    +0.000 HD
ENDROOT
BRANCH   3   5
ATOM      5  C   UNL     1       0.512  10.523  18.976  0.00  0.00    +0.000 C 
ATOM      6  C   UNL     1       1.442  11.702  19.105  0.00  0.00    +0.000 A 
ATOM      7  C   UNL     1       2.375  12.162  18.189  0.00  0.00    +0.000 A 
ATOM      8  C   UNL     1       3.104  13.313  18.505  0.00  0.00    +0.000 A 
ATOM      9  C   UNL     1       2.913  13.970  19.731  0.00  0.00    +0.000 A 
ATOM     10  C   UNL     1       1.975  13.498  20.651  0.00  0.00    +0.000 A 
ATOM     11  C   UNL     1       1.234  12.379  20.315  0.00  0.00    +0.000 A 
ATOM     12  C   UNL     1       0.134  11.737  21.110  0.00  0.00    +0.000 C 
ATOM     13  C   UNL     1      -0.581  10.917  20.018  0.00  0.00    +0.000 C 
BRANCH  13  14
ATOM     14  O   UNL     1      -1.603  11.731  19.407  0.00  0.00    +0.000 OA
ATOM     15  H   UNL     1      -2.152  11.147  18.854  0.00  0.00    +0.000 HD
ENDBRANCH  13  14
ENDBRANCH   3   5
BRANCH   2  16
ATOM     16  C   UNL     1       2.651   7.399  18.646  0.00  0.00    +0.000 A 
ATOM     17  C   UNL     1       2.345   6.590  19.744  0.00  0.00    +0.000 A 
ATOM     18  C   UNL     1       3.133   5.470  20.017  0.00  0.00    +0.000 A 
ATOM     19  C   UNL     1       4.224   5.155  19.200  0.00  0.00    +0.000 A 
ATOM     20  C   UNL     1       4.540   5.948  18.090  0.00  0.00    +0.000 A 
ATOM     21  C   UNL     1       3.740   7.068  17.821  0.00  0.00    +0.000 A 
BRANCH  20  22
ATOM     22  C   UNL     1       5.674   5.619  17.242  0.00  0.00    +0.000 A 
ATOM     23  C   UNL     1       5.967   5.972  15.903  0.00  0.00    +0.000 A 
ATOM     24  N   UNL     1       7.124   5.461  15.472  0.00  0.00    +0.000 NA
ATOM     25  N   UNL     1       7.580   4.777  16.535  0.00  0.00    +0.000 N 
ATOM     26  C   UNL     1       6.756   4.849  17.620  0.00  0.00    +0.000 A 
ATOM     27  H   UNL     1       8.463   4.285  16.449  0.00  0.00    +0.000 HD
ENDBRANCH  20  22
ENDBRANCH   2  16
TORSDOF 4
ENDMDL
MODEL 7
REMARK VINA RESULT:      -7.6      2.577      8.272
REMARK  Name = 
REMARK  4 active torsions:
REMARK  status: ('A' for Active; 'I' for Inactive)
REMARK    1  A    between atoms: C_2  and  C_14
REMARK    2  A    between atoms: N_3  and  C_4
REMARK    3  A    between atoms: C_12  and  O_13
REMARK    4  A    between atoms: C_18  and  C_19
REMARK                            x       y       z     vdW  Elec       q    Type
REMARK                         _______ _______ _______ _____ _____    ______ ____
ROOT
ATOM      1  O   UNL     1       1.558   7.323  20.752  0.00  0.00    +0.000 OA
ATOM      2  C   UNL     1       1.890   7.799  19.672  0.00  0.00    +0.000 C 
ATOM      3  N   UNL     1       1.458   9.036  19.238  0.00  0.00    +0.000 N 
ATOM      4  H   UNL     1       1.566   9.287  18.265  0.00  0.00    +0.000 HD
ENDROOT
BRANCH   3   5
ATOM      5  C   UNL     1       0.484   9.775  20.029  0.00  0.00    +0.000 C 
ATOM      6  C   UNL     1      -0.578  10.393  19.157  0.00  0.00    +0.000 A 
ATOM      7  C   UNL     1      -1.701   9.788  18.613  0.00  0.00    +0.000 A 
ATOM      8  C   UNL     1      -2.581  10.573  17.864  0.00  0.00    +0.000 A 
ATOM      9  C   UNL     1      -2.321  11.936  17.646  0.00  0.00    +0.000 A 
ATOM     10  C   UNL     1      -1.186  12.538  18.192  0.00  0.00    +0.000 A 
ATOM     11  C   UNL     1      -0.337  11.761  18.961  0.00  0.00    +0.000 A 
ATOM     12  C   UNL     1       0.895  12.201  19.695  0.00  0.00    +0.000 C 
ATOM     13  C   UNL     1       1.062  11.054  20.711  0.00  0.00    +0.000 C 
BRANCH  13  14
ATOM     14  O   UNL     1       0.326  11.372  21.910  0.00  0.00    +0.000 OA
ATOM     15  H   UNL     1      -0.551  10.953  21.837  0.00  0.00    +0.000 HD
ENDBRANCH  13  14
ENDBRANCH   3   5
BRANCH   2  16
ATOM     16  C   UNL     1       2.766   7.011  18.762  0.00  0.00    +0.000 A 
ATOM     17  C   UNL     1       3.457   7.585  17.692  0.00  0.00    +0.000 A 
ATOM     18  C   UNL     1       4.288   6.789  16.901  0.00  0.00    +0.000 A 
ATOM     19  C   UNL     1       4.430   5.423  17.173  0.00  0.00    +0.000 A 
ATOM     20  C   UNL     1       3.752   4.833  18.247  0.00  0.00    +0.000 A 
ATOM     21  C   UNL     1       2.924   5.643  19.038  0.00  0.00    +0.000 A 
BRANCH  20  22
ATOM     22  C   UNL     1       3.901   3.415  18.527  0.00  0.00    +0.000 A 
ATOM     23  C   UNL     1       3.398   2.276  17.853  0.00  0.00    +0.000 A 
ATOM     24  N   UNL     1       3.756   1.128  18.434  0.00  0.00    +0.000 NA
ATOM     25  N   UNL     1       4.492   1.524  19.485  0.00  0.00    +0.000 N 
ATOM     26  C   UNL     1       4.617   2.880  19.579  0.00  0.00    +0.000 A 
ATOM     27  H   UNL     1       4.881   0.814  20.097  0.00  0.00    +0.000 HD
ENDBRANCH  20  22
ENDBRANCH   2  16
TORSDOF 4
ENDMDL
MODEL 8
REMARK VINA RESULT:      -7.5      2.722      3.207
REMARK  Name = 
REMARK  4 active torsions:
REMARK  status: ('A' for Active; 'I' for Inactive)
REMARK    1  A    between atoms: C_2  and  C_14
REMARK    2  A    between atoms: N_3  and  C_4
REMARK    3  A    between atoms: C_12  and  O_13
REMARK    4  A    between atoms: C_18  and  C_19
REMARK                            x       y       z     vdW  Elec       q    Type
REMARK                         _______ _______ _______ _____ _____    ______ ____
ROOT
ATOM      1  O   UNL     1       3.310   8.178  16.765  0.00  0.00    +0.000 OA
ATOM      2  C   UNL     1       2.707   8.093  17.829  0.00  0.00    +0.000 C 
ATOM      3  N   UNL     1       2.562   6.902  18.511  0.00  0.00    +0.000 N 
ATOM      4  H   UNL     1       1.878   6.832  19.251  0.00  0.00    +0.000 HD
ENDROOT
BRANCH   3   5
ATOM      5  C   UNL     1       3.042   5.666  17.908  0.00  0.00    +0.000 C 
ATOM      6  C   UNL     1       2.449   4.457  18.585  0.00  0.00    +0.000 A 
ATOM      7  C   UNL     1       1.199   3.892  18.390  0.00  0.00    +0.000 A 
ATOM      8  C   UNL     1       0.875   2.734  19.103  0.00  0.00    +0.000 A 
ATOM      9  C   UNL     1       1.786   2.173  20.013  0.00  0.00    +0.000 A 
ATOM     10  C   UNL     1       3.042   2.750  20.208  0.00  0.00    +0.000 A 
ATOM     11  C   UNL     1       3.366   3.877  19.473  0.00  0.00    +0.000 A 
ATOM     12  C   UNL     1       4.668   4.622  19.467  0.00  0.00    +0.000 C 
ATOM     13  C   UNL     1       4.562   5.397  18.139  0.00  0.00    +0.000 C 
BRANCH  13  14
ATOM     14  O   UNL     1       5.107   4.590  17.075  0.00  0.00    +0.000 OA
ATOM     15  H   UNL     1       4.604   4.793  16.265  0.00  0.00    +0.000 HD
ENDBRANCH  13  14
ENDBRANCH   3   5
BRANCH   2  16
ATOM     16  C   UNL     1       2.069   9.307  18.409  0.00  0.00    +0.000 A 
ATOM     17  C   UNL     1       2.085  10.549  17.768  0.00  0.00    +0.000 A 
ATOM     18  C   UNL     1       1.435  11.636  18.357  0.00  0.00    +0.000 A 
ATOM     19  C   UNL     1       0.771  11.488  19.580  0.00  0.00    +0.000 A 
ATOM     20  C   UNL     1       0.737  10.249  20.231  0.00  0.00    +0.000 A 
ATOM     21  C   UNL     1       1.389   9.162  19.629  0.00  0.00    +0.000 A 
BRANCH  20  22
ATOM     22  C   UNL     1       0.048  10.097  21.501  0.00  0.00    +0.000 A 
ATOM     23  C   UNL     1      -0.556  11.055  22.351  0.00  0.00    +0.000 A 
ATOM     24  N   UNL     1      -1.090  10.512  23.449  0.00  0.00    +0.000 NA
ATOM     25  N   UNL     1      -0.830   9.202  23.309  0.00  0.00    +0.000 N 
ATOM     26  C   UNL     1      -0.162   8.901  22.157  0.00  0.00    +0.000 A 
ATOM     27  H   UNL     1      -1.141   8.568  24.038  0.00  0.00    +0.000 HD
ENDBRANCH  20  22
ENDBRANCH   2  16
TORSDOF 4
ENDMDL
MODEL 9
REMARK VINA RESULT:      -7.5      2.086      2.755
REMARK  Name = 
REMARK  4 active torsions:
REMARK  status: ('A' for Active; 'I' for Inactive)
REMARK    1  A    between atoms: C_2  and  C_14
REMARK    2  A    between atoms: N_3  and  C_4
REMARK    3  A    between atoms: C_12  and  O_13
REMARK    4  A    between atoms: C_18  and  C_19
REMARK                            x       y       z     vdW  Elec       q    Type
REMARK                         _______ _______ _______ _____ _____    ______ ____
ROOT
ATOM      1  O   UNL     1       1.439   8.531  21.589  0.00  0.00    +0.000 OA
ATOM      2  C   UNL     1       1.322   8.698  20.380  0.00  0.00    +0.000 C 
ATOM      3  N   UNL     1       1.813   7.802  19.452  0.00  0.00    +0.000 N 
ATOM      4  H   UNL     1       1.898   8.083  18.485  0.00  0.00    +0.000 HD
ENDROOT
BRANCH   3   5
ATOM      5  C   UNL     1       2.597   6.661  19.901  0.00  0.00    +0.000 C 
ATOM      6  C   UNL     1       3.206   5.920  18.739  0.00  0.00    +0.000 A 
ATOM      7  C   UNL     1       4.352   6.237  18.026  0.00  0.00    +0.000 A 
ATOM      8  C   UNL     1       4.758   5.374  17.004  0.00  0.00    +0.000 A 
ATOM      9  C   UNL     1       4.009   4.228  16.692  0.00  0.00    +0.000 A 
ATOM     10  C   UNL     1       2.854   3.917  17.410  0.00  0.00    +0.000 A 
ATOM     11  C   UNL     1       2.477   4.759  18.442  0.00  0.00    +0.000 A 
ATOM     12  C   UNL     1       1.322   4.593  19.385  0.00  0.00    +0.000 C 
ATOM     13  C   UNL     1       1.745   5.520  20.541  0.00  0.00    +0.000 C 
BRANCH  13  14
ATOM     14  O   UNL     1       2.528   4.766  21.490  0.00  0.00    +0.000 OA
ATOM     15  H   UNL     1       1.911   4.376  22.135  0.00  0.00    +0.000 HD
ENDBRANCH  13  14
ENDBRANCH   3   5
BRANCH   2  16
ATOM     16  C   UNL     1       0.659   9.931  19.872  0.00  0.00    +0.000 A 
ATOM     17  C   UNL     1       1.054  11.215  20.255  0.00  0.00    +0.000 A 
ATOM     18  C   UNL     1       0.406  12.327  19.711  0.00  0.00    +0.000 A 
ATOM     19  C   UNL     1      -0.632  12.161  18.787  0.00  0.00    +0.000 A 
ATOM     20  C   UNL     1      -1.034  10.881  18.385  0.00  0.00    +0.000 A 
ATOM     21  C   UNL     1      -0.375   9.771  18.934  0.00  0.00    +0.000 A 
BRANCH  20  22
ATOM     22  C   UNL     1      -2.113  10.710  17.427  0.00  0.00    +0.000 A 
ATOM     23  C   UNL     1      -2.232   9.858  16.303  0.00  0.00    +0.000 A 
ATOM     24  N   UNL     1      -3.396  10.002  15.662  0.00  0.00    +0.000 NA
ATOM     25  N   UNL     1      -4.030  10.949  16.373  0.00  0.00    +0.000 N 
ATOM     26  C   UNL     1      -3.311  11.397  17.443  0.00  0.00    +0.000 A 
ATOM     27  H   UNL     1      -4.954  11.241  16.071  0.00  0.00    +0.000 HD
ENDBRANCH  20  22
ENDBRANCH   2  16
TORSDOF 4
ENDMDL
