MODEL 1
REMARK VINA RESULT:      -9.1      0.000      0.000
REMARK  Name = 
REMARK  6 active torsions:
REMARK  status: ('A' for Active; 'I' for Inactive)
REMARK    1  A    between atoms: C_1  and  C_2
REMARK    2  A    between atoms: C_5  and  N_6
REMARK    3  A    between atoms: C_7  and  C_9
REMARK    4  A    between atoms: C_13  and  S_14
REMARK    5  A    between atoms: S_14  and  N_17
REMARK    6  A    between atoms: N_17  and  C_18
REMARK                            x       y       z     vdW  Elec       q    Type
REMARK                         _______ _______ _______ _____ _____    ______ ____
ROOT
ATOM      1  C   UNL     1       3.247   5.607  18.546  0.00  0.00    +0.000 A 
ATOM      2  C   UNL     1       2.776   4.315  18.254  0.00  0.00    +0.000 A 
ATOM      3  C   UNL     1       3.555   3.413  17.532  0.00  0.00    +0.000 A 
ATOM      4  C   UNL     1       4.819   3.793  17.101  0.00  0.00    +0.000 A 
ATOM      5  C   UNL     1       5.292   5.082  17.385  0.00  0.00    +0.000 A 
ATOM      6  C   UNL     1       4.508   6.006  18.096  0.00  0.00    +0.000 A 
ENDROOT
BRANCH   1   8
ATOM      7  N   UNL     1       2.202   7.760  19.155  0.00  0.00    +0.000 N 
ATOM      8  C   UNL     1       2.400   6.423  19.457  0.00  0.00    +0.000 C 
ATOM      9  O   UNL     1       1.928   5.821  20.419  0.00  0.00    +0.000 OA
ATOM     10  H   UNL     1       2.582   8.118  18.289  0.00  0.00    +0.000 HD
BRANCH   7  15
ATOM     11  C   UNL     1      -0.868  11.356  22.436  0.00  0.00    +0.000 C 
ATOM     12  C   UNL     1      -0.064  10.432  21.576  0.00  0.00    +0.000 A 
ATOM     13  C   UNL     1      -0.024  10.608  20.197  0.00  0.00    +0.000 A 
ATOM     14  C   UNL     1       0.720   9.738  19.395  0.00  0.00    +0.000 A 
ATOM     15  C   UNL     1       1.446   8.672  19.942  0.00  0.00    +0.000 A 
ATOM     16  C   UNL     1       1.413   8.499  21.326  0.00  0.00    +0.000 A 
ATOM     17  C   UNL     1       0.662   9.373  22.126  0.00  0.00    +0.000 A 
ATOM     18  F   UNL     1       0.643   9.178  23.453  0.00  0.00    +0.000 F 
ENDBRANCH   7  15
ENDBRANCH   1   8
BRANCH   5  19
ATOM     19  S   UNL     1       6.913   5.526  16.808  0.00  0.00    +0.000 S 
ATOM     20  O   UNL     1       7.216   6.823  17.372  0.00  0.00    +0.000 OA
ATOM     21  O   UNL     1       7.794   4.396  16.988  0.00  0.00    +0.000 OA
BRANCH  19  22
ATOM     22  N   UNL     1       6.692   5.778  15.150  0.00  0.00    +0.000 NA
ATOM     23  H   UNL     1       7.135   6.659  14.881  0.00  0.00    +0.000 HD
BRANCH  22  24
ATOM     24  C   UNL     1       6.879   4.658  14.221  0.00  0.00    +0.000 C 
ATOM     25  C   UNL     1       5.575   4.105  13.667  0.00  0.00    +0.000 C 
ATOM     26  C   UNL     1       6.019   3.326  12.438  0.00  0.00    +0.000 C 
ATOM     27  C   UNL     1       7.223   4.087  11.887  0.00  0.00    +0.000 C 
ATOM     28  C   UNL     1       7.595   5.121  12.951  0.00  0.00    +0.000 C 
ENDBRANCH  22  24
ENDBRANCH  19  22
ENDBRANCH   5  19
TORSDOF 5
ENDMDL
MODEL 2
REMARK VINA RESULT:      -9.0      2.027      2.131
REMARK  Name = 
REMARK  6 active torsions:
REMARK  status: ('A' for Active; 'I' for Inactive)
REMARK    1  A    between atoms: C_1  and  C_2
REMARK    2  A    between atoms: C_5  and  N_6
REMARK    3  A    between atoms: C_7  and  C_9
REMARK    4  A    between atoms: C_13  and  S_14
REMARK    5  A    between atoms: S_14  and  N_17
REMARK    6  A    between atoms: N_17  and  C_18
REMARK                            x       y       z     vdW  Elec       q    Type
REMARK                         _______ _______ _______ _____ _____    ______ ____
ROOT
ATOM      1  C   UNL     1       3.174   6.545  17.965  0.00  0.00    +0.000 A 
ATOM      2  C   UNL     1       2.568   5.277  18.015  0.00  0.00    +0.000 A 
ATOM      3  C   UNL     1       3.259   4.135  17.614  0.00  0.00    +0.000 A 
ATOM      4  C   UNL     1       4.568   4.250  17.165  0.00  0.00    +0.000 A 
ATOM      5  C   UNL     1       5.176   5.513  17.107  0.00  0.00    +0.000 A 
ATOM      6  C   UNL     1       4.483   6.673  17.492  0.00  0.00    +0.000 A 
ENDROOT
BRANCH   1   8
ATOM      7  N   UNL     1       1.869   8.628  17.727  0.00  0.00    +0.000 N 
ATOM      8  C   UNL     1       2.401   7.664  18.568  0.00  0.00    +0.000 C 
ATOM      9  O   UNL     1       2.289   7.629  19.791  0.00  0.00    +0.000 OA
ATOM     10  H   UNL     1       1.965   8.500  16.728  0.00  0.00    +0.000 HD
BRANCH   7  15
ATOM     11  C   UNL     1      -1.202  13.206  19.378  0.00  0.00    +0.000 C 
ATOM     12  C   UNL     1      -0.396  12.016  18.960  0.00  0.00    +0.000 A 
ATOM     13  C   UNL     1       0.994  12.052  19.016  0.00  0.00    +0.000 A 
ATOM     14  C   UNL     1       1.745  10.943  18.616  0.00  0.00    +0.000 A 
ATOM     15  C   UNL     1       1.135   9.769  18.154  0.00  0.00    +0.000 A 
ATOM     16  C   UNL     1      -0.258   9.729  18.105  0.00  0.00    +0.000 A 
ATOM     17  C   UNL     1      -1.007  10.846  18.504  0.00  0.00    +0.000 A 
ATOM     18  F   UNL     1      -2.345  10.782  18.440  0.00  0.00    +0.000 F 
ENDBRANCH   7  15
ENDBRANCH   1   8
BRANCH   5  19
ATOM     19  S   UNL     1       6.850   5.612  16.521  0.00  0.00    +0.000 S 
ATOM     20  O   UNL     1       7.373   6.885  16.966  0.00  0.00    +0.000 OA
ATOM     21  O   UNL     1       7.520   4.369  16.820  0.00  0.00    +0.000 OA
BRANCH  19  22
ATOM     22  N   UNL     1       6.677   5.739  14.843  0.00  0.00    +0.000 NA
ATOM     23  H   UNL     1       7.189   6.561  14.513  0.00  0.00    +0.000 HD
BRANCH  22  24
ATOM     24  C   UNL     1       6.797   4.535  14.014  0.00  0.00    +0.000 C 
ATOM     25  C   UNL     1       5.460   3.994  13.534  0.00  0.00    +0.000 C 
ATOM     26  C   UNL     1       5.844   3.090  12.371  0.00  0.00    +0.000 C 
ATOM     27  C   UNL     1       7.067   3.747  11.733  0.00  0.00    +0.000 C 
ATOM     28  C   UNL     1       7.504   4.853  12.694  0.00  0.00    +0.000 C 
ENDBRANCH  22  24
ENDBRANCH  19  22
ENDBRANCH   5  19
TORSDOF 5
ENDMDL
MODEL 3
REMARK VINA RESULT:      -9.0      2.064      2.198
REMARK  Name = 
REMARK  6 active torsions:
REMARK  status: ('A' for Active; 'I' for Inactive)
REMARK    1  A    between atoms: C_1  and  C_2
REMARK    2  A    between atoms: C_5  and  N_6
REMARK    3  A    between atoms: C_7  and  C_9
REMARK    4  A    between atoms: C_13  and  S_14
REMARK    5  A    between atoms: S_14  and  N_17
REMARK    6  A    between atoms: N_17  and  C_18
REMARK                            x       y       z     vdW  Elec       q    Type
REMARK                         _______ _______ _______ _____ _____    ______ ____
ROOT
ATOM      1  C   UNL     1       3.229   6.537  18.011  0.00  0.00    +0.000 A 
ATOM      2  C   UNL     1       2.663   5.259  18.166  0.00  0.00    +0.000 A 
ATOM      3  C   UNL     1       3.378   4.111  17.826  0.00  0.00    +0.000 A 
ATOM      4  C   UNL     1       4.671   4.232  17.335  0.00  0.00    +0.000 A 
ATOM      5  C   UNL     1       5.239   5.504  17.174  0.00  0.00    +0.000 A 
ATOM      6  C   UNL     1       4.521   6.668  17.495  0.00  0.00    +0.000 A 
ENDROOT
BRANCH   1   8
ATOM      7  N   UNL     1       2.098   8.710  17.703  0.00  0.00    +0.000 N 
ATOM      8  C   UNL     1       2.438   7.673  18.556  0.00  0.00    +0.000 C 
ATOM      9  O   UNL     1       2.138   7.586  19.744  0.00  0.00    +0.000 OA
ATOM     10  H   UNL     1       2.339   8.626  16.724  0.00  0.00    +0.000 HD
BRANCH   7  15
ATOM     11  C   UNL     1      -0.718  13.472  19.290  0.00  0.00    +0.000 C 
ATOM     12  C   UNL     1       0.005  12.232  18.867  0.00  0.00    +0.000 A 
ATOM     13  C   UNL     1      -0.693  11.049  18.647  0.00  0.00    +0.000 A 
ATOM     14  C   UNL     1      -0.014   9.889  18.262  0.00  0.00    +0.000 A 
ATOM     15  C   UNL     1       1.375   9.875  18.081  0.00  0.00    +0.000 A 
ATOM     16  C   UNL     1       2.076  11.062  18.294  0.00  0.00    +0.000 A 
ATOM     17  C   UNL     1       1.390  12.222  18.685  0.00  0.00    +0.000 A 
ATOM     18  F   UNL     1       2.090  13.348  18.888  0.00  0.00    +0.000 F 
ENDBRANCH   7  15
ENDBRANCH   1   8
BRANCH   5  19
ATOM     19  S   UNL     1       6.894   5.609  16.536  0.00  0.00    +0.000 S 
ATOM     20  O   UNL     1       7.428   6.881  16.971  0.00  0.00    +0.000 OA
ATOM     21  O   UNL     1       7.576   4.366  16.810  0.00  0.00    +0.000 OA
BRANCH  19  22
ATOM     22  N   UNL     1       6.670   5.743  14.865  0.00  0.00    +0.000 NA
ATOM     23  H   UNL     1       7.139   6.587  14.528  0.00  0.00    +0.000 HD
BRANCH  22  24
ATOM     24  C   UNL     1       6.814   4.551  14.022  0.00  0.00    +0.000 C 
ATOM     25  C   UNL     1       5.487   3.968  13.565  0.00  0.00    +0.000 C 
ATOM     26  C   UNL     1       5.878   3.089  12.385  0.00  0.00    +0.000 C 
ATOM     27  C   UNL     1       7.064   3.793  11.729  0.00  0.00    +0.000 C 
ATOM     28  C   UNL     1       7.482   4.906  12.691  0.00  0.00    +0.000 C 
ENDBRANCH  22  24
ENDBRANCH  19  22
ENDBRANCH   5  19
TORSDOF 5
ENDMDL
MODEL 4
REMARK VINA RESULT:      -8.7      0.967      1.340
REMARK  Name = 
REMARK  6 active torsions:
REMARK  status: ('A' for Active; 'I' for Inactive)
REMARK    1  A    between atoms: C_1  and  C_2
REMARK    2  A    between atoms: C_5  and  N_6
REMARK    3  A    between atoms: C_7  and  C_9
REMARK    4  A    between atoms: C_13  and  S_14
REMARK    5  A    between atoms: S_14  and  N_17
REMARK    6  A    between atoms: N_17  and  C_18
REMARK                            x       y       z     vdW  Elec       q    Type
REMARK                         _______ _______ _______ _____ _____    ______ ____
ROOT
ATOM      1  C   UNL     1       3.035   5.369  18.695  0.00  0.00    +0.000 A 
ATOM      2  C   UNL     1       2.791   3.988  18.601  0.00  0.00    +0.000 A 
ATOM      3  C   UNL     1       3.649   3.155  17.885  0.00  0.00    +0.000 A 
ATOM      4  C   UNL     1       4.767   3.697  17.263  0.00  0.00    +0.000 A 
ATOM      5  C   UNL     1       5.012   5.074  17.350  0.00  0.00    +0.000 A 
ATOM      6  C   UNL     1       4.144   5.926  18.053  0.00  0.00    +0.000 A 
ENDROOT
BRANCH   1   8
ATOM      7  N   UNL     1       2.206   7.513  19.598  0.00  0.00    +0.000 N 
ATOM      8  C   UNL     1       2.146   6.129  19.615  0.00  0.00    +0.000 C 
ATOM      9  O   UNL     1       1.409   5.445  20.322  0.00  0.00    +0.000 OA
ATOM     10  H   UNL     1       2.800   7.960  18.913  0.00  0.00    +0.000 HD
BRANCH   7  15
ATOM     11  C   UNL     1      -0.892  11.079  22.885  0.00  0.00    +0.000 C 
ATOM     12  C   UNL     1      -0.090  10.141  22.038  0.00  0.00    +0.000 A 
ATOM     13  C   UNL     1       0.816   9.263  22.624  0.00  0.00    +0.000 A 
ATOM     14  C   UNL     1       1.572   8.395  21.831  0.00  0.00    +0.000 A 
ATOM     15  C   UNL     1       1.444   8.373  20.436  0.00  0.00    +0.000 A 
ATOM     16  C   UNL     1       0.530   9.248  19.848  0.00  0.00    +0.000 A 
ATOM     17  C   UNL     1      -0.223  10.120  20.648  0.00  0.00    +0.000 A 
ATOM     18  F   UNL     1      -1.089  10.955  20.055  0.00  0.00    +0.000 F 
ENDBRANCH   7  15
ENDBRANCH   1   8
BRANCH   5  19
ATOM     19  S   UNL     1       6.450   5.724  16.532  0.00  0.00    +0.000 S 
ATOM     20  O   UNL     1       6.542   7.120  16.897  0.00  0.00    +0.000 OA
ATOM     21  O   UNL     1       7.551   4.811  16.738  0.00  0.00    +0.000 OA
BRANCH  19  22
ATOM     22  N   UNL     1       6.025   5.695  14.895  0.00  0.00    +0.000 NA
ATOM     23  H   UNL     1       6.156   6.628  14.497  0.00  0.00    +0.000 HD
BRANCH  22  24
ATOM     24  C   UNL     1       6.466   4.574  14.057  0.00  0.00    +0.000 C 
ATOM     25  C   UNL     1       5.331   3.894  13.309  0.00  0.00    +0.000 C 
ATOM     26  C   UNL     1       6.047   3.128  12.206  0.00  0.00    +0.000 C 
ATOM     27  C   UNL     1       7.262   3.981  11.841  0.00  0.00    +0.000 C 
ATOM     28  C   UNL     1       7.353   5.069  12.912  0.00  0.00    +0.000 C 
ENDBRANCH  22  24
ENDBRANCH  19  22
ENDBRANCH   5  19
TORSDOF 5
ENDMDL
MODEL 5
REMARK VINA RESULT:      -8.7      1.076      1.616
REMARK  Name = 
REMARK  6 active torsions:
REMARK  status: ('A' for Active; 'I' for Inactive)
REMARK    1  A    between atoms: C_1  and  C_2
REMARK    2  A    between atoms: C_5  and  N_6
REMARK    3  A    between atoms: C_7  and  C_9
REMARK    4  A    between atoms: C_13  and  S_14
REMARK    5  A    between atoms: S_14  and  N_17
REMARK    6  A    between atoms: N_17  and  C_18
REMARK                            x       y       z     vdW  Elec       q    Type
REMARK                         _______ _______ _______ _____ _____    ______ ____
ROOT
ATOM      1  C   UNL     1       3.097   5.736  18.633  0.00  0.00    +0.000 A 
ATOM      2  C   UNL     1       2.574   4.540  18.112  0.00  0.00    +0.000 A 
ATOM      3  C   UNL     1       3.341   3.721  17.285  0.00  0.00    +0.000 A 
ATOM      4  C   UNL     1       4.644   4.089  16.977  0.00  0.00    +0.000 A 
ATOM      5  C   UNL     1       5.169   5.284  17.489  0.00  0.00    +0.000 A 
ATOM      6  C   UNL     1       4.399   6.126  18.309  0.00  0.00    +0.000 A 
ENDROOT
BRANCH   1   8
ATOM      7  N   UNL     1       2.042   7.805  19.475  0.00  0.00    +0.000 N 
ATOM      8  C   UNL     1       2.247   6.443  19.629  0.00  0.00    +0.000 C 
ATOM      9  O   UNL     1       1.779   5.737  20.520  0.00  0.00    +0.000 OA
ATOM     10  H   UNL     1       2.420   8.257  18.654  0.00  0.00    +0.000 HD
BRANCH   7  15
ATOM     11  C   UNL     1      -1.039  11.201  22.953  0.00  0.00    +0.000 C 
ATOM     12  C   UNL     1      -0.242  10.307  22.056  0.00  0.00    +0.000 A 
ATOM     13  C   UNL     1       0.621   9.357  22.593  0.00  0.00    +0.000 A 
ATOM     14  C   UNL     1       1.372   8.529  21.754  0.00  0.00    +0.000 A 
ATOM     15  C   UNL     1       1.283   8.621  20.358  0.00  0.00    +0.000 A 
ATOM     16  C   UNL     1       0.413   9.568  19.818  0.00  0.00    +0.000 A 
ATOM     17  C   UNL     1      -0.335  10.399  20.665  0.00  0.00    +0.000 A 
ATOM     18  F   UNL     1      -1.159  11.304  20.118  0.00  0.00    +0.000 F 
ENDBRANCH   7  15
ENDBRANCH   1   8
BRANCH   5  19
ATOM     19  S   UNL     1       6.839   5.717  17.064  0.00  0.00    +0.000 S 
ATOM     20  O   UNL     1       6.783   7.012  16.421  0.00  0.00    +0.000 OA
ATOM     21  O   UNL     1       7.686   5.474  18.208  0.00  0.00    +0.000 OA
BRANCH  19  22
ATOM     22  N   UNL     1       7.241   4.609  15.851  0.00  0.00    +0.000 NA
ATOM     23  H   UNL     1       7.087   3.659  16.198  0.00  0.00    +0.000 HD
BRANCH  22  24
ATOM     24  C   UNL     1       6.810   4.864  14.472  0.00  0.00    +0.000 C 
ATOM     25  C   UNL     1       7.959   5.176  13.526  0.00  0.00    +0.000 C 
ATOM     26  C   UNL     1       7.354   4.939  12.149  0.00  0.00    +0.000 C 
ATOM     27  C   UNL     1       6.349   3.804  12.337  0.00  0.00    +0.000 C 
ATOM     28  C   UNL     1       6.216   3.600  13.847  0.00  0.00    +0.000 C 
ENDBRANCH  22  24
ENDBRANCH  19  22
ENDBRANCH   5  19
TORSDOF 5
ENDMDL
MODEL 6
REMARK VINA RESULT:      -8.7      1.131      1.376
REMARK  Name = 
REMARK  6 active torsions:
REMARK  status: ('A' for Active; 'I' for Inactive)
REMARK    1  A    between atoms: C_1  and  C_2
REMARK    2  A    between atoms: C_5  and  N_6
REMARK    3  A    between atoms: C_7  and  C_9
REMARK    4  A    between atoms: C_13  and  S_14
REMARK    5  A    between atoms: S_14  and  N_17
REMARK    6  A    between atoms: N_17  and  C_18
REMARK                            x       y       z     vdW  Elec       q    Type
REMARK                         _______ _______ _______ _____ _____    ______ ____
ROOT
ATOM      1  C   UNL     1       3.388   6.640  17.836  0.00  0.00    +0.000 A 
ATOM      2  C   UNL     1       2.689   5.427  17.710  0.00  0.00    +0.000 A 
ATOM      3  C   UNL     1       3.352   4.250  17.366  0.00  0.00    +0.000 A 
ATOM      4  C   UNL     1       4.725   4.275  17.153  0.00  0.00    +0.000 A 
ATOM      5  C   UNL     1       5.425   5.483  17.273  0.00  0.00    +0.000 A 
ATOM      6  C   UNL     1       4.765   6.680  17.601  0.00  0.00    +0.000 A 
ENDROOT
BRANCH   1   8
ATOM      7  N   UNL     1       2.087   7.708  19.644  0.00  0.00    +0.000 N 
ATOM      8  C   UNL     1       2.608   7.793  18.363  0.00  0.00    +0.000 C 
ATOM      9  O   UNL     1       2.498   8.750  17.600  0.00  0.00    +0.000 OA
ATOM     10  H   UNL     1       2.314   6.896  20.202  0.00  0.00    +0.000 HD
BRANCH   7  15
ATOM     11  C   UNL     1      -1.130  11.679  22.290  0.00  0.00    +0.000 C 
ATOM     12  C   UNL     1      -0.286  10.656  21.595  0.00  0.00    +0.000 A 
ATOM     13  C   UNL     1      -0.123  10.698  20.214  0.00  0.00    +0.000 A 
ATOM     14  C   UNL     1       0.657   9.736  19.566  0.00  0.00    +0.000 A 
ATOM     15  C   UNL     1       1.298   8.710  20.273  0.00  0.00    +0.000 A 
ATOM     16  C   UNL     1       1.141   8.672  21.658  0.00  0.00    +0.000 A 
ATOM     17  C   UNL     1       0.354   9.637  22.304  0.00  0.00    +0.000 A 
ATOM     18  F   UNL     1       0.216   9.572  23.636  0.00  0.00    +0.000 F 
ENDBRANCH   7  15
ENDBRANCH   1   8
BRANCH   5  19
ATOM     19  S   UNL     1       7.179   5.468  16.986  0.00  0.00    +0.000 S 
ATOM     20  O   UNL     1       7.529   6.776  16.477  0.00  0.00    +0.000 OA
ATOM     21  O   UNL     1       7.833   4.904  18.143  0.00  0.00    +0.000 OA
BRANCH  19  22
ATOM     22  N   UNL     1       7.361   4.398  15.689  0.00  0.00    +0.000 NA
ATOM     23  H   UNL     1       7.121   3.452  15.997  0.00  0.00    +0.000 HD
BRANCH  22  24
ATOM     24  C   UNL     1       6.867   4.783  14.363  0.00  0.00    +0.000 C 
ATOM     25  C   UNL     1       7.975   5.008  13.346  0.00  0.00    +0.000 C 
ATOM     26  C   UNL     1       7.247   4.928  12.011  0.00  0.00    +0.000 C 
ATOM     27  C   UNL     1       6.124   3.914  12.221  0.00  0.00    +0.000 C 
ATOM     28  C   UNL     1       6.076   3.639  13.725  0.00  0.00    +0.000 C 
ENDBRANCH  22  24
ENDBRANCH  19  22
ENDBRANCH   5  19
TORSDOF 5
ENDMDL
MODEL 7
REMARK VINA RESULT:      -8.6      0.776      1.127
REMARK  Name = 
REMARK  6 active torsions:
REMARK  status: ('A' for Active; 'I' for Inactive)
REMARK    1  A    between atoms: C_1  and  C_2
REMARK    2  A    between atoms: C_5  and  N_6
REMARK    3  A    between atoms: C_7  and  C_9
REMARK    4  A    between atoms: C_13  and  S_14
REMARK    5  A    between atoms: S_14  and  N_17
REMARK    6  A    between atoms: N_17  and  C_18
REMARK                            x       y       z     vdW  Elec       q    Type
REMARK                         _______ _______ _______ _____ _____    ______ ____
ROOT
ATOM      1  C   UNL     1       3.157   5.646  19.089  0.00  0.00    +0.000 A 
ATOM      2  C   UNL     1       3.012   4.248  19.114  0.00  0.00    +0.000 A 
ATOM      3  C   UNL     1       3.947   3.418  18.498  0.00  0.00    +0.000 A 
ATOM      4  C   UNL     1       5.043   3.982  17.857  0.00  0.00    +0.000 A 
ATOM      5  C   UNL     1       5.190   5.376  17.825  0.00  0.00    +0.000 A 
ATOM      6  C   UNL     1       4.244   6.222  18.426  0.00  0.00    +0.000 A 
ENDROOT
BRANCH   1   8
ATOM      7  N   UNL     1       2.113   7.790  19.732  0.00  0.00    +0.000 N 
ATOM      8  C   UNL     1       2.189   6.419  19.914  0.00  0.00    +0.000 C 
ATOM      9  O   UNL     1       1.516   5.755  20.700  0.00  0.00    +0.000 OA
ATOM     10  H   UNL     1       2.667   8.208  18.997  0.00  0.00    +0.000 HD
BRANCH   7  15
ATOM     11  C   UNL     1      -1.328  11.242  22.793  0.00  0.00    +0.000 C 
ATOM     12  C   UNL     1      -0.429  10.355  21.990  0.00  0.00    +0.000 A 
ATOM     13  C   UNL     1      -0.399  10.452  20.602  0.00  0.00    +0.000 A 
ATOM     14  C   UNL     1       0.435   9.616  19.854  0.00  0.00    +0.000 A 
ATOM     15  C   UNL     1       1.263   8.665  20.463  0.00  0.00    +0.000 A 
ATOM     16  C   UNL     1       1.240   8.572  21.855  0.00  0.00    +0.000 A 
ATOM     17  C   UNL     1       0.399   9.411  22.601  0.00  0.00    +0.000 A 
ATOM     18  F   UNL     1       0.393   9.295  23.938  0.00  0.00    +0.000 F 
ENDBRANCH   7  15
ENDBRANCH   1   8
BRANCH   5  19
ATOM     19  S   UNL     1       6.605   6.051  16.988  0.00  0.00    +0.000 S 
ATOM     20  O   UNL     1       6.124   7.141  16.169  0.00  0.00    +0.000 OA
ATOM     21  O   UNL     1       7.667   6.236  17.950  0.00  0.00    +0.000 OA
BRANCH  19  22
ATOM     22  N   UNL     1       7.057   4.824  15.916  0.00  0.00    +0.000 NA
ATOM     23  H   UNL     1       6.932   3.916  16.371  0.00  0.00    +0.000 HD
BRANCH  22  24
ATOM     24  C   UNL     1       6.633   4.901  14.514  0.00  0.00    +0.000 C 
ATOM     25  C   UNL     1       7.791   5.035  13.537  0.00  0.00    +0.000 C 
ATOM     26  C   UNL     1       7.174   4.633  12.205  0.00  0.00    +0.000 C 
ATOM     27  C   UNL     1       6.128   3.573  12.545  0.00  0.00    +0.000 C 
ATOM     28  C   UNL     1       5.991   3.585  14.068  0.00  0.00    +0.000 C 
ENDBRANCH  22  24
ENDBRANCH  19  22
ENDBRANCH   5  19
TORSDOF 5
ENDMDL
MODEL 8
REMARK VINA RESULT:      -8.5      5.823      7.566
REMARK  Name = 
REMARK  6 active torsions:
REMARK  status: ('A' for Active; 'I' for Inactive)
REMARK    1  A    between atoms: C_1  and  C_2
REMARK    2  A    between atoms: C_5  and  N_6
REMARK    3  A    between atoms: C_7  and  C_9
REMARK    4  A    between atoms: C_13  and  S_14
REMARK    5  A    between atoms: S_14  and  N_17
REMARK    6  A    between atoms: N_17  and  C_18
REMARK                            x       y       z     vdW  Elec       q    Type
REMARK                         _______ _______ _______ _____ _____    ______ ____
ROOT
ATOM      1  C   UNL     1       7.790   7.619  18.127  0.00  0.00    +0.000 A 
ATOM      2  C   UNL     1       8.325   6.721  19.067  0.00  0.00    +0.000 A 
ATOM      3  C   UNL     1       8.079   5.352  18.973  0.00  0.00    +0.000 A 
ATOM      4  C   UNL     1       7.300   4.867  17.930  0.00  0.00    +0.000 A 
ATOM      5  C   UNL     1       6.759   5.759  16.993  0.00  0.00    +0.000 A 
ATOM      6  C   UNL     1       6.985   7.142  17.088  0.00  0.00    +0.000 A 
ENDROOT
BRANCH   1   8
ATOM      7  N   UNL     1       9.198   9.344  19.194  0.00  0.00    +0.000 N 
ATOM      8  C   UNL     1       8.250   9.029  18.234  0.00  0.00    +0.000 C 
ATOM      9  O   UNL     1       7.745   9.812  17.432  0.00  0.00    +0.000 OA
ATOM     10  H   UNL     1       9.594   8.593  19.742  0.00  0.00    +0.000 HD
BRANCH   7  15
ATOM     11  C   UNL     1      11.367  14.601  20.079  0.00  0.00    +0.000 C 
ATOM     12  C   UNL     1      10.791  13.238  19.854  0.00  0.00    +0.000 A 
ATOM     13  C   UNL     1      10.123  12.577  20.881  0.00  0.00    +0.000 A 
ATOM     14  C   UNL     1       9.594  11.300  20.672  0.00  0.00    +0.000 A 
ATOM     15  C   UNL     1       9.712  10.648  19.437  0.00  0.00    +0.000 A 
ATOM     16  C   UNL     1      10.375  11.312  18.405  0.00  0.00    +0.000 A 
ATOM     17  C   UNL     1      10.907  12.592  18.622  0.00  0.00    +0.000 A 
ATOM     18  F   UNL     1      11.545  13.205  17.613  0.00  0.00    +0.000 F 
ENDBRANCH   7  15
ENDBRANCH   1   8
BRANCH   5  19
ATOM     19  S   UNL     1       5.764   5.094  15.680  0.00  0.00    +0.000 S 
ATOM     20  O   UNL     1       5.342   6.214  14.868  0.00  0.00    +0.000 OA
ATOM     21  O   UNL     1       6.449   3.958  15.109  0.00  0.00    +0.000 OA
BRANCH  19  22
ATOM     22  N   UNL     1       4.375   4.542  16.473  0.00  0.00    +0.000 NA
ATOM     23  H   UNL     1       4.305   3.528  16.361  0.00  0.00    +0.000 HD
BRANCH  22  24
ATOM     24  C   UNL     1       4.053   5.063  17.806  0.00  0.00    +0.000 C 
ATOM     25  C   UNL     1       3.268   6.365  17.773  0.00  0.00    +0.000 C 
ATOM     26  C   UNL     1       2.670   6.449  19.170  0.00  0.00    +0.000 C 
ATOM     27  C   UNL     1       2.402   5.003  19.585  0.00  0.00    +0.000 C 
ATOM     28  C   UNL     1       3.087   4.127  18.535  0.00  0.00    +0.000 C 
ENDBRANCH  22  24
ENDBRANCH  19  22
ENDBRANCH   5  19
TORSDOF 5
ENDMDL
MODEL 9
REMARK VINA RESULT:      -8.5      4.454      9.047
REMARK  Name = 
REMARK  6 active torsions:
REMARK  status: ('A' for Active; 'I' for Inactive)
REMARK    1  A    between atoms: C_1  and  C_2
REMARK    2  A    between atoms: C_5  and  N_6
REMARK    3  A    between atoms: C_7  and  C_9
REMARK    4  A    between atoms: C_13  and  S_14
REMARK    5  A    between atoms: S_14  and  N_17
REMARK    6  A    between atoms: N_17  and  C_18
REMARK                            x       y       z     vdW  Elec       q    Type
REMARK                         _______ _______ _______ _____ _____    ______ ____
ROOT
ATOM      1  C   UNL     1       1.430   8.940  19.411  0.00  0.00    +0.000 A 
ATOM      2  C   UNL     1       1.307   8.368  20.690  0.00  0.00    +0.000 A 
ATOM      3  C   UNL     1       0.463   8.928  21.648  0.00  0.00    +0.000 A 
ATOM      4  C   UNL     1      -0.273  10.063  21.332  0.00  0.00    +0.000 A 
ATOM      5  C   UNL     1      -0.150  10.640  20.060  0.00  0.00    +0.000 A 
ATOM      6  C   UNL     1       0.712  10.095  19.092  0.00  0.00    +0.000 A 
ENDROOT
BRANCH   1   8
ATOM      7  N   UNL     1       2.780   6.958  18.819  0.00  0.00    +0.000 N 
ATOM      8  C   UNL     1       2.232   8.168  18.424  0.00  0.00    +0.000 C 
ATOM      9  O   UNL     1       2.332   8.678  17.310  0.00  0.00    +0.000 OA
ATOM     10  H   UNL     1       2.558   6.609  19.742  0.00  0.00    +0.000 HD
BRANCH   7  15
ATOM     11  C   UNL     1       6.125   3.691  15.463  0.00  0.00    +0.000 C 
ATOM     12  C   UNL     1       5.253   4.530  16.345  0.00  0.00    +0.000 A 
ATOM     13  C   UNL     1       4.024   4.049  16.785  0.00  0.00    +0.000 A 
ATOM     14  C   UNL     1       3.207   4.838  17.599  0.00  0.00    +0.000 A 
ATOM     15  C   UNL     1       3.591   6.124  18.002  0.00  0.00    +0.000 A 
ATOM     16  C   UNL     1       4.827   6.605  17.568  0.00  0.00    +0.000 A 
ATOM     17  C   UNL     1       5.641   5.810  16.747  0.00  0.00    +0.000 A 
ATOM     18  F   UNL     1       6.821   6.301  16.340  0.00  0.00    +0.000 F 
ENDBRANCH   7  15
ENDBRANCH   1   8
BRANCH   5  19
ATOM     19  S   UNL     1      -1.106  12.094  19.702  0.00  0.00    +0.000 S 
ATOM     20  O   UNL     1      -1.532  12.636  20.973  0.00  0.00    +0.000 OA
ATOM     21  O   UNL     1      -0.389  12.894  18.737  0.00  0.00    +0.000 OA
BRANCH  19  22
ATOM     22  N   UNL     1      -2.500  11.483  18.964  0.00  0.00    +0.000 NA
ATOM     23  H   UNL     1      -3.324  11.909  19.396  0.00  0.00    +0.000 HD
BRANCH  22  24
ATOM     24  C   UNL     1      -2.541  11.347  17.504  0.00  0.00    +0.000 C 
ATOM     25  C   UNL     1      -2.152   9.962  17.013  0.00  0.00    +0.000 C 
ATOM     26  C   UNL     1      -2.703   9.925  15.595  0.00  0.00    +0.000 C 
ATOM     27  C   UNL     1      -3.973  10.772  15.630  0.00  0.00    +0.000 C 
ATOM     28  C   UNL     1      -3.975  11.478  16.987  0.00  0.00    +0.000 C 
ENDBRANCH  22  24
ENDBRANCH  19  22
ENDBRANCH   5  19
TORSDOF 5
ENDMDL
