MODEL 1
REMARK VINA RESULT:      -7.8      0.000      0.000
REMARK  Name = 
REMARK  7 active torsions:
REMARK  status: ('A' for Active; 'I' for Inactive)
REMARK    1  A    between atoms: C_1  and  N_2
REMARK    2  A    between atoms: C_6  and  C_7
REMARK    3  A    between atoms: C_7  and  O_9
REMARK    4  A    between atoms: O_9  and  C_10
REMARK    5  A    between atoms: C_10  and  C_11
REMARK    6  A    between atoms: N_13  and  C_14
REMARK    7  A    between atoms: C_19  and  O_20
REMARK                            x       y       z     vdW  Elec       q    Type
REMARK                         _______ _______ _______ _____ _____    ______ ____
ROOT
ATOM      1  C   UNL     1       3.019   5.928  19.307  0.00  0.00    +0.000 C 
ATOM      2  O   UNL     1       2.442   6.392  18.325  0.00  0.00    +0.000 OA
ATOM      3  N   UNL     1       4.309   5.405  19.318  0.00  0.00    +0.000 N 
ATOM      4  H   UNL     1       4.600   4.875  20.130  0.00  0.00    +0.000 HD
ENDROOT
BRANCH   3   5
ATOM      5  C   UNL     1       5.208   5.419  18.221  0.00  0.00    +0.000 A 
ATOM      6  C   UNL     1       6.361   6.215  18.213  0.00  0.00    +0.000 A 
ATOM      7  C   UNL     1       7.218   6.288  17.109  0.00  0.00    +0.000 A 
ATOM      8  C   UNL     1       6.866   5.522  16.004  0.00  0.00    +0.000 A 
ATOM      9  N   UNL     1       7.434   5.387  14.765  0.00  0.00    +0.000 N 
ATOM     10  C   UNL     1       6.671   4.502  14.058  0.00  0.00    +0.000 A 
ATOM     11  N   UNL     1       5.667   4.046  14.762  0.00  0.00    +0.000 NA
ATOM     12  C   UNL     1       5.760   4.683  15.979  0.00  0.00    +0.000 A 
ATOM     13  C   UNL     1       4.923   4.607  17.109  0.00  0.00    +0.000 A 
ATOM     14  H   UNL     1       8.253   5.875  14.439  0.00  0.00    +0.000 HD
BRANCH  10  15
ATOM     15  O   UNL     1       6.910   4.151  12.803  0.00  0.00    +0.000 OA
ATOM     16  H   UNL     1       6.093   4.240  12.286  0.00  0.00    +0.000 HD
ENDBRANCH  10  15
ENDBRANCH   3   5
BRANCH   1  17
ATOM     17  C   UNL     1       2.296   5.845  20.654  0.00  0.00    +0.000 C 
BRANCH  17  18
ATOM     18  O   UNL     1       1.308   4.810  20.662  0.00  0.00    +0.000 OA
BRANCH  18  19
ATOM     19  C   UNL     1       1.785   3.573  20.990  0.00  0.00    +0.000 C 
ATOM     20  O   UNL     1       1.878   3.158  22.139  0.00  0.00    +0.000 OA
BRANCH  19  26
ATOM     21  C   UNL     1       4.459   2.099  20.583  0.00  0.00    +0.000 C 
ATOM     22  N   UNL     1       3.382   2.184  19.619  0.00  0.00    +0.000 N 
ATOM     23  C   UNL     1       3.427   1.608  18.374  0.00  0.00    +0.000 A 
ATOM     24  C   UNL     1       2.250   1.893  17.727  0.00  0.00    +0.000 A 
ATOM     25  C   UNL     1       1.470   2.671  18.612  0.00  0.00    +0.000 A 
ATOM     26  C   UNL     1       2.181   2.854  19.793  0.00  0.00    +0.000 A 
ENDBRANCH  19  26
ENDBRANCH  18  19
ENDBRANCH  17  18
ENDBRANCH   1  17
TORSDOF 6
ENDMDL
MODEL 2
REMARK VINA RESULT:      -7.6      3.199      5.594
REMARK  Name = 
REMARK  7 active torsions:
REMARK  status: ('A' for Active; 'I' for Inactive)
REMARK    1  A    between atoms: C_1  and  N_2
REMARK    2  A    between atoms: C_6  and  C_7
REMARK    3  A    between atoms: C_7  and  O_9
REMARK    4  A    between atoms: O_9  and  C_10
REMARK    5  A    between atoms: C_10  and  C_11
REMARK    6  A    between atoms: N_13  and  C_14
REMARK    7  A    between atoms: C_19  and  O_20
REMARK                            x       y       z     vdW  Elec       q    Type
REMARK                         _______ _______ _______ _____ _____    ______ ____
ROOT
ATOM      1  C   UNL     1       1.817   4.749  20.777  0.00  0.00    +0.000 C 
ATOM      2  O   UNL     1       0.742   4.519  20.222  0.00  0.00    +0.000 OA
ATOM      3  N   UNL     1       2.586   5.897  20.610  0.00  0.00    +0.000 N 
ATOM      4  H   UNL     1       3.536   5.887  20.959  0.00  0.00    +0.000 HD
ENDROOT
BRANCH   3   5
ATOM      5  C   UNL     1       2.205   7.036  19.856  0.00  0.00    +0.000 A 
ATOM      6  C   UNL     1       2.527   7.174  18.500  0.00  0.00    +0.000 A 
ATOM      7  C   UNL     1       2.216   8.324  17.765  0.00  0.00    +0.000 A 
ATOM      8  C   UNL     1       1.563   9.338  18.454  0.00  0.00    +0.000 A 
ATOM      9  N   UNL     1       1.154  10.588  18.074  0.00  0.00    +0.000 N 
ATOM     10  C   UNL     1       0.565  11.176  19.157  0.00  0.00    +0.000 A 
ATOM     11  N   UNL     1       0.548  10.383  20.198  0.00  0.00    +0.000 NA
ATOM     12  C   UNL     1       1.182   9.232  19.786  0.00  0.00    +0.000 A 
ATOM     13  C   UNL     1       1.485   8.057  20.501  0.00  0.00    +0.000 A 
ATOM     14  H   UNL     1       1.291  10.998  17.163  0.00  0.00    +0.000 HD
BRANCH  10  15
ATOM     15  O   UNL     1       0.074  12.406  19.161  0.00  0.00    +0.000 OA
ATOM     16  H   UNL     1       0.302  12.843  18.324  0.00  0.00    +0.000 HD
ENDBRANCH  10  15
ENDBRANCH   3   5
BRANCH   1  17
ATOM     17  C   UNL     1       2.440   3.703  21.705  0.00  0.00    +0.000 C 
BRANCH  17  18
ATOM     18  O   UNL     1       2.675   2.466  21.026  0.00  0.00    +0.000 OA
BRANCH  18  19
ATOM     19  C   UNL     1       3.878   2.389  20.385  0.00  0.00    +0.000 C 
ATOM     20  O   UNL     1       4.908   1.986  20.910  0.00  0.00    +0.000 OA
BRANCH  19  26
ATOM     21  C   UNL     1       5.538   4.658  19.129  0.00  0.00    +0.000 C 
ATOM     22  N   UNL     1       4.509   3.891  18.460  0.00  0.00    +0.000 N 
ATOM     23  C   UNL     1       4.136   4.092  17.154  0.00  0.00    +0.000 A 
ATOM     24  C   UNL     1       3.135   3.202  16.853  0.00  0.00    +0.000 A 
ATOM     25  C   UNL     1       2.893   2.441  18.019  0.00  0.00    +0.000 A 
ATOM     26  C   UNL     1       3.752   2.876  19.023  0.00  0.00    +0.000 A 
ENDBRANCH  19  26
ENDBRANCH  18  19
ENDBRANCH  17  18
ENDBRANCH   1  17
TORSDOF 6
ENDMDL
MODEL 3
REMARK VINA RESULT:      -7.6      3.236      5.772
REMARK  Name = 
REMARK  7 active torsions:
REMARK  status: ('A' for Active; 'I' for Inactive)
REMARK    1  A    between atoms: C_1  and  N_2
REMARK    2  A    between atoms: C_6  and  C_7
REMARK    3  A    between atoms: C_7  and  O_9
REMARK    4  A    between atoms: O_9  and  C_10
REMARK    5  A    between atoms: C_10  and  C_11
REMARK    6  A    between atoms: N_13  and  C_14
REMARK    7  A    between atoms: C_19  and  O_20
REMARK                            x       y       z     vdW  Elec       q    Type
REMARK                         _______ _______ _______ _____ _____    ______ ____
ROOT
ATOM      1  C   UNL     1       1.866   4.754  20.668  0.00  0.00    +0.000 C 
ATOM      2  O   UNL     1       0.810   4.507  20.086  0.00  0.00    +0.000 OA
ATOM      3  N   UNL     1       2.594   5.935  20.561  0.00  0.00    +0.000 N 
ATOM      4  H   UNL     1       3.538   5.946  20.926  0.00  0.00    +0.000 HD
ENDROOT
BRANCH   3   5
ATOM      5  C   UNL     1       2.183   7.089  19.846  0.00  0.00    +0.000 A 
ATOM      6  C   UNL     1       2.487   7.273  18.491  0.00  0.00    +0.000 A 
ATOM      7  C   UNL     1       2.146   8.438  17.794  0.00  0.00    +0.000 A 
ATOM      8  C   UNL     1       1.480   9.418  18.520  0.00  0.00    +0.000 A 
ATOM      9  N   UNL     1       1.043  10.671  18.182  0.00  0.00    +0.000 N 
ATOM     10  C   UNL     1       0.454  11.213  19.288  0.00  0.00    +0.000 A 
ATOM     11  N   UNL     1       0.464  10.390  20.305  0.00  0.00    +0.000 NA
ATOM     12  C   UNL     1       1.116   9.265  19.852  0.00  0.00    +0.000 A 
ATOM     13  C   UNL     1       1.450   8.075  20.528  0.00  0.00    +0.000 A 
ATOM     14  H   UNL     1       1.162  11.110  17.282  0.00  0.00    +0.000 HD
BRANCH  10  15
ATOM     15  O   UNL     1      -0.061  12.433  19.334  0.00  0.00    +0.000 OA
ATOM     16  H   UNL     1      -0.995  12.375  19.593  0.00  0.00    +0.000 HD
ENDBRANCH  10  15
ENDBRANCH   3   5
BRANCH   1  17
ATOM     17  C   UNL     1       2.513   3.695  21.566  0.00  0.00    +0.000 C 
BRANCH  17  18
ATOM     18  O   UNL     1       2.836   2.508  20.836  0.00  0.00    +0.000 OA
BRANCH  18  19
ATOM     19  C   UNL     1       4.139   2.421  20.439  0.00  0.00    +0.000 C 
ATOM     20  O   UNL     1       4.999   1.796  21.047  0.00  0.00    +0.000 OA
BRANCH  19  26
ATOM     21  C   UNL     1       2.637   2.027  17.780  0.00  0.00    +0.000 C 
ATOM     22  N   UNL     1       3.661   3.017  18.036  0.00  0.00    +0.000 N 
ATOM     23  C   UNL     1       4.101   3.918  17.099  0.00  0.00    +0.000 A 
ATOM     24  C   UNL     1       5.075   4.695  17.675  0.00  0.00    +0.000 A 
ATOM     25  C   UNL     1       5.230   4.244  19.005  0.00  0.00    +0.000 A 
ATOM     26  C   UNL     1       4.347   3.193  19.227  0.00  0.00    +0.000 A 
ENDBRANCH  19  26
ENDBRANCH  18  19
ENDBRANCH  17  18
ENDBRANCH   1  17
TORSDOF 6
ENDMDL
MODEL 4
REMARK VINA RESULT:      -7.3      3.253      5.988
REMARK  Name = 
REMARK  7 active torsions:
REMARK  status: ('A' for Active; 'I' for Inactive)
REMARK    1  A    between atoms: C_1  and  N_2
REMARK    2  A    between atoms: C_6  and  C_7
REMARK    3  A    between atoms: C_7  and  O_9
REMARK    4  A    between atoms: O_9  and  C_10
REMARK    5  A    between atoms: C_10  and  C_11
REMARK    6  A    between atoms: N_13  and  C_14
REMARK    7  A    between atoms: C_19  and  O_20
REMARK                            x       y       z     vdW  Elec       q    Type
REMARK                         _______ _______ _______ _____ _____    ______ ____
ROOT
ATOM      1  C   UNL     1       4.460   5.581  18.460  0.00  0.00    +0.000 C 
ATOM      2  O   UNL     1       5.260   6.483  18.214  0.00  0.00    +0.000 OA
ATOM      3  N   UNL     1       3.145   5.757  18.880  0.00  0.00    +0.000 N 
ATOM      4  H   UNL     1       2.649   4.951  19.240  0.00  0.00    +0.000 HD
ENDROOT
BRANCH   3   5
ATOM      5  C   UNL     1       2.479   7.005  18.990  0.00  0.00    +0.000 A 
ATOM      6  C   UNL     1       2.260   7.833  17.881  0.00  0.00    +0.000 A 
ATOM      7  C   UNL     1       1.666   9.095  17.990  0.00  0.00    +0.000 A 
ATOM      8  C   UNL     1       1.298   9.496  19.268  0.00  0.00    +0.000 A 
ATOM      9  N   UNL     1       0.746  10.656  19.741  0.00  0.00    +0.000 N 
ATOM     10  C   UNL     1       0.597  10.519  21.092  0.00  0.00    +0.000 A 
ATOM     11  N   UNL     1       0.995   9.347  21.515  0.00  0.00    +0.000 NA
ATOM     12  C   UNL     1       1.453   8.694  20.392  0.00  0.00    +0.000 A 
ATOM     13  C   UNL     1       2.033   7.418  20.257  0.00  0.00    +0.000 A 
ATOM     14  H   UNL     1       0.518  11.466  19.186  0.00  0.00    +0.000 HD
BRANCH  10  15
ATOM     15  O   UNL     1       0.114  11.463  21.886  0.00  0.00    +0.000 OA
ATOM     16  H   UNL     1      -0.854  11.478  21.813  0.00  0.00    +0.000 HD
ENDBRANCH  10  15
ENDBRANCH   3   5
BRANCH   1  17
ATOM     17  C   UNL     1       4.898   4.117  18.362  0.00  0.00    +0.000 C 
BRANCH  17  18
ATOM     18  O   UNL     1       5.186   3.564  19.650  0.00  0.00    +0.000 OA
BRANCH  18  19
ATOM     19  C   UNL     1       4.536   2.395  19.924  0.00  0.00    +0.000 C 
ATOM     20  O   UNL     1       5.085   1.302  19.973  0.00  0.00    +0.000 OA
BRANCH  19  26
ATOM     21  C   UNL     1       2.341   2.010  17.798  0.00  0.00    +0.000 C 
ATOM     22  N   UNL     1       2.134   2.459  19.159  0.00  0.00    +0.000 N 
ATOM     23  C   UNL     1       0.903   2.781  19.675  0.00  0.00    +0.000 A 
ATOM     24  C   UNL     1       1.076   3.172  20.980  0.00  0.00    +0.000 A 
ATOM     25  C   UNL     1       2.459   3.087  21.257  0.00  0.00    +0.000 A 
ATOM     26  C   UNL     1       3.118   2.643  20.116  0.00  0.00    +0.000 A 
ENDBRANCH  19  26
ENDBRANCH  18  19
ENDBRANCH  17  18
ENDBRANCH   1  17
TORSDOF 6
ENDMDL
MODEL 5
REMARK VINA RESULT:      -7.3      3.085      6.052
REMARK  Name = 
REMARK  7 active torsions:
REMARK  status: ('A' for Active; 'I' for Inactive)
REMARK    1  A    between atoms: C_1  and  N_2
REMARK    2  A    between atoms: C_6  and  C_7
REMARK    3  A    between atoms: C_7  and  O_9
REMARK    4  A    between atoms: O_9  and  C_10
REMARK    5  A    between atoms: C_10  and  C_11
REMARK    6  A    between atoms: N_13  and  C_14
REMARK    7  A    between atoms: C_19  and  O_20
REMARK                            x       y       z     vdW  Elec       q    Type
REMARK                         _______ _______ _______ _____ _____    ______ ____
ROOT
ATOM      1  C   UNL     1       4.328   5.227  18.486  0.00  0.00    +0.000 C 
ATOM      2  O   UNL     1       5.125   5.802  19.227  0.00  0.00    +0.000 OA
ATOM      3  N   UNL     1       3.021   5.631  18.232  0.00  0.00    +0.000 N 
ATOM      4  H   UNL     1       2.404   4.977  17.768  0.00  0.00    +0.000 HD
ENDROOT
BRANCH   3   5
ATOM      5  C   UNL     1       2.428   6.831  18.701  0.00  0.00    +0.000 A 
ATOM      6  C   UNL     1       2.232   7.941  17.869  0.00  0.00    +0.000 A 
ATOM      7  C   UNL     1       1.711   9.152  18.338  0.00  0.00    +0.000 A 
ATOM      8  C   UNL     1       1.393   9.203  19.690  0.00  0.00    +0.000 A 
ATOM      9  N   UNL     1       0.915  10.214  20.481  0.00  0.00    +0.000 N 
ATOM     10  C   UNL     1       0.786   9.719  21.747  0.00  0.00    +0.000 A 
ATOM     11  N   UNL     1       1.127   8.458  21.820  0.00  0.00    +0.000 NA
ATOM     12  C   UNL     1       1.526   8.117  20.546  0.00  0.00    +0.000 A 
ATOM     13  C   UNL     1       2.031   6.901  20.048  0.00  0.00    +0.000 A 
ATOM     14  H   UNL     1       0.721  11.155  20.176  0.00  0.00    +0.000 HD
BRANCH  10  15
ATOM     15  O   UNL     1       0.373  10.430  22.785  0.00  0.00    +0.000 OA
ATOM     16  H   UNL     1      -0.475  10.075  23.098  0.00  0.00    +0.000 HD
ENDBRANCH  10  15
ENDBRANCH   3   5
BRANCH   1  17
ATOM     17  C   UNL     1       4.730   3.923  17.791  0.00  0.00    +0.000 C 
BRANCH  17  18
ATOM     18  O   UNL     1       3.606   3.060  17.595  0.00  0.00    +0.000 OA
BRANCH  18  19
ATOM     19  C   UNL     1       3.530   2.018  18.474  0.00  0.00    +0.000 C 
ATOM     20  O   UNL     1       3.981   0.901  18.252  0.00  0.00    +0.000 OA
BRANCH  19  26
ATOM     21  C   UNL     1       0.498   2.516  18.690  0.00  0.00    +0.000 C 
ATOM     22  N   UNL     1       1.457   2.638  19.768  0.00  0.00    +0.000 N 
ATOM     23  C   UNL     1       1.121   3.006  21.047  0.00  0.00    +0.000 A 
ATOM     24  C   UNL     1       2.268   3.029  21.802  0.00  0.00    +0.000 A 
ATOM     25  C   UNL     1       3.332   2.666  20.946  0.00  0.00    +0.000 A 
ATOM     26  C   UNL     1       2.822   2.425  19.675  0.00  0.00    +0.000 A 
ENDBRANCH  19  26
ENDBRANCH  18  19
ENDBRANCH  17  18
ENDBRANCH   1  17
TORSDOF 6
ENDMDL
MODEL 6
REMARK VINA RESULT:      -7.2      3.175      6.062
REMARK  Name = 
REMARK  7 active torsions:
REMARK  status: ('A' for Active; 'I' for Inactive)
REMARK    1  A    between atoms: C_1  and  N_2
REMARK    2  A    between atoms: C_6  and  C_7
REMARK    3  A    between atoms: C_7  and  O_9
REMARK    4  A    between atoms: O_9  and  C_10
REMARK    5  A    between atoms: C_10  and  C_11
REMARK    6  A    between atoms: N_13  and  C_14
REMARK    7  A    between atoms: C_19  and  O_20
REMARK                            x       y       z     vdW  Elec       q    Type
REMARK                         _______ _______ _______ _____ _____    ______ ____
ROOT
ATOM      1  C   UNL     1       4.037   5.451  18.479  0.00  0.00    +0.000 C 
ATOM      2  O   UNL     1       4.589   5.680  19.555  0.00  0.00    +0.000 OA
ATOM      3  N   UNL     1       2.926   6.122  17.979  0.00  0.00    +0.000 N 
ATOM      4  H   UNL     1       2.445   5.718  17.185  0.00  0.00    +0.000 HD
ENDROOT
BRANCH   3   5
ATOM      5  C   UNL     1       2.312   7.252  18.578  0.00  0.00    +0.000 A 
ATOM      6  C   UNL     1       2.061   8.430  17.863  0.00  0.00    +0.000 A 
ATOM      7  C   UNL     1       1.519   9.573  18.462  0.00  0.00    +0.000 A 
ATOM      8  C   UNL     1       1.236   9.482  19.819  0.00  0.00    +0.000 A 
ATOM      9  N   UNL     1       0.752  10.396  20.717  0.00  0.00    +0.000 N 
ATOM     10  C   UNL     1       0.673   9.777  21.932  0.00  0.00    +0.000 A 
ATOM     11  N   UNL     1       1.052   8.526  21.872  0.00  0.00    +0.000 NA
ATOM     12  C   UNL     1       1.424   8.324  20.562  0.00  0.00    +0.000 A 
ATOM     13  C   UNL     1       1.950   7.178  19.934  0.00  0.00    +0.000 A 
ATOM     14  H   UNL     1       0.522  11.356  20.511  0.00  0.00    +0.000 HD
BRANCH  10  15
ATOM     15  O   UNL     1       0.268  10.371  23.045  0.00  0.00    +0.000 OA
ATOM     16  H   UNL     1       1.035  10.529  23.618  0.00  0.00    +0.000 HD
ENDBRANCH  10  15
ENDBRANCH   3   5
BRANCH   1  17
ATOM     17  C   UNL     1       4.538   4.310  17.588  0.00  0.00    +0.000 C 
BRANCH  17  18
ATOM     18  O   UNL     1       3.473   3.438  17.196  0.00  0.00    +0.000 OA
BRANCH  18  19
ATOM     19  C   UNL     1       3.328   2.332  17.982  0.00  0.00    +0.000 C 
ATOM     20  O   UNL     1       3.729   1.216  17.675  0.00  0.00    +0.000 OA
BRANCH  19  26
ATOM     21  C   UNL     1       4.451   2.119  20.842  0.00  0.00    +0.000 C 
ATOM     22  N   UNL     1       3.127   2.583  20.484  0.00  0.00    +0.000 N 
ATOM     23  C   UNL     1       2.188   2.988  21.399  0.00  0.00    +0.000 A 
ATOM     24  C   UNL     1       1.054   3.352  20.717  0.00  0.00    +0.000 A 
ATOM     25  C   UNL     1       1.317   3.155  19.342  0.00  0.00    +0.000 A 
ATOM     26  C   UNL     1       2.613   2.671  19.200  0.00  0.00    +0.000 A 
ENDBRANCH  19  26
ENDBRANCH  18  19
ENDBRANCH  17  18
ENDBRANCH   1  17
TORSDOF 6
ENDMDL
MODEL 7
REMARK VINA RESULT:      -7.2      0.638      1.319
REMARK  Name = 
REMARK  7 active torsions:
REMARK  status: ('A' for Active; 'I' for Inactive)
REMARK    1  A    between atoms: C_1  and  N_2
REMARK    2  A    between atoms: C_6  and  C_7
REMARK    3  A    between atoms: C_7  and  O_9
REMARK    4  A    between atoms: O_9  and  C_10
REMARK    5  A    between atoms: C_10  and  C_11
REMARK    6  A    between atoms: N_13  and  C_14
REMARK    7  A    between atoms: C_19  and  O_20
REMARK                            x       y       z     vdW  Elec       q    Type
REMARK                         _______ _______ _______ _____ _____    ______ ____
ROOT
ATOM      1  C   UNL     1       2.940   5.932  19.087  0.00  0.00    +0.000 C 
ATOM      2  O   UNL     1       2.644   6.865  18.341  0.00  0.00    +0.000 OA
ATOM      3  N   UNL     1       4.018   5.068  18.917  0.00  0.00    +0.000 N 
ATOM      4  H   UNL     1       4.044   4.226  19.478  0.00  0.00    +0.000 HD
ENDROOT
BRANCH   3   5
ATOM      5  C   UNL     1       5.014   5.188  17.914  0.00  0.00    +0.000 A 
ATOM      6  C   UNL     1       6.150   5.989  18.084  0.00  0.00    +0.000 A 
ATOM      7  C   UNL     1       7.104   6.167  17.075  0.00  0.00    +0.000 A 
ATOM      8  C   UNL     1       6.866   5.502  15.878  0.00  0.00    +0.000 A 
ATOM      9  N   UNL     1       7.548   5.483  14.690  0.00  0.00    +0.000 N 
ATOM     10  C   UNL     1       6.865   4.662  13.839  0.00  0.00    +0.000 A 
ATOM     11  N   UNL     1       5.808   4.137  14.403  0.00  0.00    +0.000 NA
ATOM     12  C   UNL     1       5.780   4.662  15.676  0.00  0.00    +0.000 A 
ATOM     13  C   UNL     1       4.844   4.479  16.712  0.00  0.00    +0.000 A 
ATOM     14  H   UNL     1       8.386   6.004  14.487  0.00  0.00    +0.000 HD
BRANCH  10  15
ATOM     15  O   UNL     1       7.224   4.427  12.585  0.00  0.00    +0.000 OA
ATOM     16  H   UNL     1       6.435   4.449  12.019  0.00  0.00    +0.000 HD
ENDBRANCH  10  15
ENDBRANCH   3   5
BRANCH   1  17
ATOM     17  C   UNL     1       2.061   5.610  20.299  0.00  0.00    +0.000 C 
BRANCH  17  18
ATOM     18  O   UNL     1       2.735   4.759  21.231  0.00  0.00    +0.000 OA
BRANCH  18  19
ATOM     19  C   UNL     1       2.241   3.489  21.299  0.00  0.00    +0.000 C 
ATOM     20  O   UNL     1       1.423   3.116  22.131  0.00  0.00    +0.000 OA
BRANCH  19  26
ATOM     21  C   UNL     1       0.841   2.494  18.742  0.00  0.00    +0.000 C 
ATOM     22  N   UNL     1       2.213   2.223  19.118  0.00  0.00    +0.000 N 
ATOM     23  C   UNL     1       3.074   1.466  18.363  0.00  0.00    +0.000 A 
ATOM     24  C   UNL     1       4.279   1.409  19.017  0.00  0.00    +0.000 A 
ATOM     25  C   UNL     1       4.138   2.154  20.209  0.00  0.00    +0.000 A 
ATOM     26  C   UNL     1       2.844   2.660  20.271  0.00  0.00    +0.000 A 
ENDBRANCH  19  26
ENDBRANCH  18  19
ENDBRANCH  17  18
ENDBRANCH   1  17
TORSDOF 6
ENDMDL
MODEL 8
REMARK VINA RESULT:      -7.1      4.075      7.407
REMARK  Name = 
REMARK  7 active torsions:
REMARK  status: ('A' for Active; 'I' for Inactive)
REMARK    1  A    between atoms: C_1  and  N_2
REMARK    2  A    between atoms: C_6  and  C_7
REMARK    3  A    between atoms: C_7  and  O_9
REMARK    4  A    between atoms: O_9  and  C_10
REMARK    5  A    between atoms: C_10  and  C_11
REMARK    6  A    between atoms: N_13  and  C_14
REMARK    7  A    between atoms: C_19  and  O_20
REMARK                            x       y       z     vdW  Elec       q    Type
REMARK                         _______ _______ _______ _____ _____    ______ ____
ROOT
ATOM      1  C   UNL     1       2.000   5.716  20.345  0.00  0.00    +0.000 C 
ATOM      2  O   UNL     1       0.840   5.335  20.494  0.00  0.00    +0.000 OA
ATOM      3  N   UNL     1       2.412   7.041  20.239  0.00  0.00    +0.000 N 
ATOM      4  H   UNL     1       3.356   7.221  19.921  0.00  0.00    +0.000 HD
ENDROOT
BRANCH   3   5
ATOM      5  C   UNL     1       1.573   8.174  20.392  0.00  0.00    +0.000 A 
ATOM      6  C   UNL     1       1.150   8.942  19.299  0.00  0.00    +0.000 A 
ATOM      7  C   UNL     1       0.380  10.101  19.446  0.00  0.00    +0.000 A 
ATOM      8  C   UNL     1       0.048  10.460  20.746  0.00  0.00    +0.000 A 
ATOM      9  N   UNL     1      -0.640  11.530  21.254  0.00  0.00    +0.000 N 
ATOM     10  C   UNL     1      -0.669  11.393  22.613  0.00  0.00    +0.000 A 
ATOM     11  N   UNL     1      -0.066  10.301  23.010  0.00  0.00    +0.000 NA
ATOM     12  C   UNL     1       0.404   9.709  21.859  0.00  0.00    +0.000 A 
ATOM     13  C   UNL     1       1.161   8.534  21.687  0.00  0.00    +0.000 A 
ATOM     14  H   UNL     1      -1.028  12.287  20.714  0.00  0.00    +0.000 HD
BRANCH  10  15
ATOM     15  O   UNL     1      -1.231  12.264  23.437  0.00  0.00    +0.000 OA
ATOM     16  H   UNL     1      -0.787  13.122  23.345  0.00  0.00    +0.000 HD
ENDBRANCH  10  15
ENDBRANCH   3   5
BRANCH   1  17
ATOM     17  C   UNL     1       3.132   4.693  20.209  0.00  0.00    +0.000 C 
BRANCH  17  18
ATOM     18  O   UNL     1       3.998   5.004  19.114  0.00  0.00    +0.000 OA
BRANCH  18  19
ATOM     19  C   UNL     1       4.906   4.030  18.814  0.00  0.00    +0.000 C 
ATOM     20  O   UNL     1       5.255   3.155  19.598  0.00  0.00    +0.000 OA
BRANCH  19  26
ATOM     21  C   UNL     1       7.777   4.838  18.046  0.00  0.00    +0.000 C 
ATOM     22  N   UNL     1       6.698   4.560  17.121  0.00  0.00    +0.000 N 
ATOM     23  C   UNL     1       6.828   4.631  15.756  0.00  0.00    +0.000 A 
ATOM     24  C   UNL     1       5.615   4.316  15.194  0.00  0.00    +0.000 A 
ATOM     25  C   UNL     1       4.723   4.049  16.258  0.00  0.00    +0.000 A 
ATOM     26  C   UNL     1       5.403   4.206  17.461  0.00  0.00    +0.000 A 
ENDBRANCH  19  26
ENDBRANCH  18  19
ENDBRANCH  17  18
ENDBRANCH   1  17
TORSDOF 6
ENDMDL
MODEL 9
REMARK VINA RESULT:      -7.1      2.723      3.888
REMARK  Name = 
REMARK  7 active torsions:
REMARK  status: ('A' for Active; 'I' for Inactive)
REMARK    1  A    between atoms: C_1  and  N_2
REMARK    2  A    between atoms: C_6  and  C_7
REMARK    3  A    between atoms: C_7  and  O_9
REMARK    4  A    between atoms: O_9  and  C_10
REMARK    5  A    between atoms: C_10  and  C_11
REMARK    6  A    between atoms: N_13  and  C_14
REMARK    7  A    between atoms: C_19  and  O_20
REMARK                            x       y       z     vdW  Elec       q    Type
REMARK                         _______ _______ _______ _____ _____    ______ ____
ROOT
ATOM      1  C   UNL     1       4.515   2.735  18.707  0.00  0.00    +0.000 C 
ATOM      2  O   UNL     1       4.885   2.621  19.876  0.00  0.00    +0.000 OA
ATOM      3  N   UNL     1       4.939   3.715  17.815  0.00  0.00    +0.000 N 
ATOM      4  H   UNL     1       4.421   3.828  16.953  0.00  0.00    +0.000 HD
ENDROOT
BRANCH   3   5
ATOM      5  C   UNL     1       5.948   4.678  18.073  0.00  0.00    +0.000 A 
ATOM      6  C   UNL     1       6.963   4.460  19.013  0.00  0.00    +0.000 A 
ATOM      7  C   UNL     1       7.923   5.430  19.325  0.00  0.00    +0.000 A 
ATOM      8  C   UNL     1       7.820   6.638  18.648  0.00  0.00    +0.000 A 
ATOM      9  N   UNL     1       8.542   7.799  18.730  0.00  0.00    +0.000 N 
ATOM     10  C   UNL     1       8.005   8.681  17.836  0.00  0.00    +0.000 A 
ATOM     11  N   UNL     1       7.004   8.162  17.173  0.00  0.00    +0.000 NA
ATOM     12  C   UNL     1       6.860   6.888  17.676  0.00  0.00    +0.000 A 
ATOM     13  C   UNL     1       5.918   5.890  17.361  0.00  0.00    +0.000 A 
ATOM     14  H   UNL     1       9.312   7.967  19.358  0.00  0.00    +0.000 HD
BRANCH  10  15
ATOM     15  O   UNL     1       8.438   9.921  17.664  0.00  0.00    +0.000 OA
ATOM     16  H   UNL     1       8.336  10.167  16.730  0.00  0.00    +0.000 HD
ENDBRANCH  10  15
ENDBRANCH   3   5
BRANCH   1  17
ATOM     17  C   UNL     1       3.463   1.779  18.139  0.00  0.00    +0.000 C 
BRANCH  17  18
ATOM     18  O   UNL     1       2.374   2.486  17.538  0.00  0.00    +0.000 OA
BRANCH  18  19
ATOM     19  C   UNL     1       1.338   2.759  18.385  0.00  0.00    +0.000 C 
ATOM     20  O   UNL     1       0.303   2.107  18.432  0.00  0.00    +0.000 OA
BRANCH  19  26
ATOM     21  C   UNL     1       1.538   2.840  21.457  0.00  0.00    +0.000 C 
ATOM     22  N   UNL     1       1.737   3.962  20.565  0.00  0.00    +0.000 N 
ATOM     23  C   UNL     1       2.041   5.231  20.993  0.00  0.00    +0.000 A 
ATOM     24  C   UNL     1       2.150   6.040  19.890  0.00  0.00    +0.000 A 
ATOM     25  C   UNL     1       1.900   5.232  18.758  0.00  0.00    +0.000 A 
ATOM     26  C   UNL     1       1.639   3.934  19.183  0.00  0.00    +0.000 A 
ENDBRANCH  19  26
ENDBRANCH  18  19
ENDBRANCH  17  18
ENDBRANCH   1  17
TORSDOF 6
ENDMDL
