MODEL 1
REMARK VINA RESULT:      -7.5      0.000      0.000
REMARK  Name = 
REMARK  7 active torsions:
REMARK  status: ('A' for Active; 'I' for Inactive)
REMARK    1  A    between atoms: C_1  and  C_2
REMARK    2  A    between atoms: N_6  and  C_7
REMARK    3  A    between atoms: N_6  and  C_8
REMARK    4  A    between atoms: C_8  and  O_9
REMARK    5  A    between atoms: O_9  and  C_10
REMARK    6  A    between atoms: C_10  and  C_12
REMARK    7  A    between atoms: C_12  and  C_13
REMARK                            x       y       z     vdW  Elec       q    Type
REMARK                         _______ _______ _______ _____ _____    ______ ____
ROOT
ATOM      1  C   UNL     1       4.953   5.201  17.102  0.00  0.00    +0.000 C 
ATOM      2  O   UNL     1       4.172   6.144  17.046  0.00  0.00    +0.000 OA
ENDROOT
BRANCH   1   3
ATOM      3  C   UNL     1       6.327   5.215  16.504  0.00  0.00    +0.000 C 
ATOM      4  C   UNL     1       7.376   6.138  17.113  0.00  0.00    +0.000 C 
ATOM      5  C   UNL     1       7.447   4.670  17.388  0.00  0.00    +0.000 C 
BRANCH   3   6
ATOM      6  C   UNL     1       6.363   4.900  15.011  0.00  0.00    +0.000 A 
ATOM      7  C   UNL     1       5.454   4.009  14.415  0.00  0.00    +0.000 A 
ATOM      8  C   UNL     1       5.641   3.554  13.107  0.00  0.00    +0.000 A 
ATOM      9  C   UNL     1       6.739   3.985  12.366  0.00  0.00    +0.000 A 
ATOM     10  C   UNL     1       7.615   4.918  12.908  0.00  0.00    +0.000 A 
ATOM     11  C   UNL     1       7.414   5.385  14.207  0.00  0.00    +0.000 A 
ENDBRANCH   3   6
ENDBRANCH   1   3
BRANCH   1  12
ATOM     12  O   UNL     1       4.706   4.026  17.740  0.00  0.00    +0.000 OA
BRANCH  12  13
ATOM     13  C   UNL     1       3.935   4.137  18.925  0.00  0.00    +0.000 C 
BRANCH  13  19
ATOM     14  C   UNL     1       1.322   4.144  17.677  0.00  0.00    +0.000 C 
ATOM     15  C   UNL     1       1.528   3.292  18.922  0.00  0.00    +0.000 C 
ATOM     16  C   UNL     1       1.046   3.968  20.195  0.00  0.00    +0.000 C 
ATOM     17  C   UNL     1       1.683   3.145  21.293  0.00  0.00    +0.000 C 
ATOM     18  C   UNL     1       3.014   2.649  20.740  0.00  0.00    +0.000 C 
ATOM     19  N   UNL     1       3.003   2.964  19.230  0.00  0.00    +0.000 N 
ATOM     20  C   UNL     1       3.476   1.755  18.436  0.00  0.00    +0.000 C 
ENDBRANCH  13  19
ENDBRANCH  12  13
ENDBRANCH   1  12
TORSDOF 5
ENDMDL
MODEL 2
REMARK VINA RESULT:      -7.5      0.837      1.633
REMARK  Name = 
REMARK  7 active torsions:
REMARK  status: ('A' for Active; 'I' for Inactive)
REMARK    1  A    between atoms: C_1  and  C_2
REMARK    2  A    between atoms: N_6  and  C_7
REMARK    3  A    between atoms: N_6  and  C_8
REMARK    4  A    between atoms: C_8  and  O_9
REMARK    5  A    between atoms: O_9  and  C_10
REMARK    6  A    between atoms: C_10  and  C_12
REMARK    7  A    between atoms: C_12  and  C_13
REMARK                            x       y       z     vdW  Elec       q    Type
REMARK                         _______ _______ _______ _____ _____    ______ ____
ROOT
ATOM      1  C   UNL     1       5.939   4.482  17.664  0.00  0.00    +0.000 C 
ATOM      2  O   UNL     1       6.952   4.382  18.348  0.00  0.00    +0.000 OA
ENDROOT
BRANCH   1   3
ATOM      3  C   UNL     1       5.794   5.434  16.516  0.00  0.00    +0.000 C 
ATOM      4  C   UNL     1       4.683   6.477  16.572  0.00  0.00    +0.000 C 
ATOM      5  C   UNL     1       6.096   6.900  16.821  0.00  0.00    +0.000 C 
BRANCH   3   6
ATOM      6  C   UNL     1       6.240   4.866  15.172  0.00  0.00    +0.000 A 
ATOM      7  C   UNL     1       7.434   5.272  14.550  0.00  0.00    +0.000 A 
ATOM      8  C   UNL     1       7.712   4.925  13.226  0.00  0.00    +0.000 A 
ATOM      9  C   UNL     1       6.805   4.160  12.496  0.00  0.00    +0.000 A 
ATOM     10  C   UNL     1       5.649   3.689  13.109  0.00  0.00    +0.000 A 
ATOM     11  C   UNL     1       5.384   4.022  14.437  0.00  0.00    +0.000 A 
ENDBRANCH   3   6
ENDBRANCH   1   3
BRANCH   1  12
ATOM     12  O   UNL     1       4.819   3.727  17.821  0.00  0.00    +0.000 OA
BRANCH  12  13
ATOM     13  C   UNL     1       4.149   3.898  19.059  0.00  0.00    +0.000 C 
BRANCH  13  19
ATOM     14  C   UNL     1       1.581   4.321  17.791  0.00  0.00    +0.000 C 
ATOM     15  C   UNL     1       1.637   3.455  19.041  0.00  0.00    +0.000 C 
ATOM     16  C   UNL     1       1.263   4.208  20.307  0.00  0.00    +0.000 C 
ATOM     17  C   UNL     1       1.749   3.300  21.415  0.00  0.00    +0.000 C 
ATOM     18  C   UNL     1       2.986   2.590  20.874  0.00  0.00    +0.000 C 
ATOM     19  N   UNL     1       3.037   2.894  19.362  0.00  0.00    +0.000 N 
ATOM     20  C   UNL     1       3.312   1.619  18.578  0.00  0.00    +0.000 C 
ENDBRANCH  13  19
ENDBRANCH  12  13
ENDBRANCH   1  12
TORSDOF 5
ENDMDL
MODEL 3
REMARK VINA RESULT:      -7.4      1.085      1.631
REMARK  Name = 
REMARK  7 active torsions:
REMARK  status: ('A' for Active; 'I' for Inactive)
REMARK    1  A    between atoms: C_1  and  C_2
REMARK    2  A    between atoms: N_6  and  C_7
REMARK    3  A    between atoms: N_6  and  C_8
REMARK    4  A    between atoms: C_8  and  O_9
REMARK    5  A    between atoms: O_9  and  C_10
REMARK    6  A    between atoms: C_10  and  C_12
REMARK    7  A    between atoms: C_12  and  C_13
REMARK                            x       y       z     vdW  Elec       q    Type
REMARK                         _______ _______ _______ _____ _____    ______ ____
ROOT
ATOM      1  C   UNL     1       5.061   5.973  18.244  0.00  0.00    +0.000 C 
ATOM      2  O   UNL     1       4.198   6.737  17.827  0.00  0.00    +0.000 OA
ENDROOT
BRANCH   1   3
ATOM      3  C   UNL     1       6.415   5.819  17.620  0.00  0.00    +0.000 C 
ATOM      4  C   UNL     1       7.455   6.908  17.862  0.00  0.00    +0.000 C 
ATOM      5  C   UNL     1       7.578   5.607  18.588  0.00  0.00    +0.000 C 
BRANCH   3   6
ATOM      6  C   UNL     1       6.415   5.044  16.305  0.00  0.00    +0.000 A 
ATOM      7  C   UNL     1       7.277   5.374  15.246  0.00  0.00    +0.000 A 
ATOM      8  C   UNL     1       7.108   4.814  13.976  0.00  0.00    +0.000 A 
ATOM      9  C   UNL     1       6.077   3.908  13.742  0.00  0.00    +0.000 A 
ATOM     10  C   UNL     1       5.253   3.513  14.790  0.00  0.00    +0.000 A 
ATOM     11  C   UNL     1       5.437   4.060  16.060  0.00  0.00    +0.000 A 
ENDBRANCH   3   6
ENDBRANCH   1   3
BRANCH   1  12
ATOM     12  O   UNL     1       4.934   5.183  19.343  0.00  0.00    +0.000 OA
BRANCH  12  13
ATOM     13  C   UNL     1       3.599   4.922  19.742  0.00  0.00    +0.000 C 
BRANCH  13  19
ATOM     14  C   UNL     1       1.964   3.844  17.609  0.00  0.00    +0.000 C 
ATOM     15  C   UNL     1       1.986   3.113  18.944  0.00  0.00    +0.000 C 
ATOM     16  C   UNL     1       0.801   3.455  19.832  0.00  0.00    +0.000 C 
ATOM     17  C   UNL     1       1.222   2.943  21.193  0.00  0.00    +0.000 C 
ATOM     18  C   UNL     1       2.737   3.102  21.260  0.00  0.00    +0.000 C 
ATOM     19  N   UNL     1       3.203   3.448  19.830  0.00  0.00    +0.000 N 
ATOM     20  C   UNL     1       4.410   2.602  19.451  0.00  0.00    +0.000 C 
ENDBRANCH  13  19
ENDBRANCH  12  13
ENDBRANCH   1  12
TORSDOF 5
ENDMDL
MODEL 4
REMARK VINA RESULT:      -7.4      1.722      3.649
REMARK  Name = 
REMARK  7 active torsions:
REMARK  status: ('A' for Active; 'I' for Inactive)
REMARK    1  A    between atoms: C_1  and  C_2
REMARK    2  A    between atoms: N_6  and  C_7
REMARK    3  A    between atoms: N_6  and  C_8
REMARK    4  A    between atoms: C_8  and  O_9
REMARK    5  A    between atoms: O_9  and  C_10
REMARK    6  A    between atoms: C_10  and  C_12
REMARK    7  A    between atoms: C_12  and  C_13
REMARK                            x       y       z     vdW  Elec       q    Type
REMARK                         _______ _______ _______ _____ _____    ______ ____
ROOT
ATOM      1  C   UNL     1       3.670   5.304  17.252  0.00  0.00    +0.000 C 
ATOM      2  O   UNL     1       3.259   6.312  17.815  0.00  0.00    +0.000 OA
ENDROOT
BRANCH   1   3
ATOM      3  C   UNL     1       5.077   5.133  16.765  0.00  0.00    +0.000 C 
ATOM      4  C   UNL     1       5.463   3.813  16.105  0.00  0.00    +0.000 C 
ATOM      5  C   UNL     1       5.253   5.023  15.252  0.00  0.00    +0.000 C 
BRANCH   3   6
ATOM      6  C   UNL     1       6.116   5.919  17.560  0.00  0.00    +0.000 A 
ATOM      7  C   UNL     1       6.577   7.179  17.142  0.00  0.00    +0.000 A 
ATOM      8  C   UNL     1       7.686   7.779  17.745  0.00  0.00    +0.000 A 
ATOM      9  C   UNL     1       8.354   7.133  18.783  0.00  0.00    +0.000 A 
ATOM     10  C   UNL     1       7.876   5.918  19.261  0.00  0.00    +0.000 A 
ATOM     11  C   UNL     1       6.758   5.332  18.669  0.00  0.00    +0.000 A 
ENDBRANCH   3   6
ENDBRANCH   1   3
BRANCH   1  12
ATOM     12  O   UNL     1       2.930   4.188  17.018  0.00  0.00    +0.000 OA
BRANCH  12  13
ATOM     13  C   UNL     1       1.823   4.011  17.886  0.00  0.00    +0.000 C 
BRANCH  13  19
ATOM     14  C   UNL     1       1.751   4.653  20.708  0.00  0.00    +0.000 C 
ATOM     15  C   UNL     1       2.353   3.321  20.284  0.00  0.00    +0.000 C 
ATOM     16  C   UNL     1       3.870   3.350  20.201  0.00  0.00    +0.000 C 
ATOM     17  C   UNL     1       4.204   2.099  19.417  0.00  0.00    +0.000 C 
ATOM     18  C   UNL     1       3.047   1.879  18.448  0.00  0.00    +0.000 C 
ATOM     19  N   UNL     1       1.928   2.852  18.877  0.00  0.00    +0.000 N 
ATOM     20  C   UNL     1       0.589   2.130  18.918  0.00  0.00    +0.000 C 
ENDBRANCH  13  19
ENDBRANCH  12  13
ENDBRANCH   1  12
TORSDOF 5
ENDMDL
MODEL 5
REMARK VINA RESULT:      -7.4      1.535      3.485
REMARK  Name = 
REMARK  7 active torsions:
REMARK  status: ('A' for Active; 'I' for Inactive)
REMARK    1  A    between atoms: C_1  and  C_2
REMARK    2  A    between atoms: N_6  and  C_7
REMARK    3  A    between atoms: N_6  and  C_8
REMARK    4  A    between atoms: C_8  and  O_9
REMARK    5  A    between atoms: O_9  and  C_10
REMARK    6  A    between atoms: C_10  and  C_12
REMARK    7  A    between atoms: C_12  and  C_13
REMARK                            x       y       z     vdW  Elec       q    Type
REMARK                         _______ _______ _______ _____ _____    ______ ____
ROOT
ATOM      1  C   UNL     1       4.046   5.141  17.075  0.00  0.00    +0.000 C 
ATOM      2  O   UNL     1       3.698   6.154  17.672  0.00  0.00    +0.000 OA
ENDROOT
BRANCH   1   3
ATOM      3  C   UNL     1       5.403   4.950  16.470  0.00  0.00    +0.000 C 
ATOM      4  C   UNL     1       5.689   3.655  15.717  0.00  0.00    +0.000 C 
ATOM      5  C   UNL     1       5.457   4.914  14.944  0.00  0.00    +0.000 C 
BRANCH   3   6
ATOM      6  C   UNL     1       6.528   5.660  17.218  0.00  0.00    +0.000 A 
ATOM      7  C   UNL     1       7.138   5.099  18.353  0.00  0.00    +0.000 A 
ATOM      8  C   UNL     1       7.995   5.853  19.159  0.00  0.00    +0.000 A 
ATOM      9  C   UNL     1       8.264   7.183  18.844  0.00  0.00    +0.000 A 
ATOM     10  C   UNL     1       7.728   7.740  17.689  0.00  0.00    +0.000 A 
ATOM     11  C   UNL     1       6.888   6.979  16.877  0.00  0.00    +0.000 A 
ENDBRANCH   3   6
ENDBRANCH   1   3
BRANCH   1  12
ATOM     12  O   UNL     1       3.271   4.036  16.904  0.00  0.00    +0.000 OA
BRANCH  12  13
ATOM     13  C   UNL     1       2.107   3.990  17.712  0.00  0.00    +0.000 C 
BRANCH  13  19
ATOM     14  C   UNL     1       1.819   4.909  20.443  0.00  0.00    +0.000 C 
ATOM     15  C   UNL     1       2.419   3.531  20.202  0.00  0.00    +0.000 C 
ATOM     16  C   UNL     1       3.938   3.524  20.245  0.00  0.00    +0.000 C 
ATOM     17  C   UNL     1       4.302   2.197  19.617  0.00  0.00    +0.000 C 
ATOM     18  C   UNL     1       3.224   1.903  18.580  0.00  0.00    +0.000 C 
ATOM     19  N   UNL     1       2.100   2.934  18.816  0.00  0.00    +0.000 N 
ATOM     20  C   UNL     1       0.743   2.243  18.813  0.00  0.00    +0.000 C 
ENDBRANCH  13  19
ENDBRANCH  12  13
ENDBRANCH   1  12
TORSDOF 5
ENDMDL
MODEL 6
REMARK VINA RESULT:      -7.4      1.323      2.349
REMARK  Name = 
REMARK  7 active torsions:
REMARK  status: ('A' for Active; 'I' for Inactive)
REMARK    1  A    between atoms: C_1  and  C_2
REMARK    2  A    between atoms: N_6  and  C_7
REMARK    3  A    between atoms: N_6  and  C_8
REMARK    4  A    between atoms: C_8  and  O_9
REMARK    5  A    between atoms: O_9  and  C_10
REMARK    6  A    between atoms: C_10  and  C_12
REMARK    7  A    between atoms: C_12  and  C_13
REMARK                            x       y       z     vdW  Elec       q    Type
REMARK                         _______ _______ _______ _____ _____    ______ ____
ROOT
ATOM      1  C   UNL     1       6.490   4.917  18.358  0.00  0.00    +0.000 C 
ATOM      2  O   UNL     1       7.570   4.352  18.493  0.00  0.00    +0.000 OA
ENDROOT
BRANCH   1   3
ATOM      3  C   UNL     1       6.121   5.741  17.161  0.00  0.00    +0.000 C 
ATOM      4  C   UNL     1       5.070   6.834  17.327  0.00  0.00    +0.000 C 
ATOM      5  C   UNL     1       6.512   7.216  17.218  0.00  0.00    +0.000 C 
BRANCH   3   6
ATOM      6  C   UNL     1       6.253   5.006  15.830  0.00  0.00    +0.000 A 
ATOM      7  C   UNL     1       7.367   5.181  14.991  0.00  0.00    +0.000 A 
ATOM      8  C   UNL     1       7.368   4.690  13.682  0.00  0.00    +0.000 A 
ATOM      9  C   UNL     1       6.258   4.010  13.187  0.00  0.00    +0.000 A 
ATOM     10  C   UNL     1       5.171   3.765  14.019  0.00  0.00    +0.000 A 
ATOM     11  C   UNL     1       5.181   4.240  15.330  0.00  0.00    +0.000 A 
ENDBRANCH   3   6
ENDBRANCH   1   3
BRANCH   1  12
ATOM     12  O   UNL     1       5.463   4.853  19.247  0.00  0.00    +0.000 OA
BRANCH  12  13
ATOM     13  C   UNL     1       4.801   3.601  19.309  0.00  0.00    +0.000 C 
BRANCH  13  19
ATOM     14  C   UNL     1       2.988   2.057  17.662  0.00  0.00    +0.000 C 
ATOM     15  C   UNL     1       2.420   3.205  18.483  0.00  0.00    +0.000 C 
ATOM     16  C   UNL     1       2.241   4.483  17.679  0.00  0.00    +0.000 C 
ATOM     17  C   UNL     1       2.049   5.543  18.742  0.00  0.00    +0.000 C 
ATOM     18  C   UNL     1       2.875   5.099  19.944  0.00  0.00    +0.000 C 
ATOM     19  N   UNL     1       3.314   3.647  19.659  0.00  0.00    +0.000 N 
ATOM     20  C   UNL     1       3.081   2.777  20.886  0.00  0.00    +0.000 C 
ENDBRANCH  13  19
ENDBRANCH  12  13
ENDBRANCH   1  12
TORSDOF 5
ENDMDL
MODEL 7
REMARK VINA RESULT:      -7.3      1.471      3.366
REMARK  Name = 
REMARK  7 active torsions:
REMARK  status: ('A' for Active; 'I' for Inactive)
REMARK    1  A    between atoms: C_1  and  C_2
REMARK    2  A    between atoms: N_6  and  C_7
REMARK    3  A    between atoms: N_6  and  C_8
REMARK    4  A    between atoms: C_8  and  O_9
REMARK    5  A    between atoms: O_9  and  C_10
REMARK    6  A    between atoms: C_10  and  C_12
REMARK    7  A    between atoms: C_12  and  C_13
REMARK                            x       y       z     vdW  Elec       q    Type
REMARK                         _______ _______ _______ _____ _____    ______ ____
ROOT
ATOM      1  C   UNL     1       4.208   5.263  17.028  0.00  0.00    +0.000 C 
ATOM      2  O   UNL     1       3.673   6.351  17.210  0.00  0.00    +0.000 OA
ENDROOT
BRANCH   1   3
ATOM      3  C   UNL     1       5.577   5.091  16.442  0.00  0.00    +0.000 C 
ATOM      4  C   UNL     1       5.896   3.793  15.706  0.00  0.00    +0.000 C 
ATOM      5  C   UNL     1       5.650   5.040  14.917  0.00  0.00    +0.000 C 
BRANCH   3   6
ATOM      6  C   UNL     1       6.679   5.829  17.196  0.00  0.00    +0.000 A 
ATOM      7  C   UNL     1       7.312   5.275  18.322  0.00  0.00    +0.000 A 
ATOM      8  C   UNL     1       8.145   6.047  19.135  0.00  0.00    +0.000 A 
ATOM      9  C   UNL     1       8.366   7.390  18.838  0.00  0.00    +0.000 A 
ATOM     10  C   UNL     1       7.807   7.944  17.692  0.00  0.00    +0.000 A 
ATOM     11  C   UNL     1       6.992   7.165  16.872  0.00  0.00    +0.000 A 
ENDBRANCH   3   6
ENDBRANCH   1   3
BRANCH   1  12
ATOM     12  O   UNL     1       3.661   4.063  17.358  0.00  0.00    +0.000 OA
BRANCH  12  13
ATOM     13  C   UNL     1       3.479   3.850  18.748  0.00  0.00    +0.000 C 
BRANCH  13  19
ATOM     14  C   UNL     1       2.163   5.991  20.186  0.00  0.00    +0.000 C 
ATOM     15  C   UNL     1       1.617   4.578  20.334  0.00  0.00    +0.000 C 
ATOM     16  C   UNL     1       2.102   3.878  21.593  0.00  0.00    +0.000 C 
ATOM     17  C   UNL     1       1.769   2.424  21.339  0.00  0.00    +0.000 C 
ATOM     18  C   UNL     1       1.900   2.211  19.835  0.00  0.00    +0.000 C 
ATOM     19  N   UNL     1       2.040   3.614  19.206  0.00  0.00    +0.000 N 
ATOM     20  C   UNL     1       1.123   3.744  17.999  0.00  0.00    +0.000 C 
ENDBRANCH  13  19
ENDBRANCH  12  13
ENDBRANCH   1  12
TORSDOF 5
ENDMDL
MODEL 8
REMARK VINA RESULT:      -7.2      2.498      6.084
REMARK  Name = 
REMARK  7 active torsions:
REMARK  status: ('A' for Active; 'I' for Inactive)
REMARK    1  A    between atoms: C_1  and  C_2
REMARK    2  A    between atoms: N_6  and  C_7
REMARK    3  A    between atoms: N_6  and  C_8
REMARK    4  A    between atoms: C_8  and  O_9
REMARK    5  A    between atoms: O_9  and  C_10
REMARK    6  A    between atoms: C_10  and  C_12
REMARK    7  A    between atoms: C_12  and  C_13
REMARK                            x       y       z     vdW  Elec       q    Type
REMARK                         _______ _______ _______ _____ _____    ______ ____
ROOT
ATOM      1  C   UNL     1       3.648   3.780  19.507  0.00  0.00    +0.000 C 
ATOM      2  O   UNL     1       3.518   3.458  20.683  0.00  0.00    +0.000 OA
ENDROOT
BRANCH   1   3
ATOM      3  C   UNL     1       2.582   4.460  18.703  0.00  0.00    +0.000 C 
ATOM      4  C   UNL     1       2.259   3.917  17.315  0.00  0.00    +0.000 C 
ATOM      5  C   UNL     1       1.316   3.645  18.444  0.00  0.00    +0.000 C 
BRANCH   3   6
ATOM      6  C   UNL     1       2.436   5.952  18.990  0.00  0.00    +0.000 A 
ATOM      7  C   UNL     1       2.005   6.432  20.239  0.00  0.00    +0.000 A 
ATOM      8  C   UNL     1       1.655   7.774  20.415  0.00  0.00    +0.000 A 
ATOM      9  C   UNL     1       1.734   8.664  19.347  0.00  0.00    +0.000 A 
ATOM     10  C   UNL     1       2.222   8.230  18.120  0.00  0.00    +0.000 A 
ATOM     11  C   UNL     1       2.589   6.894  17.954  0.00  0.00    +0.000 A 
ENDBRANCH   3   6
ENDBRANCH   1   3
BRANCH   1  12
ATOM     12  O   UNL     1       4.778   3.602  18.773  0.00  0.00    +0.000 OA
BRANCH  12  13
ATOM     13  C   UNL     1       5.580   4.761  18.616  0.00  0.00    +0.000 C 
BRANCH  13  19
ATOM     14  C   UNL     1       6.342   7.363  17.602  0.00  0.00    +0.000 C 
ATOM     15  C   UNL     1       6.405   6.171  16.657  0.00  0.00    +0.000 C 
ATOM     16  C   UNL     1       5.184   6.054  15.760  0.00  0.00    +0.000 C 
ATOM     17  C   UNL     1       5.280   4.646  15.216  0.00  0.00    +0.000 C 
ATOM     18  C   UNL     1       5.934   3.808  16.309  0.00  0.00    +0.000 C 
ATOM     19  N   UNL     1       6.458   4.803  17.366  0.00  0.00    +0.000 N 
ATOM     20  C   UNL     1       7.882   4.444  17.766  0.00  0.00    +0.000 C 
ENDBRANCH  13  19
ENDBRANCH  12  13
ENDBRANCH   1  12
TORSDOF 5
ENDMDL
MODEL 9
REMARK VINA RESULT:      -7.2      1.393      3.405
REMARK  Name = 
REMARK  7 active torsions:
REMARK  status: ('A' for Active; 'I' for Inactive)
REMARK    1  A    between atoms: C_1  and  C_2
REMARK    2  A    between atoms: N_6  and  C_7
REMARK    3  A    between atoms: N_6  and  C_8
REMARK    4  A    between atoms: C_8  and  O_9
REMARK    5  A    between atoms: O_9  and  C_10
REMARK    6  A    between atoms: C_10  and  C_12
REMARK    7  A    between atoms: C_12  and  C_13
REMARK                            x       y       z     vdW  Elec       q    Type
REMARK                         _______ _______ _______ _____ _____    ______ ____
ROOT
ATOM      1  C   UNL     1       4.707   3.950  16.890  0.00  0.00    +0.000 C 
ATOM      2  O   UNL     1       4.476   2.747  16.899  0.00  0.00    +0.000 OA
ENDROOT
BRANCH   1   3
ATOM      3  C   UNL     1       5.828   4.581  16.120  0.00  0.00    +0.000 C 
ATOM      4  C   UNL     1       6.343   3.873  14.872  0.00  0.00    +0.000 C 
ATOM      5  C   UNL     1       5.479   5.084  14.721  0.00  0.00    +0.000 C 
BRANCH   3   6
ATOM      6  C   UNL     1       6.782   5.413  16.973  0.00  0.00    +0.000 A 
ATOM      7  C   UNL     1       7.388   4.898  18.131  0.00  0.00    +0.000 A 
ATOM      8  C   UNL     1       8.068   5.732  19.022  0.00  0.00    +0.000 A 
ATOM      9  C   UNL     1       8.160   7.099  18.771  0.00  0.00    +0.000 A 
ATOM     10  C   UNL     1       7.629   7.623  17.598  0.00  0.00    +0.000 A 
ATOM     11  C   UNL     1       6.968   6.784  16.702  0.00  0.00    +0.000 A 
ENDBRANCH   3   6
ENDBRANCH   1   3
BRANCH   1  12
ATOM     12  O   UNL     1       3.968   4.888  17.540  0.00  0.00    +0.000 OA
BRANCH  12  13
ATOM     13  C   UNL     1       3.638   4.567  18.881  0.00  0.00    +0.000 C 
BRANCH  13  19
ATOM     14  C   UNL     1       1.891   6.223  20.491  0.00  0.00    +0.000 C 
ATOM     15  C   UNL     1       1.549   4.748  20.333  0.00  0.00    +0.000 C 
ATOM     16  C   UNL     1       2.010   3.899  21.506  0.00  0.00    +0.000 C 
ATOM     17  C   UNL     1       1.920   2.485  20.974  0.00  0.00    +0.000 C 
ATOM     18  C   UNL     1       2.223   2.569  19.482  0.00  0.00    +0.000 C 
ATOM     19  N   UNL     1       2.213   4.069  19.119  0.00  0.00    +0.000 N 
ATOM     20  C   UNL     1       1.405   4.298  17.850  0.00  0.00    +0.000 C 
ENDBRANCH  13  19
ENDBRANCH  12  13
ENDBRANCH   1  12
TORSDOF 5
ENDMDL
