MODEL 1
REMARK VINA RESULT:      -9.0      0.000      0.000
REMARK  Name = 
REMARK  6 active torsions:
REMARK  status: ('A' for Active; 'I' for Inactive)
REMARK    1  A    between atoms: C_1  and  C_2
REMARK    2  A    between atoms: C_9  and  C_11
REMARK    3  A    between atoms: C_11  and  O_12
REMARK    4  A    between atoms: O_12  and  C_13
REMARK    5  A    between atoms: C_13  and  C_15
REMARK    6  A    between atoms: C_15  and  C_16
REMARK                            x       y       z     vdW  Elec       q    Type
REMARK                         _______ _______ _______ _____ _____    ______ ____
ROOT
ATOM      1  C   UNL     1       1.858   3.096  21.263  0.00  0.00    +0.000 C 
ATOM      2  O   UNL     1       1.375   2.516  22.232  0.00  0.00    +0.000 OA
ENDROOT
BRANCH   1   3
ATOM      3  O   UNL     1       1.416   4.369  20.865  0.00  0.00    +0.000 OA
BRANCH   3   4
ATOM      4  C   UNL     1       2.344   5.460  20.972  0.00  0.00    +0.000 C 
BRANCH   4  13
ATOM      5  C   UNL     1      -0.862  12.100  21.809  0.00  0.00    +0.000 C 
ATOM      6  C   UNL     1      -0.124  11.159  20.888  0.00  0.00    +0.000 A 
ATOM      7  C   UNL     1       0.061  11.450  19.532  0.00  0.00    +0.000 A 
ATOM      8 CL   UNL     1      -0.539  12.880  18.774  0.00  0.00    +0.000 Cl
ATOM      9  C   UNL     1       0.750  10.538  18.745  0.00  0.00    +0.000 A 
ATOM     10  N   UNL     1       1.240   9.357  19.196  0.00  0.00    +0.000 NA
ATOM     11  C   UNL     1       1.061   9.044  20.493  0.00  0.00    +0.000 A 
ATOM     12  N   UNL     1       1.494   7.780  20.975  0.00  0.00    +0.000 N 
ATOM     13  C   UNL     1       2.070   6.783  20.206  0.00  0.00    +0.000 C 
ATOM     14  O   UNL     1       2.415   6.888  19.032  0.00  0.00    +0.000 OA
ATOM     15  C   UNL     1       0.403   9.934  21.370  0.00  0.00    +0.000 A 
ATOM     16 CL   UNL     1       0.217   9.502  23.042  0.00  0.00    +0.000 Cl
ATOM     17  H   UNL     1       1.338   7.592  21.961  0.00  0.00    +0.000 HD
ENDBRANCH   4  13
ENDBRANCH   3   4
ENDBRANCH   1   3
BRANCH   1  18
ATOM     18  C   UNL     1       2.954   2.476  20.366  0.00  0.00    +0.000 C 
BRANCH  18  19
ATOM     19  C   UNL     1       3.172   3.176  19.015  0.00  0.00    +0.000 A 
ATOM     20  C   UNL     1       2.124   3.012  18.118  0.00  0.00    +0.000 A 
ATOM     21  O   UNL     1       2.503   3.242  16.864  0.00  0.00    +0.000 OA
ATOM     22  C   UNL     1       3.739   3.766  16.906  0.00  0.00    +0.000 A 
ATOM     23  C   UNL     1       4.352   4.129  15.713  0.00  0.00    +0.000 A 
ATOM     24  C   UNL     1       5.509   4.872  15.789  0.00  0.00    +0.000 A 
ATOM     25  C   UNL     1       6.050   5.206  17.014  0.00  0.00    +0.000 A 
ATOM     26  C   UNL     1       7.154   6.065  16.910  0.00  0.00    +0.000 A 
ATOM     27  C   UNL     1       7.802   6.535  18.031  0.00  0.00    +0.000 A 
ATOM     28  C   UNL     1       7.362   6.104  19.273  0.00  0.00    +0.000 A 
ATOM     29  C   UNL     1       6.246   5.216  19.406  0.00  0.00    +0.000 A 
ATOM     30  C   UNL     1       5.503   4.728  18.283  0.00  0.00    +0.000 A 
ATOM     31  C   UNL     1       4.225   3.926  18.216  0.00  0.00    +0.000 A 
ENDBRANCH  18  19
ENDBRANCH   1  18
TORSDOF 5
ENDMDL
MODEL 2
REMARK VINA RESULT:      -9.0      4.963      7.489
REMARK  Name = 
REMARK  6 active torsions:
REMARK  status: ('A' for Active; 'I' for Inactive)
REMARK    1  A    between atoms: C_1  and  C_2
REMARK    2  A    between atoms: C_9  and  C_11
REMARK    3  A    between atoms: C_11  and  O_12
REMARK    4  A    between atoms: O_12  and  C_13
REMARK    5  A    between atoms: C_13  and  C_15
REMARK    6  A    between atoms: C_15  and  C_16
REMARK                            x       y       z     vdW  Elec       q    Type
REMARK                         _______ _______ _______ _____ _____    ______ ____
ROOT
ATOM      1  C   UNL     1       6.910   5.395  16.093  0.00  0.00    +0.000 C 
ATOM      2  O   UNL     1       7.586   4.377  15.972  0.00  0.00    +0.000 OA
ENDROOT
BRANCH   1   3
ATOM      3  O   UNL     1       7.499   6.664  16.222  0.00  0.00    +0.000 OA
BRANCH   3   4
ATOM      4  C   UNL     1       7.036   7.509  17.288  0.00  0.00    +0.000 C 
BRANCH   4  13
ATOM      5  C   UNL     1       9.594  14.441  17.981  0.00  0.00    +0.000 C 
ATOM      6  C   UNL     1       9.687  13.006  18.440  0.00  0.00    +0.000 A 
ATOM      7  C   UNL     1      10.692  12.578  19.315  0.00  0.00    +0.000 A 
ATOM      8 CL   UNL     1      11.920  13.618  19.939  0.00  0.00    +0.000 Cl
ATOM      9  C   UNL     1      10.716  11.243  19.695  0.00  0.00    +0.000 A 
ATOM     10  N   UNL     1       9.841  10.306  19.253  0.00  0.00    +0.000 NA
ATOM     11  C   UNL     1       8.875  10.688  18.396  0.00  0.00    +0.000 A 
ATOM     12  N   UNL     1       7.995   9.714  17.855  0.00  0.00    +0.000 N 
ATOM     13  C   UNL     1       8.055   8.353  18.100  0.00  0.00    +0.000 C 
ATOM     14  O   UNL     1       8.786   7.801  18.919  0.00  0.00    +0.000 OA
ATOM     15  C   UNL     1       8.758  12.035  17.988  0.00  0.00    +0.000 A 
ATOM     16 CL   UNL     1       7.481  12.489  16.902  0.00  0.00    +0.000 Cl
ATOM     17  H   UNL     1       7.282  10.052  17.214  0.00  0.00    +0.000 HD
ENDBRANCH   4  13
ENDBRANCH   3   4
ENDBRANCH   1   3
BRANCH   1  18
ATOM     18  C   UNL     1       5.366   5.382  16.161  0.00  0.00    +0.000 C 
BRANCH  18  19
ATOM     19  C   UNL     1       4.769   5.437  17.577  0.00  0.00    +0.000 A 
ATOM     20  C   UNL     1       5.251   4.455  18.432  0.00  0.00    +0.000 A 
ATOM     21  O   UNL     1       4.438   4.256  19.467  0.00  0.00    +0.000 OA
ATOM     22  C   UNL     1       3.516   5.232  19.449  0.00  0.00    +0.000 A 
ATOM     23  C   UNL     1       2.561   5.268  20.457  0.00  0.00    +0.000 A 
ATOM     24  C   UNL     1       1.776   6.395  20.554  0.00  0.00    +0.000 A 
ATOM     25  C   UNL     1       1.918   7.431  19.652  0.00  0.00    +0.000 A 
ATOM     26  C   UNL     1       1.132   8.547  19.971  0.00  0.00    +0.000 A 
ATOM     27  C   UNL     1       1.170   9.691  19.205  0.00  0.00    +0.000 A 
ATOM     28  C   UNL     1       1.980   9.699  18.078  0.00  0.00    +0.000 A 
ATOM     29  C   UNL     1       2.782   8.568  17.724  0.00  0.00    +0.000 A 
ATOM     30  C   UNL     1       2.821   7.367  18.504  0.00  0.00    +0.000 A 
ATOM     31  C   UNL     1       3.699   6.144  18.393  0.00  0.00    +0.000 A 
ENDBRANCH  18  19
ENDBRANCH   1  18
TORSDOF 5
ENDMDL
MODEL 3
REMARK VINA RESULT:      -8.8      4.116      9.397
REMARK  Name = 
REMARK  6 active torsions:
REMARK  status: ('A' for Active; 'I' for Inactive)
REMARK    1  A    between atoms: C_1  and  C_2
REMARK    2  A    between atoms: C_9  and  C_11
REMARK    3  A    between atoms: C_11  and  O_12
REMARK    4  A    between atoms: O_12  and  C_13
REMARK    5  A    between atoms: C_13  and  C_15
REMARK    6  A    between atoms: C_15  and  C_16
REMARK                            x       y       z     vdW  Elec       q    Type
REMARK                         _______ _______ _______ _____ _____    ______ ____
ROOT
ATOM      1  C   UNL     1      -0.314  10.610  22.266  0.00  0.00    +0.000 C 
ATOM      2  O   UNL     1      -0.405  10.729  23.485  0.00  0.00    +0.000 OA
ENDROOT
BRANCH   1   3
ATOM      3  O   UNL     1      -0.272   9.351  21.645  0.00  0.00    +0.000 OA
BRANCH   3   4
ATOM      4  C   UNL     1       0.937   8.585  21.772  0.00  0.00    +0.000 C 
BRANCH   4  13
ATOM      5  C   UNL     1       4.025   2.299  19.319  0.00  0.00    +0.000 C 
ATOM      6  C   UNL     1       3.651   3.728  19.012  0.00  0.00    +0.000 A 
ATOM      7  C   UNL     1       4.050   4.355  17.825  0.00  0.00    +0.000 A 
ATOM      8 CL   UNL     1       5.009   3.583  16.616  0.00  0.00    +0.000 Cl
ATOM      9  C   UNL     1       3.669   5.672  17.610  0.00  0.00    +0.000 A 
ATOM     10  N   UNL     1       2.951   6.414  18.488  0.00  0.00    +0.000 NA
ATOM     11  C   UNL     1       2.569   5.841  19.646  0.00  0.00    +0.000 A 
ATOM     12  N   UNL     1       1.886   6.617  20.619  0.00  0.00    +0.000 N 
ATOM     13  C   UNL     1       1.594   7.966  20.510  0.00  0.00    +0.000 C 
ATOM     14  O   UNL     1       1.760   8.659  19.509  0.00  0.00    +0.000 OA
ATOM     15  C   UNL     1       2.885   4.494  19.927  0.00  0.00    +0.000 A 
ATOM     16 CL   UNL     1       2.349   3.786  21.421  0.00  0.00    +0.000 Cl
ATOM     17  H   UNL     1       1.618   6.139  21.475  0.00  0.00    +0.000 HD
ENDBRANCH   4  13
ENDBRANCH   3   4
ENDBRANCH   1   3
BRANCH   1  18
ATOM     18  C   UNL     1      -0.194  11.816  21.306  0.00  0.00    +0.000 C 
BRANCH  18  19
ATOM     19  C   UNL     1      -1.527  12.371  20.777  0.00  0.00    +0.000 A 
ATOM     20  C   UNL     1      -2.072  13.378  21.564  0.00  0.00    +0.000 A 
ATOM     21  O   UNL     1      -3.374  13.531  21.341  0.00  0.00    +0.000 OA
ATOM     22  C   UNL     1      -3.690  12.792  20.266  0.00  0.00    +0.000 A 
ATOM     23  C   UNL     1      -5.000  12.808  19.804  0.00  0.00    +0.000 A 
ATOM     24  C   UNL     1      -5.252  12.237  18.577  0.00  0.00    +0.000 A 
ATOM     25  C   UNL     1      -4.237  11.640  17.857  0.00  0.00    +0.000 A 
ATOM     26  C   UNL     1      -4.642  11.222  16.581  0.00  0.00    +0.000 A 
ATOM     27  C   UNL     1      -3.754  10.637  15.705  0.00  0.00    +0.000 A 
ATOM     28  C   UNL     1      -2.450  10.432  16.132  0.00  0.00    +0.000 A 
ATOM     29  C   UNL     1      -2.016  10.837  17.434  0.00  0.00    +0.000 A 
ATOM     30  C   UNL     1      -2.877  11.490  18.374  0.00  0.00    +0.000 A 
ATOM     31  C   UNL     1      -2.582  12.125  19.711  0.00  0.00    +0.000 A 
ENDBRANCH  18  19
ENDBRANCH   1  18
TORSDOF 5
ENDMDL
MODEL 4
REMARK VINA RESULT:      -8.8      2.868      5.007
REMARK  Name = 
REMARK  6 active torsions:
REMARK  status: ('A' for Active; 'I' for Inactive)
REMARK    1  A    between atoms: C_1  and  C_2
REMARK    2  A    between atoms: C_9  and  C_11
REMARK    3  A    between atoms: C_11  and  O_12
REMARK    4  A    between atoms: O_12  and  C_13
REMARK    5  A    between atoms: C_13  and  C_15
REMARK    6  A    between atoms: C_15  and  C_16
REMARK                            x       y       z     vdW  Elec       q    Type
REMARK                         _______ _______ _______ _____ _____    ______ ____
ROOT
ATOM      1  C   UNL     1       2.687   8.165  18.175  0.00  0.00    +0.000 C 
ATOM      2  O   UNL     1       2.158   7.723  19.191  0.00  0.00    +0.000 OA
ENDROOT
BRANCH   1   3
ATOM      3  O   UNL     1       2.103   9.199  17.424  0.00  0.00    +0.000 OA
BRANCH   3   4
ATOM      4  C   UNL     1       2.098  10.517  17.994  0.00  0.00    +0.000 C 
BRANCH   4  13
ATOM      5  C   UNL     1      -5.224  11.459  17.242  0.00  0.00    +0.000 C 
ATOM      6  C   UNL     1      -4.013  11.616  18.128  0.00  0.00    +0.000 A 
ATOM      7  C   UNL     1      -4.081  12.291  19.353  0.00  0.00    +0.000 A 
ATOM      8 CL   UNL     1      -5.522  13.017  19.963  0.00  0.00    +0.000 Cl
ATOM      9  C   UNL     1      -2.926  12.396  20.116  0.00  0.00    +0.000 A 
ATOM     10  N   UNL     1      -1.717  11.911  19.745  0.00  0.00    +0.000 NA
ATOM     11  C   UNL     1      -1.620  11.273  18.562  0.00  0.00    +0.000 A 
ATOM     12  N   UNL     1      -0.351  10.824  18.110  0.00  0.00    +0.000 N 
ATOM     13  C   UNL     1       0.850  11.016  18.772  0.00  0.00    +0.000 C 
ATOM     14  O   UNL     1       0.984  11.481  19.901  0.00  0.00    +0.000 OA
ATOM     15  C   UNL     1      -2.755  11.090  17.742  0.00  0.00    +0.000 A 
ATOM     16 CL   UNL     1      -2.591  10.238  16.237  0.00  0.00    +0.000 Cl
ATOM     17  H   UNL     1      -0.330  10.347  17.214  0.00  0.00    +0.000 HD
ENDBRANCH   4  13
ENDBRANCH   3   4
ENDBRANCH   1   3
BRANCH   1  18
ATOM     18  C   UNL     1       4.011   7.610  17.601  0.00  0.00    +0.000 C 
BRANCH  18  19
ATOM     19  C   UNL     1       4.093   6.077  17.503  0.00  0.00    +0.000 A 
ATOM     20  C   UNL     1       4.881   5.620  16.456  0.00  0.00    +0.000 A 
ATOM     21  O   UNL     1       4.599   4.359  16.136  0.00  0.00    +0.000 OA
ATOM     22  C   UNL     1       3.779   3.877  17.084  0.00  0.00    +0.000 A 
ATOM     23  C   UNL     1       3.360   2.555  16.997  0.00  0.00    +0.000 A 
ATOM     24  C   UNL     1       2.717   2.015  18.088  0.00  0.00    +0.000 A 
ATOM     25  C   UNL     1       2.470   2.781  19.209  0.00  0.00    +0.000 A 
ATOM     26  C   UNL     1       1.922   2.043  20.268  0.00  0.00    +0.000 A 
ATOM     27  C   UNL     1       1.642   2.632  21.481  0.00  0.00    +0.000 A 
ATOM     28  C   UNL     1       1.880   3.992  21.620  0.00  0.00    +0.000 A 
ATOM     29  C   UNL     1       2.426   4.770  20.550  0.00  0.00    +0.000 A 
ATOM     30  C   UNL     1       2.780   4.208  19.281  0.00  0.00    +0.000 A 
ATOM     31  C   UNL     1       3.499   4.811  18.099  0.00  0.00    +0.000 A 
ENDBRANCH  18  19
ENDBRANCH   1  18
TORSDOF 5
ENDMDL
MODEL 5
REMARK VINA RESULT:      -8.7      3.023      5.122
REMARK  Name = 
REMARK  6 active torsions:
REMARK  status: ('A' for Active; 'I' for Inactive)
REMARK    1  A    between atoms: C_1  and  C_2
REMARK    2  A    between atoms: C_9  and  C_11
REMARK    3  A    between atoms: C_11  and  O_12
REMARK    4  A    between atoms: O_12  and  C_13
REMARK    5  A    between atoms: C_13  and  C_15
REMARK    6  A    between atoms: C_15  and  C_16
REMARK                            x       y       z     vdW  Elec       q    Type
REMARK                         _______ _______ _______ _____ _____    ______ ____
ROOT
ATOM      1  C   UNL     1       1.717   8.827  19.512  0.00  0.00    +0.000 C 
ATOM      2  O   UNL     1       1.829   8.028  20.437  0.00  0.00    +0.000 OA
ENDROOT
BRANCH   1   3
ATOM      3  O   UNL     1       1.133  10.092  19.692  0.00  0.00    +0.000 OA
BRANCH   3   4
ATOM      4  C   UNL     1       0.339  10.620  18.616  0.00  0.00    +0.000 C 
BRANCH   4  13
ATOM      5  C   UNL     1      -3.994  12.651  24.288  0.00  0.00    +0.000 C 
ATOM      6  C   UNL     1      -3.768  12.678  22.796  0.00  0.00    +0.000 A 
ATOM      7  C   UNL     1      -4.726  13.193  21.915  0.00  0.00    +0.000 A 
ATOM      8 CL   UNL     1      -6.249  13.824  22.427  0.00  0.00    +0.000 Cl
ATOM      9  C   UNL     1      -4.450  13.185  20.556  0.00  0.00    +0.000 A 
ATOM     10  N   UNL     1      -3.315  12.685  20.009  0.00  0.00    +0.000 NA
ATOM     11  C   UNL     1      -2.383  12.168  20.832  0.00  0.00    +0.000 A 
ATOM     12  N   UNL     1      -1.221  11.565  20.283  0.00  0.00    +0.000 N 
ATOM     13  C   UNL     1      -0.955  11.416  18.932  0.00  0.00    +0.000 C 
ATOM     14  O   UNL     1      -1.613  11.897  18.013  0.00  0.00    +0.000 OA
ATOM     15  C   UNL     1      -2.570  12.170  22.232  0.00  0.00    +0.000 A 
ATOM     16 CL   UNL     1      -1.331  11.517  23.259  0.00  0.00    +0.000 Cl
ATOM     17  H   UNL     1      -0.547  11.190  20.945  0.00  0.00    +0.000 HD
ENDBRANCH   4  13
ENDBRANCH   3   4
ENDBRANCH   1   3
BRANCH   1  18
ATOM     18  C   UNL     1       2.159   8.513  18.064  0.00  0.00    +0.000 C 
BRANCH  18  19
ATOM     19  C   UNL     1       3.026   7.254  17.900  0.00  0.00    +0.000 A 
ATOM     20  C   UNL     1       4.203   7.467  17.195  0.00  0.00    +0.000 A 
ATOM     21  O   UNL     1       4.702   6.333  16.709  0.00  0.00    +0.000 OA
ATOM     22  C   UNL     1       4.002   5.321  17.245  0.00  0.00    +0.000 A 
ATOM     23  C   UNL     1       4.353   4.017  16.919  0.00  0.00    +0.000 A 
ATOM     24  C   UNL     1       3.784   2.999  17.650  0.00  0.00    +0.000 A 
ATOM     25  C   UNL     1       2.870   3.275  18.647  0.00  0.00    +0.000 A 
ATOM     26  C   UNL     1       2.487   2.137  19.371  0.00  0.00    +0.000 A 
ATOM     27  C   UNL     1       1.610   2.224  20.429  0.00  0.00    +0.000 A 
ATOM     28  C   UNL     1       1.077   3.467  20.739  0.00  0.00    +0.000 A 
ATOM     29  C   UNL     1       1.441   4.642  20.006  0.00  0.00    +0.000 A 
ATOM     30  C   UNL     1       2.382   4.625  18.926  0.00  0.00    +0.000 A 
ATOM     31  C   UNL     1       3.008   5.753  18.143  0.00  0.00    +0.000 A 
ENDBRANCH  18  19
ENDBRANCH   1  18
TORSDOF 5
ENDMDL
MODEL 6
REMARK VINA RESULT:      -8.7      3.390      5.285
REMARK  Name = 
REMARK  6 active torsions:
REMARK  status: ('A' for Active; 'I' for Inactive)
REMARK    1  A    between atoms: C_1  and  C_2
REMARK    2  A    between atoms: C_9  and  C_11
REMARK    3  A    between atoms: C_11  and  O_12
REMARK    4  A    between atoms: O_12  and  C_13
REMARK    5  A    between atoms: C_13  and  C_15
REMARK    6  A    between atoms: C_15  and  C_16
REMARK                            x       y       z     vdW  Elec       q    Type
REMARK                         _______ _______ _______ _____ _____    ______ ____
ROOT
ATOM      1  C   UNL     1       1.619   8.638  19.595  0.00  0.00    +0.000 C 
ATOM      2  O   UNL     1       1.872   7.872  20.521  0.00  0.00    +0.000 OA
ENDROOT
BRANCH   1   3
ATOM      3  O   UNL     1       0.751   9.731  19.753  0.00  0.00    +0.000 OA
BRANCH   3   4
ATOM      4  C   UNL     1       0.396  10.476  18.578  0.00  0.00    +0.000 C 
BRANCH   4  13
ATOM      5  C   UNL     1      -5.789  13.777  21.012  0.00  0.00    +0.000 C 
ATOM      6  C   UNL     1      -5.152  12.902  19.961  0.00  0.00    +0.000 A 
ATOM      7  C   UNL     1      -5.913  12.267  18.972  0.00  0.00    +0.000 A 
ATOM      8 CL   UNL     1      -7.630  12.398  18.861  0.00  0.00    +0.000 Cl
ATOM      9  C   UNL     1      -5.260  11.477  18.037  0.00  0.00    +0.000 A 
ATOM     10  N   UNL     1      -3.923  11.251  18.027  0.00  0.00    +0.000 NA
ATOM     11  C   UNL     1      -3.169  11.835  18.978  0.00  0.00    +0.000 A 
ATOM     12  N   UNL     1      -1.779  11.554  19.040  0.00  0.00    +0.000 N 
ATOM     13  C   UNL     1      -1.100  10.675  18.213  0.00  0.00    +0.000 C 
ATOM     14  O   UNL     1      -1.565  10.113  17.225  0.00  0.00    +0.000 OA
ATOM     15  C   UNL     1      -3.751  12.684  19.945  0.00  0.00    +0.000 A 
ATOM     16 CL   UNL     1      -2.738  13.440  21.137  0.00  0.00    +0.000 Cl
ATOM     17  H   UNL     1      -1.253  12.020  19.774  0.00  0.00    +0.000 HD
ENDBRANCH   4  13
ENDBRANCH   3   4
ENDBRANCH   1   3
BRANCH   1  18
ATOM     18  C   UNL     1       2.187   8.457  18.169  0.00  0.00    +0.000 C 
BRANCH  18  19
ATOM     19  C   UNL     1       3.035   7.192  17.954  0.00  0.00    +0.000 A 
ATOM     20  C   UNL     1       4.214   7.415  17.254  0.00  0.00    +0.000 A 
ATOM     21  O   UNL     1       4.693   6.293  16.723  0.00  0.00    +0.000 OA
ATOM     22  C   UNL     1       3.980   5.272  17.223  0.00  0.00    +0.000 A 
ATOM     23  C   UNL     1       4.310   3.976  16.845  0.00  0.00    +0.000 A 
ATOM     24  C   UNL     1       3.729   2.940  17.540  0.00  0.00    +0.000 A 
ATOM     25  C   UNL     1       2.822   3.191  18.549  0.00  0.00    +0.000 A 
ATOM     26  C   UNL     1       2.424   2.032  19.231  0.00  0.00    +0.000 A 
ATOM     27  C   UNL     1       1.551   2.092  20.294  0.00  0.00    +0.000 A 
ATOM     28  C   UNL     1       1.037   3.330  20.653  0.00  0.00    +0.000 A 
ATOM     29  C   UNL     1       1.417   4.526  19.964  0.00  0.00    +0.000 A 
ATOM     30  C   UNL     1       2.354   4.537  18.882  0.00  0.00    +0.000 A 
ATOM     31  C   UNL     1       2.995   5.684  18.140  0.00  0.00    +0.000 A 
ENDBRANCH  18  19
ENDBRANCH   1  18
TORSDOF 5
ENDMDL
MODEL 7
REMARK VINA RESULT:      -8.7      1.396      2.681
REMARK  Name = 
REMARK  6 active torsions:
REMARK  status: ('A' for Active; 'I' for Inactive)
REMARK    1  A    between atoms: C_1  and  C_2
REMARK    2  A    between atoms: C_9  and  C_11
REMARK    3  A    between atoms: C_11  and  O_12
REMARK    4  A    between atoms: O_12  and  C_13
REMARK    5  A    between atoms: C_13  and  C_15
REMARK    6  A    between atoms: C_15  and  C_16
REMARK                            x       y       z     vdW  Elec       q    Type
REMARK                         _______ _______ _______ _____ _____    ______ ____
ROOT
ATOM      1  C   UNL     1       1.662   3.758  18.389  0.00  0.00    +0.000 C 
ATOM      2  O   UNL     1       1.067   4.208  17.413  0.00  0.00    +0.000 OA
ENDROOT
BRANCH   1   3
ATOM      3  O   UNL     1       1.346   4.156  19.698  0.00  0.00    +0.000 OA
BRANCH   3   4
ATOM      4  C   UNL     1       2.145   5.193  20.291  0.00  0.00    +0.000 C 
BRANCH   4  13
ATOM      5  C   UNL     1      -0.473  11.944  21.915  0.00  0.00    +0.000 C 
ATOM      6  C   UNL     1       0.256  11.076  20.919  0.00  0.00    +0.000 A 
ATOM      7  C   UNL     1       0.598  11.546  19.645  0.00  0.00    +0.000 A 
ATOM      8 CL   UNL     1       0.215  13.130  19.079  0.00  0.00    +0.000 Cl
ATOM      9  C   UNL     1       1.269  10.691  18.782  0.00  0.00    +0.000 A 
ATOM     10  N   UNL     1       1.598   9.410  19.076  0.00  0.00    +0.000 NA
ATOM     11  C   UNL     1       1.265   8.927  20.288  0.00  0.00    +0.000 A 
ATOM     12  N   UNL     1       1.525   7.565  20.595  0.00  0.00    +0.000 N 
ATOM     13  C   UNL     1       2.075   6.637  19.727  0.00  0.00    +0.000 C 
ATOM     14  O   UNL     1       2.539   6.879  18.616  0.00  0.00    +0.000 OA
ATOM     15  C   UNL     1       0.614   9.742  21.240  0.00  0.00    +0.000 A 
ATOM     16 CL   UNL     1       0.227   9.087  22.802  0.00  0.00    +0.000 Cl
ATOM     17  H   UNL     1       1.258   7.249  21.523  0.00  0.00    +0.000 HD
ENDBRANCH   4  13
ENDBRANCH   3   4
ENDBRANCH   1   3
BRANCH   1  18
ATOM     18  C   UNL     1       2.832   2.754  18.276  0.00  0.00    +0.000 C 
BRANCH  18  19
ATOM     19  C   UNL     1       4.236   3.382  18.248  0.00  0.00    +0.000 A 
ATOM     20  C   UNL     1       4.819   3.518  19.501  0.00  0.00    +0.000 A 
ATOM     21  O   UNL     1       5.797   4.419  19.498  0.00  0.00    +0.000 OA
ATOM     22  C   UNL     1       6.037   4.750  18.219  0.00  0.00    +0.000 A 
ATOM     23  C   UNL     1       7.050   5.660  17.942  0.00  0.00    +0.000 A 
ATOM     24  C   UNL     1       7.434   5.808  16.628  0.00  0.00    +0.000 A 
ATOM     25  C   UNL     1       6.802   5.100  15.626  0.00  0.00    +0.000 A 
ATOM     26  C   UNL     1       7.398   5.276  14.369  0.00  0.00    +0.000 A 
ATOM     27  C   UNL     1       6.926   4.618  13.255  0.00  0.00    +0.000 A 
ATOM     28  C   UNL     1       5.813   3.802  13.397  0.00  0.00    +0.000 A 
ATOM     29  C   UNL     1       5.178   3.616  14.667  0.00  0.00    +0.000 A 
ATOM     30  C   UNL     1       5.647   4.235  15.870  0.00  0.00    +0.000 A 
ATOM     31  C   UNL     1       5.225   4.050  17.307  0.00  0.00    +0.000 A 
ENDBRANCH  18  19
ENDBRANCH   1  18
TORSDOF 5
ENDMDL
MODEL 8
REMARK VINA RESULT:      -8.6      3.245      7.312
REMARK  Name = 
REMARK  6 active torsions:
REMARK  status: ('A' for Active; 'I' for Inactive)
REMARK    1  A    between atoms: C_1  and  C_2
REMARK    2  A    between atoms: C_9  and  C_11
REMARK    3  A    between atoms: C_11  and  O_12
REMARK    4  A    between atoms: O_12  and  C_13
REMARK    5  A    between atoms: C_13  and  C_15
REMARK    6  A    between atoms: C_15  and  C_16
REMARK                            x       y       z     vdW  Elec       q    Type
REMARK                         _______ _______ _______ _____ _____    ______ ____
ROOT
ATOM      1  C   UNL     1       1.824   4.463  20.628  0.00  0.00    +0.000 C 
ATOM      2  O   UNL     1       0.651   4.467  20.266  0.00  0.00    +0.000 OA
ENDROOT
BRANCH   1   3
ATOM      3  O   UNL     1       2.430   3.315  21.166  0.00  0.00    +0.000 OA
BRANCH   3   4
ATOM      4  C   UNL     1       2.655   2.205  20.283  0.00  0.00    +0.000 C 
BRANCH   4  13
ATOM      5  C   UNL     1       7.651   6.622  17.026  0.00  0.00    +0.000 C 
ATOM      6  C   UNL     1       6.697   5.463  16.873  0.00  0.00    +0.000 A 
ATOM      7  C   UNL     1       6.436   4.884  15.625  0.00  0.00    +0.000 A 
ATOM      8 CL   UNL     1       7.149   5.434  14.153  0.00  0.00    +0.000 Cl
ATOM      9  C   UNL     1       5.548   3.820  15.560  0.00  0.00    +0.000 A 
ATOM     10  N   UNL     1       4.885   3.311  16.627  0.00  0.00    +0.000 NA
ATOM     11  C   UNL     1       5.104   3.860  17.837  0.00  0.00    +0.000 A 
ATOM     12  N   UNL     1       4.365   3.401  18.959  0.00  0.00    +0.000 N 
ATOM     13  C   UNL     1       3.376   2.432  18.926  0.00  0.00    +0.000 C 
ATOM     14  O   UNL     1       3.084   1.735  17.958  0.00  0.00    +0.000 OA
ATOM     15  C   UNL     1       6.020   4.922  17.996  0.00  0.00    +0.000 A 
ATOM     16 CL   UNL     1       6.293   5.584  19.579  0.00  0.00    +0.000 Cl
ATOM     17  H   UNL     1       4.567   3.845  19.850  0.00  0.00    +0.000 HD
ENDBRANCH   4  13
ENDBRANCH   3   4
ENDBRANCH   1   3
BRANCH   1  18
ATOM     18  C   UNL     1       2.731   5.714  20.573  0.00  0.00    +0.000 C 
BRANCH  18  19
ATOM     19  C   UNL     1       2.174   6.894  19.760  0.00  0.00    +0.000 A 
ATOM     20  C   UNL     1       2.358   6.772  18.389  0.00  0.00    +0.000 A 
ATOM     21  O   UNL     1       2.269   7.946  17.769  0.00  0.00    +0.000 OA
ATOM     22  C   UNL     1       1.818   8.841  18.663  0.00  0.00    +0.000 A 
ATOM     23  C   UNL     1       1.604  10.150  18.250  0.00  0.00    +0.000 A 
ATOM     24  C   UNL     1       0.928  10.989  19.108  0.00  0.00    +0.000 A 
ATOM     25  C   UNL     1       0.514  10.542  20.347  0.00  0.00    +0.000 A 
ATOM     26  C   UNL     1      -0.265  11.483  21.036  0.00  0.00    +0.000 A 
ATOM     27  C   UNL     1      -0.798  11.200  22.274  0.00  0.00    +0.000 A 
ATOM     28  C   UNL     1      -0.511   9.969  22.846  0.00  0.00    +0.000 A 
ATOM     29  C   UNL     1       0.293   8.997  22.169  0.00  0.00    +0.000 A 
ATOM     30  C   UNL     1       0.838   9.213  20.862  0.00  0.00    +0.000 A 
ATOM     31  C   UNL     1       1.565   8.277  19.928  0.00  0.00    +0.000 A 
ENDBRANCH  18  19
ENDBRANCH   1  18
TORSDOF 5
ENDMDL
MODEL 9
REMARK VINA RESULT:      -8.5      6.048      7.802
REMARK  Name = 
REMARK  6 active torsions:
REMARK  status: ('A' for Active; 'I' for Inactive)
REMARK    1  A    between atoms: C_1  and  C_2
REMARK    2  A    between atoms: C_9  and  C_11
REMARK    3  A    between atoms: C_11  and  O_12
REMARK    4  A    between atoms: O_12  and  C_13
REMARK    5  A    between atoms: C_13  and  C_15
REMARK    6  A    between atoms: C_15  and  C_16
REMARK                            x       y       z     vdW  Elec       q    Type
REMARK                         _______ _______ _______ _____ _____    ______ ____
ROOT
ATOM      1  C   UNL     1       7.632   7.338  17.904  0.00  0.00    +0.000 C 
ATOM      2  O   UNL     1       8.038   6.487  18.691  0.00  0.00    +0.000 OA
ENDROOT
BRANCH   1   3
ATOM      3  O   UNL     1       8.294   8.566  17.735  0.00  0.00    +0.000 OA
BRANCH   3   4
ATOM      4  C   UNL     1       8.648   9.301  18.918  0.00  0.00    +0.000 C 
BRANCH   4  13
ATOM      5  C   UNL     1      10.095  15.523  22.693  0.00  0.00    +0.000 C 
ATOM      6  C   UNL     1      10.262  14.759  21.403  0.00  0.00    +0.000 A 
ATOM      7  C   UNL     1      10.845  15.343  20.272  0.00  0.00    +0.000 A 
ATOM      8 CL   UNL     1      11.408  16.973  20.224  0.00  0.00    +0.000 Cl
ATOM      9  C   UNL     1      10.967  14.579  19.120  0.00  0.00    +0.000 A 
ATOM     10  N   UNL     1      10.532  13.301  19.000  0.00  0.00    +0.000 NA
ATOM     11  C   UNL     1       9.952  12.720  20.068  0.00  0.00    +0.000 A 
ATOM     12  N   UNL     1       9.416  11.411  19.948  0.00  0.00    +0.000 N 
ATOM     13  C   UNL     1       9.396  10.655  18.788  0.00  0.00    +0.000 C 
ATOM     14  O   UNL     1       9.952  10.944  17.732  0.00  0.00    +0.000 OA
ATOM     15  C   UNL     1       9.822  13.416  21.290  0.00  0.00    +0.000 A 
ATOM     16 CL   UNL     1       9.092  12.620  22.650  0.00  0.00    +0.000 Cl
ATOM     17  H   UNL     1       8.990  11.016  20.782  0.00  0.00    +0.000 HD
ENDBRANCH   4  13
ENDBRANCH   3   4
ENDBRANCH   1   3
BRANCH   1  18
ATOM     18  C   UNL     1       6.346   7.169  17.064  0.00  0.00    +0.000 C 
BRANCH  18  19
ATOM     19  C   UNL     1       5.705   5.772  17.117  0.00  0.00    +0.000 A 
ATOM     20  C   UNL     1       6.385   4.810  16.380  0.00  0.00    +0.000 A 
ATOM     21  O   UNL     1       5.612   3.766  16.095  0.00  0.00    +0.000 OA
ATOM     22  C   UNL     1       4.477   3.898  16.802  0.00  0.00    +0.000 A 
ATOM     23  C   UNL     1       3.509   2.907  16.704  0.00  0.00    +0.000 A 
ATOM     24  C   UNL     1       2.467   2.941  17.603  0.00  0.00    +0.000 A 
ATOM     25  C   UNL     1       2.380   3.950  18.541  0.00  0.00    +0.000 A 
ATOM     26  C   UNL     1       1.331   3.762  19.453  0.00  0.00    +0.000 A 
ATOM     27  C   UNL     1       1.112   4.649  20.483  0.00  0.00    +0.000 A 
ATOM     28  C   UNL     1       1.933   5.763  20.576  0.00  0.00    +0.000 A 
ATOM     29  C   UNL     1       3.002   5.985  19.649  0.00  0.00    +0.000 A 
ATOM     30  C   UNL     1       3.309   5.078  18.585  0.00  0.00    +0.000 A 
ATOM     31  C   UNL     1       4.466   5.046  17.615  0.00  0.00    +0.000 A 
ENDBRANCH  18  19
ENDBRANCH   1  18
TORSDOF 5
ENDMDL
