MODEL 1
REMARK VINA RESULT:      -7.6      0.000      0.000
REMARK  Name = 
REMARK  10 active torsions:
REMARK  status: ('A' for Active; 'I' for Inactive)
REMARK    1  A    between atoms: C_2  and  C_3
REMARK    2  A    between atoms: C_3  and  N_4
REMARK    3  A    between atoms: N_7  and  C_8
REMARK    4  A    between atoms: C_9  and  O_10
REMARK    5  A    between atoms: C_12  and  C_13
REMARK    6  A    between atoms: C_16  and  O_17
REMARK    7  A    between atoms: O_17  and  C_18
REMARK    8  A    between atoms: C_18  and  C_19
REMARK    9  A    between atoms: C_20  and  O_21
REMARK   10  A    between atoms: O_21  and  C_22
REMARK                            x       y       z     vdW  Elec       q    Type
REMARK                         _______ _______ _______ _____ _____    ______ ____
ROOT
ATOM      1  C   UNL     1       3.416   3.947  17.873  0.00  0.00    +0.000 A 
ATOM      2  C   UNL     1       3.426   2.675  18.460  0.00  0.00    +0.000 A 
ATOM      3  N   UNL     1       3.006   2.407  19.707  0.00  0.00    +0.000 NA
ATOM      4  C   UNL     1       2.506   3.431  20.431  0.00  0.00    +0.000 A 
ATOM      5  C   UNL     1       1.969   3.034  21.778  0.00  0.00    +0.000 C 
ATOM      6  C   UNL     1       2.466   4.765  19.968  0.00  0.00    +0.000 A 
ATOM      7  C   UNL     1       1.943   5.830  20.745  0.00  0.00    +0.000 A 
ATOM      8  C   UNL     1       1.921   7.157  20.295  0.00  0.00    +0.000 A 
ATOM      9  C   UNL     1       2.431   7.436  19.026  0.00  0.00    +0.000 A 
ATOM     10  C   UNL     1       2.923   6.383  18.236  0.00  0.00    +0.000 A 
ATOM     11  C   UNL     1       2.961   5.035  18.671  0.00  0.00    +0.000 A 
ENDROOT
BRANCH   1  15
ATOM     12  N   UNL     1       5.341   4.319  14.822  0.00  0.00    +0.000 N 
ATOM     13  C   UNL     1       5.148   4.327  16.180  0.00  0.00    +0.000 C 
ATOM     14  O   UNL     1       6.064   4.423  16.988  0.00  0.00    +0.000 OA
ATOM     15  N   UNL     1       3.825   4.173  16.521  0.00  0.00    +0.000 N 
ATOM     16  H   UNL     1       4.647   4.828  14.292  0.00  0.00    +0.000 HD
ATOM     17  H   UNL     1       3.284   3.731  15.794  0.00  0.00    +0.000 HD
BRANCH  12  18
ATOM     18  C   UNL     1       6.696   4.388  14.329  0.00  0.00    +0.000 C 
BRANCH  18  20
ATOM     19  C   UNL     1       5.696   3.301  12.304  0.00  0.00    +0.000 C 
ATOM     20  C   UNL     1       6.698   3.965  12.897  0.00  0.00    +0.000 C 
ENDBRANCH  18  20
ENDBRANCH  12  18
ENDBRANCH   1  15
BRANCH   2  21
ATOM     21  O   UNL     1       3.946   1.584  17.827  0.00  0.00    +0.000 OA
ATOM     22  H   UNL     1       3.170   1.122  17.456  0.00  0.00    +0.000 HD
ENDBRANCH   2  21
BRANCH   9  23
ATOM     23  O   UNL     1       2.530   8.644  18.384  0.00  0.00    +0.000 OA
ATOM     24  C   UNL     1       1.391   9.164  17.716  0.00  0.00    +0.000 C 
ENDBRANCH   9  23
BRANCH   8  25
ATOM     25  O   UNL     1       1.423   8.191  21.036  0.00  0.00    +0.000 OA
BRANCH  25  26
ATOM     26  C   UNL     1       0.010   8.298  21.212  0.00  0.00    +0.000 C 
ATOM     27  C   UNL     1      -0.240   9.172  22.427  0.00  0.00    +0.000 C 
ENDBRANCH  25  26
ENDBRANCH   8  25
TORSDOF 7
ENDMDL
MODEL 2
REMARK VINA RESULT:      -7.0      1.211      1.218
REMARK  Name = 
REMARK  10 active torsions:
REMARK  status: ('A' for Active; 'I' for Inactive)
REMARK    1  A    between atoms: C_2  and  C_3
REMARK    2  A    between atoms: C_3  and  N_4
REMARK    3  A    between atoms: N_7  and  C_8
REMARK    4  A    between atoms: C_9  and  O_10
REMARK    5  A    between atoms: C_12  and  C_13
REMARK    6  A    between atoms: C_16  and  O_17
REMARK    7  A    between atoms: O_17  and  C_18
REMARK    8  A    between atoms: C_18  and  C_19
REMARK    9  A    between atoms: C_20  and  O_21
REMARK   10  A    between atoms: O_21  and  C_22
REMARK                            x       y       z     vdW  Elec       q    Type
REMARK                         _______ _______ _______ _____ _____    ______ ____
ROOT
ATOM      1  C   UNL     1       4.350   3.732  19.212  0.00  0.00    +0.000 A 
ATOM      2  C   UNL     1       4.246   2.504  19.879  0.00  0.00    +0.000 A 
ATOM      3  N   UNL     1       3.352   2.233  20.842  0.00  0.00    +0.000 NA
ATOM      4  C   UNL     1       2.468   3.201  21.165  0.00  0.00    +0.000 A 
ATOM      5  C   UNL     1       1.440   2.790  22.181  0.00  0.00    +0.000 C 
ATOM      6  C   UNL     1       2.482   4.492  20.589  0.00  0.00    +0.000 A 
ATOM      7  C   UNL     1       1.551   5.499  20.943  0.00  0.00    +0.000 A 
ATOM      8  C   UNL     1       1.576   6.786  20.388  0.00  0.00    +0.000 A 
ATOM      9  C   UNL     1       2.560   7.080  19.442  0.00  0.00    +0.000 A 
ATOM     10  C   UNL     1       3.469   6.079  19.061  0.00  0.00    +0.000 A 
ATOM     11  C   UNL     1       3.466   4.773  19.612  0.00  0.00    +0.000 A 
ENDROOT
BRANCH   1  15
ATOM     12  N   UNL     1       5.901   4.474  16.018  0.00  0.00    +0.000 N 
ATOM     13  C   UNL     1       4.888   4.051  16.842  0.00  0.00    +0.000 C 
ATOM     14  O   UNL     1       3.750   3.826  16.445  0.00  0.00    +0.000 OA
ATOM     15  N   UNL     1       5.286   3.954  18.153  0.00  0.00    +0.000 N 
ATOM     16  H   UNL     1       6.805   4.067  16.216  0.00  0.00    +0.000 HD
ATOM     17  H   UNL     1       6.091   4.525  18.360  0.00  0.00    +0.000 HD
BRANCH  12  18
ATOM     18  C   UNL     1       5.594   4.699  14.625  0.00  0.00    +0.000 C 
BRANCH  18  20
ATOM     19  C   UNL     1       6.163   3.518  12.489  0.00  0.00    +0.000 C 
ATOM     20  C   UNL     1       6.299   3.662  13.815  0.00  0.00    +0.000 C 
ENDBRANCH  18  20
ENDBRANCH  12  18
ENDBRANCH   1  15
BRANCH   2  21
ATOM     21  O   UNL     1       5.115   1.476  19.655  0.00  0.00    +0.000 OA
ATOM     22  H   UNL     1       5.847   1.879  19.149  0.00  0.00    +0.000 HD
ENDBRANCH   2  21
BRANCH   9  23
ATOM     23  O   UNL     1       2.793   8.258  18.779  0.00  0.00    +0.000 OA
ATOM     24  C   UNL     1       1.943   8.621  17.702  0.00  0.00    +0.000 C 
ENDBRANCH   9  23
BRANCH   8  25
ATOM     25  O   UNL     1       0.686   7.765  20.724  0.00  0.00    +0.000 OA
BRANCH  25  26
ATOM     26  C   UNL     1       1.031   8.688  21.757  0.00  0.00    +0.000 C 
ATOM     27  C   UNL     1      -0.253   9.111  22.448  0.00  0.00    +0.000 C 
ENDBRANCH  25  26
ENDBRANCH   8  25
TORSDOF 7
ENDMDL
MODEL 3
REMARK VINA RESULT:      -6.9      2.365      6.724
REMARK  Name = 
REMARK  10 active torsions:
REMARK  status: ('A' for Active; 'I' for Inactive)
REMARK    1  A    between atoms: C_2  and  C_3
REMARK    2  A    between atoms: C_3  and  N_4
REMARK    3  A    between atoms: N_7  and  C_8
REMARK    4  A    between atoms: C_9  and  O_10
REMARK    5  A    between atoms: C_12  and  C_13
REMARK    6  A    between atoms: C_16  and  O_17
REMARK    7  A    between atoms: O_17  and  C_18
REMARK    8  A    between atoms: C_18  and  C_19
REMARK    9  A    between atoms: C_20  and  O_21
REMARK   10  A    between atoms: O_21  and  C_22
REMARK                            x       y       z     vdW  Elec       q    Type
REMARK                         _______ _______ _______ _____ _____    ______ ____
ROOT
ATOM      1  C   UNL     1       2.875   5.626  19.282  0.00  0.00    +0.000 A 
ATOM      2  C   UNL     1       2.078   4.526  19.627  0.00  0.00    +0.000 A 
ATOM      3  N   UNL     1       2.278   3.273  19.191  0.00  0.00    +0.000 NA
ATOM      4  C   UNL     1       3.343   3.052  18.391  0.00  0.00    +0.000 A 
ATOM      5  C   UNL     1       3.556   1.610  18.024  0.00  0.00    +0.000 C 
ATOM      6  C   UNL     1       4.208   4.077  17.946  0.00  0.00    +0.000 A 
ATOM      7  C   UNL     1       5.319   3.829  17.102  0.00  0.00    +0.000 A 
ATOM      8  C   UNL     1       6.166   4.847  16.642  0.00  0.00    +0.000 A 
ATOM      9  C   UNL     1       5.902   6.159  17.041  0.00  0.00    +0.000 A 
ATOM     10  C   UNL     1       4.822   6.411  17.903  0.00  0.00    +0.000 A 
ATOM     11  C   UNL     1       3.950   5.399  18.376  0.00  0.00    +0.000 A 
ENDROOT
BRANCH   1  15
ATOM     12  N   UNL     1       1.693   9.004  19.871  0.00  0.00    +0.000 N 
ATOM     13  C   UNL     1       1.985   7.903  19.105  0.00  0.00    +0.000 C 
ATOM     14  O   UNL     1       1.650   7.794  17.931  0.00  0.00    +0.000 OA
ATOM     15  N   UNL     1       2.652   6.934  19.816  0.00  0.00    +0.000 N 
ATOM     16  H   UNL     1       2.431   9.292  20.498  0.00  0.00    +0.000 HD
ATOM     17  H   UNL     1       2.503   7.008  20.810  0.00  0.00    +0.000 HD
BRANCH  12  18
ATOM     18  C   UNL     1       0.920  10.064  19.268  0.00  0.00    +0.000 C 
BRANCH  18  20
ATOM     19  C   UNL     1      -0.315  10.081  21.449  0.00  0.00    +0.000 C 
ATOM     20  C   UNL     1      -0.268  10.330  20.133  0.00  0.00    +0.000 C 
ENDBRANCH  18  20
ENDBRANCH  12  18
ENDBRANCH   1  15
BRANCH   2  21
ATOM     21  O   UNL     1       0.957   4.650  20.396  0.00  0.00    +0.000 OA
ATOM     22  H   UNL     1       0.321   5.126  19.828  0.00  0.00    +0.000 HD
ENDBRANCH   2  21
BRANCH   9  23
ATOM     23  O   UNL     1       6.572   7.310  16.714  0.00  0.00    +0.000 OA
ATOM     24  C   UNL     1       7.641   7.743  17.540  0.00  0.00    +0.000 C 
ENDBRANCH   9  23
BRANCH   8  25
ATOM     25  O   UNL     1       7.237   4.620  15.826  0.00  0.00    +0.000 OA
BRANCH  25  26
ATOM     26  C   UNL     1       7.126   4.931  14.437  0.00  0.00    +0.000 C 
ATOM     27  C   UNL     1       6.200   3.906  13.807  0.00  0.00    +0.000 C 
ENDBRANCH  25  26
ENDBRANCH   8  25
TORSDOF 7
ENDMDL
MODEL 4
REMARK VINA RESULT:      -6.9      3.173      4.410
REMARK  Name = 
REMARK  10 active torsions:
REMARK  status: ('A' for Active; 'I' for Inactive)
REMARK    1  A    between atoms: C_2  and  C_3
REMARK    2  A    between atoms: C_3  and  N_4
REMARK    3  A    between atoms: N_7  and  C_8
REMARK    4  A    between atoms: C_9  and  O_10
REMARK    5  A    between atoms: C_12  and  C_13
REMARK    6  A    between atoms: C_16  and  O_17
REMARK    7  A    between atoms: O_17  and  C_18
REMARK    8  A    between atoms: C_18  and  C_19
REMARK    9  A    between atoms: C_20  and  O_21
REMARK   10  A    between atoms: O_21  and  C_22
REMARK                            x       y       z     vdW  Elec       q    Type
REMARK                         _______ _______ _______ _____ _____    ______ ____
ROOT
ATOM      1  C   UNL     1       5.671   5.193  15.958  0.00  0.00    +0.000 A 
ATOM      2  C   UNL     1       7.024   5.537  16.082  0.00  0.00    +0.000 A 
ATOM      3  N   UNL     1       7.672   5.669  17.250  0.00  0.00    +0.000 NA
ATOM      4  C   UNL     1       6.980   5.418  18.381  0.00  0.00    +0.000 A 
ATOM      5  C   UNL     1       7.799   5.492  19.640  0.00  0.00    +0.000 C 
ATOM      6  C   UNL     1       5.605   5.091  18.396  0.00  0.00    +0.000 A 
ATOM      7  C   UNL     1       4.891   4.836  19.594  0.00  0.00    +0.000 A 
ATOM      8  C   UNL     1       3.524   4.531  19.612  0.00  0.00    +0.000 A 
ATOM      9  C   UNL     1       2.841   4.472  18.396  0.00  0.00    +0.000 A 
ATOM     10  C   UNL     1       3.547   4.692  17.200  0.00  0.00    +0.000 A 
ATOM     11  C   UNL     1       4.928   5.007  17.158  0.00  0.00    +0.000 A 
ENDROOT
BRANCH   1  15
ATOM     12  N   UNL     1       4.639   3.936  12.716  0.00  0.00    +0.000 N 
ATOM     13  C   UNL     1       5.504   4.104  13.768  0.00  0.00    +0.000 C 
ATOM     14  O   UNL     1       6.552   3.478  13.882  0.00  0.00    +0.000 OA
ATOM     15  N   UNL     1       5.038   5.013  14.687  0.00  0.00    +0.000 N 
ATOM     16  H   UNL     1       4.216   4.788  12.375  0.00  0.00    +0.000 HD
ATOM     17  H   UNL     1       4.037   5.129  14.649  0.00  0.00    +0.000 HD
BRANCH  12  18
ATOM     18  C   UNL     1       4.968   2.945  11.719  0.00  0.00    +0.000 C 
BRANCH  18  20
ATOM     19  C   UNL     1       3.262   3.841  10.117  0.00  0.00    +0.000 C 
ATOM     20  C   UNL     1       3.812   2.816  10.783  0.00  0.00    +0.000 C 
ENDBRANCH  18  20
ENDBRANCH  12  18
ENDBRANCH   1  15
BRANCH   2  21
ATOM     21  O   UNL     1       7.800   5.849  15.004  0.00  0.00    +0.000 OA
ATOM     22  H   UNL     1       7.373   5.391  14.254  0.00  0.00    +0.000 HD
ENDBRANCH   2  21
BRANCH   9  23
ATOM     23  O   UNL     1       1.515   4.211  18.163  0.00  0.00    +0.000 OA
ATOM     24  C   UNL     1       1.061   2.867  18.202  0.00  0.00    +0.000 C 
ENDBRANCH   9  23
BRANCH   8  25
ATOM     25  O   UNL     1       2.825   4.287  20.760  0.00  0.00    +0.000 OA
BRANCH  25  26
ATOM     26  C   UNL     1       2.820   2.964  21.297  0.00  0.00    +0.000 C 
ATOM     27  C   UNL     1       1.409   2.664  21.771  0.00  0.00    +0.000 C 
ENDBRANCH  25  26
ENDBRANCH   8  25
TORSDOF 7
ENDMDL
MODEL 5
REMARK VINA RESULT:      -6.6      2.842      4.908
REMARK  Name = 
REMARK  10 active torsions:
REMARK  status: ('A' for Active; 'I' for Inactive)
REMARK    1  A    between atoms: C_2  and  C_3
REMARK    2  A    between atoms: C_3  and  N_4
REMARK    3  A    between atoms: N_7  and  C_8
REMARK    4  A    between atoms: C_9  and  O_10
REMARK    5  A    between atoms: C_12  and  C_13
REMARK    6  A    between atoms: C_16  and  O_17
REMARK    7  A    between atoms: O_17  and  C_18
REMARK    8  A    between atoms: C_18  and  C_19
REMARK    9  A    between atoms: C_20  and  O_21
REMARK   10  A    between atoms: O_21  and  C_22
REMARK                            x       y       z     vdW  Elec       q    Type
REMARK                         _______ _______ _______ _____ _____    ______ ____
ROOT
ATOM      1  C   UNL     1       6.393   4.352  15.393  0.00  0.00    +0.000 A 
ATOM      2  C   UNL     1       7.401   5.306  15.202  0.00  0.00    +0.000 A 
ATOM      3  N   UNL     1       7.702   6.281  16.075  0.00  0.00    +0.000 NA
ATOM      4  C   UNL     1       7.009   6.320  17.232  0.00  0.00    +0.000 A 
ATOM      5  C   UNL     1       7.469   7.377  18.197  0.00  0.00    +0.000 C 
ATOM      6  C   UNL     1       5.950   5.435  17.535  0.00  0.00    +0.000 A 
ATOM      7  C   UNL     1       5.227   5.493  18.753  0.00  0.00    +0.000 A 
ATOM      8  C   UNL     1       4.163   4.630  19.047  0.00  0.00    +0.000 A 
ATOM      9  C   UNL     1       3.807   3.669  18.098  0.00  0.00    +0.000 A 
ATOM     10  C   UNL     1       4.538   3.583  16.900  0.00  0.00    +0.000 A 
ATOM     11  C   UNL     1       5.613   4.448  16.580  0.00  0.00    +0.000 A 
ENDROOT
BRANCH   1  15
ATOM     12  N   UNL     1       5.663   2.442  12.397  0.00  0.00    +0.000 N 
ATOM     13  C   UNL     1       5.624   3.548  13.208  0.00  0.00    +0.000 C 
ATOM     14  O   UNL     1       5.203   4.638  12.838  0.00  0.00    +0.000 OA
ATOM     15  N   UNL     1       6.145   3.300  14.455  0.00  0.00    +0.000 N 
ATOM     16  H   UNL     1       5.423   1.573  12.852  0.00  0.00    +0.000 HD
ATOM     17  H   UNL     1       6.776   2.514  14.465  0.00  0.00    +0.000 HD
BRANCH  12  18
ATOM     18  C   UNL     1       5.223   2.588  11.029  0.00  0.00    +0.000 C 
BRANCH  18  20
ATOM     19  C   UNL     1       3.192   3.666  10.032  0.00  0.00    +0.000 C 
ATOM     20  C   UNL     1       3.793   3.018  11.039  0.00  0.00    +0.000 C 
ENDBRANCH  18  20
ENDBRANCH  12  18
ENDBRANCH   1  15
BRANCH   2  21
ATOM     21  O   UNL     1       8.132   5.378  14.052  0.00  0.00    +0.000 OA
ATOM     22  H   UNL     1       7.683   4.765  13.438  0.00  0.00    +0.000 HD
ENDBRANCH   2  21
BRANCH   9  23
ATOM     23  O   UNL     1       2.805   2.735  18.151  0.00  0.00    +0.000 OA
ATOM     24  C   UNL     1       3.072   1.472  18.741  0.00  0.00    +0.000 C 
ENDBRANCH   9  23
BRANCH   8  25
ATOM     25  O   UNL     1       3.457   4.679  20.215  0.00  0.00    +0.000 OA
BRANCH  25  26
ATOM     26  C   UNL     1       2.240   5.424  20.257  0.00  0.00    +0.000 C 
ATOM     27  C   UNL     1       1.114   4.453  20.559  0.00  0.00    +0.000 C 
ENDBRANCH  25  26
ENDBRANCH   8  25
TORSDOF 7
ENDMDL
MODEL 6
REMARK VINA RESULT:      -6.5      1.464      1.684
REMARK  Name = 
REMARK  10 active torsions:
REMARK  status: ('A' for Active; 'I' for Inactive)
REMARK    1  A    between atoms: C_2  and  C_3
REMARK    2  A    between atoms: C_3  and  N_4
REMARK    3  A    between atoms: N_7  and  C_8
REMARK    4  A    between atoms: C_9  and  O_10
REMARK    5  A    between atoms: C_12  and  C_13
REMARK    6  A    between atoms: C_16  and  O_17
REMARK    7  A    between atoms: O_17  and  C_18
REMARK    8  A    between atoms: C_18  and  C_19
REMARK    9  A    between atoms: C_20  and  O_21
REMARK   10  A    between atoms: O_21  and  C_22
REMARK                            x       y       z     vdW  Elec       q    Type
REMARK                         _______ _______ _______ _____ _____    ______ ____
ROOT
ATOM      1  C   UNL     1       4.521   3.515  19.413  0.00  0.00    +0.000 A 
ATOM      2  C   UNL     1       4.343   2.315  20.114  0.00  0.00    +0.000 A 
ATOM      3  N   UNL     1       3.369   2.095  21.012  0.00  0.00    +0.000 NA
ATOM      4  C   UNL     1       2.480   3.087  21.225  0.00  0.00    +0.000 A 
ATOM      5  C   UNL     1       1.366   2.729  22.170  0.00  0.00    +0.000 C 
ATOM      6  C   UNL     1       2.562   4.354  20.605  0.00  0.00    +0.000 A 
ATOM      7  C   UNL     1       1.623   5.387  20.845  0.00  0.00    +0.000 A 
ATOM      8  C   UNL     1       1.715   6.651  20.246  0.00  0.00    +0.000 A 
ATOM      9  C   UNL     1       2.776   6.895  19.373  0.00  0.00    +0.000 A 
ATOM     10  C   UNL     1       3.696   5.867  19.104  0.00  0.00    +0.000 A 
ATOM     11  C   UNL     1       3.626   4.584  19.701  0.00  0.00    +0.000 A 
ENDROOT
BRANCH   1  15
ATOM     12  N   UNL     1       6.336   3.998  16.310  0.00  0.00    +0.000 N 
ATOM     13  C   UNL     1       5.274   3.598  17.081  0.00  0.00    +0.000 C 
ATOM     14  O   UNL     1       4.198   3.244  16.612  0.00  0.00    +0.000 OA
ATOM     15  N   UNL     1       5.543   3.683  18.426  0.00  0.00    +0.000 N 
ATOM     16  H   UNL     1       7.240   3.686  16.638  0.00  0.00    +0.000 HD
ATOM     17  H   UNL     1       6.285   4.333  18.635  0.00  0.00    +0.000 HD
BRANCH  12  18
ATOM     18  C   UNL     1       6.157   4.037  14.877  0.00  0.00    +0.000 C 
BRANCH  18  20
ATOM     19  C   UNL     1       5.304   6.343  15.366  0.00  0.00    +0.000 C 
ATOM     20  C   UNL     1       5.722   5.414  14.495  0.00  0.00    +0.000 C 
ENDBRANCH  18  20
ENDBRANCH  12  18
ENDBRANCH   1  15
BRANCH   2  21
ATOM     21  O   UNL     1       5.209   1.267  20.000  0.00  0.00    +0.000 OA
ATOM     22  H   UNL     1       5.069   0.743  20.812  0.00  0.00    +0.000 HD
ENDBRANCH   2  21
BRANCH   9  23
ATOM     23  O   UNL     1       3.082   8.043  18.687  0.00  0.00    +0.000 OA
ATOM     24  C   UNL     1       2.177   8.519  17.703  0.00  0.00    +0.000 C 
ENDBRANCH   9  23
BRANCH   8  25
ATOM     25  O   UNL     1       0.817   7.655  20.472  0.00  0.00    +0.000 OA
BRANCH  25  26
ATOM     26  C   UNL     1       1.066   8.579  21.532  0.00  0.00    +0.000 C 
ATOM     27  C   UNL     1      -0.269   8.924  22.167  0.00  0.00    +0.000 C 
ENDBRANCH  25  26
ENDBRANCH   8  25
TORSDOF 7
ENDMDL
MODEL 7
REMARK VINA RESULT:      -6.4      6.641      8.617
REMARK  Name = 
REMARK  10 active torsions:
REMARK  status: ('A' for Active; 'I' for Inactive)
REMARK    1  A    between atoms: C_2  and  C_3
REMARK    2  A    between atoms: C_3  and  N_4
REMARK    3  A    between atoms: N_7  and  C_8
REMARK    4  A    between atoms: C_9  and  O_10
REMARK    5  A    between atoms: C_12  and  C_13
REMARK    6  A    between atoms: C_16  and  O_17
REMARK    7  A    between atoms: O_17  and  C_18
REMARK    8  A    between atoms: C_18  and  C_19
REMARK    9  A    between atoms: C_20  and  O_21
REMARK   10  A    between atoms: O_21  and  C_22
REMARK                            x       y       z     vdW  Elec       q    Type
REMARK                         _______ _______ _______ _____ _____    ______ ____
ROOT
ATOM      1  C   UNL     1      -0.567  10.887  19.233  0.00  0.00    +0.000 A 
ATOM      2  C   UNL     1       0.401   9.904  19.478  0.00  0.00    +0.000 A 
ATOM      3  N   UNL     1       0.763   9.479  20.698  0.00  0.00    +0.000 NA
ATOM      4  C   UNL     1       0.124  10.012  21.761  0.00  0.00    +0.000 A 
ATOM      5  C   UNL     1       0.517   9.416  23.085  0.00  0.00    +0.000 C 
ATOM      6  C   UNL     1      -0.850  11.029  21.654  0.00  0.00    +0.000 A 
ATOM      7  C   UNL     1      -1.508  11.582  22.781  0.00  0.00    +0.000 A 
ATOM      8  C   UNL     1      -2.460  12.606  22.678  0.00  0.00    +0.000 A 
ATOM      9  C   UNL     1      -2.774  13.094  21.409  0.00  0.00    +0.000 A 
ATOM     10  C   UNL     1      -2.150  12.531  20.282  0.00  0.00    +0.000 A 
ATOM     11  C   UNL     1      -1.182  11.500  20.362  0.00  0.00    +0.000 A 
ENDROOT
BRANCH   1  15
ATOM     12  N   UNL     1      -2.368  11.352  16.119  0.00  0.00    +0.000 N 
ATOM     13  C   UNL     1      -2.041  10.702  17.283  0.00  0.00    +0.000 C 
ATOM     14  O   UNL     1      -2.675   9.749  17.721  0.00  0.00    +0.000 OA
ATOM     15  N   UNL     1      -0.957  11.268  17.910  0.00  0.00    +0.000 N 
ATOM     16  H   UNL     1      -1.579  11.632  15.554  0.00  0.00    +0.000 HD
ATOM     17  H   UNL     1      -0.810  12.229  17.644  0.00  0.00    +0.000 HD
BRANCH  12  18
ATOM     18  C   UNL     1      -3.541  10.910  15.402  0.00  0.00    +0.000 C 
BRANCH  18  20
ATOM     19  C   UNL     1      -3.803   9.827  13.158  0.00  0.00    +0.000 C 
ATOM     20  C   UNL     1      -3.103  10.025  14.283  0.00  0.00    +0.000 C 
ENDBRANCH  18  20
ENDBRANCH  12  18
ENDBRANCH   1  15
BRANCH   2  21
ATOM     21  O   UNL     1       1.131   9.333  18.476  0.00  0.00    +0.000 OA
ATOM     22  H   UNL     1       0.956   9.893  17.695  0.00  0.00    +0.000 HD
ENDBRANCH   2  21
BRANCH   9  23
ATOM     23  O   UNL     1      -3.650  14.090  21.060  0.00  0.00    +0.000 OA
ATOM     24  C   UNL     1      -4.820  13.753  20.331  0.00  0.00    +0.000 C 
ENDBRANCH   9  23
BRANCH   8  25
ATOM     25  O   UNL     1      -3.098  13.148  23.757  0.00  0.00    +0.000 OA
BRANCH  25  26
ATOM     26  C   UNL     1      -4.118  12.391  24.409  0.00  0.00    +0.000 C 
ATOM     27  C   UNL     1      -5.459  12.933  23.951  0.00  0.00    +0.000 C 
ENDBRANCH  25  26
ENDBRANCH   8  25
TORSDOF 7
ENDMDL
MODEL 8
REMARK VINA RESULT:      -6.3      2.304      6.972
REMARK  Name = 
REMARK  10 active torsions:
REMARK  status: ('A' for Active; 'I' for Inactive)
REMARK    1  A    between atoms: C_2  and  C_3
REMARK    2  A    between atoms: C_3  and  N_4
REMARK    3  A    between atoms: N_7  and  C_8
REMARK    4  A    between atoms: C_9  and  O_10
REMARK    5  A    between atoms: C_12  and  C_13
REMARK    6  A    between atoms: C_16  and  O_17
REMARK    7  A    between atoms: O_17  and  C_18
REMARK    8  A    between atoms: C_18  and  C_19
REMARK    9  A    between atoms: C_20  and  O_21
REMARK   10  A    between atoms: O_21  and  C_22
REMARK                            x       y       z     vdW  Elec       q    Type
REMARK                         _______ _______ _______ _____ _____    ______ ____
ROOT
ATOM      1  C   UNL     1       2.519   5.401  18.830  0.00  0.00    +0.000 A 
ATOM      2  C   UNL     1       1.805   4.253  19.198  0.00  0.00    +0.000 A 
ATOM      3  N   UNL     1       2.178   2.997  18.904  0.00  0.00    +0.000 NA
ATOM      4  C   UNL     1       3.341   2.830  18.240  0.00  0.00    +0.000 A 
ATOM      5  C   UNL     1       3.738   1.394  18.034  0.00  0.00    +0.000 C 
ATOM      6  C   UNL     1       4.141   3.904  17.788  0.00  0.00    +0.000 A 
ATOM      7  C   UNL     1       5.357   3.710  17.086  0.00  0.00    +0.000 A 
ATOM      8  C   UNL     1       6.141   4.774  16.619  0.00  0.00    +0.000 A 
ATOM      9  C   UNL     1       5.704   6.077  16.862  0.00  0.00    +0.000 A 
ATOM     10  C   UNL     1       4.515   6.279  17.585  0.00  0.00    +0.000 A 
ATOM     11  C   UNL     1       3.704   5.220  18.062  0.00  0.00    +0.000 A 
ENDROOT
BRANCH   1  15
ATOM     12  N   UNL     1       1.645   8.382  20.703  0.00  0.00    +0.000 N 
ATOM     13  C   UNL     1       1.809   7.032  20.517  0.00  0.00    +0.000 C 
ATOM     14  O   UNL     1       1.734   6.215  21.427  0.00  0.00    +0.000 OA
ATOM     15  N   UNL     1       2.107   6.717  19.213  0.00  0.00    +0.000 N 
ATOM     16  H   UNL     1       1.136   8.853  19.967  0.00  0.00    +0.000 HD
ATOM     17  H   UNL     1       2.505   7.492  18.705  0.00  0.00    +0.000 HD
BRANCH  12  18
ATOM     18  C   UNL     1       1.411   8.859  22.046  0.00  0.00    +0.000 C 
BRANCH  18  20
ATOM     19  C   UNL     1      -0.561   9.903  23.187  0.00  0.00    +0.000 C 
ATOM     20  C   UNL     1      -0.039   9.185  22.183  0.00  0.00    +0.000 C 
ENDBRANCH  18  20
ENDBRANCH  12  18
ENDBRANCH   1  15
BRANCH   2  21
ATOM     21  O   UNL     1       0.600   4.315  19.835  0.00  0.00    +0.000 OA
ATOM     22  H   UNL     1      -0.020   4.643  19.156  0.00  0.00    +0.000 HD
ENDBRANCH   2  21
BRANCH   9  23
ATOM     23  O   UNL     1       6.285   7.264  16.495  0.00  0.00    +0.000 OA
ATOM     24  C   UNL     1       7.312   7.808  17.309  0.00  0.00    +0.000 C 
ENDBRANCH   9  23
BRANCH   8  25
ATOM     25  O   UNL     1       7.313   4.599  15.938  0.00  0.00    +0.000 OA
BRANCH  25  26
ATOM     26  C   UNL     1       7.335   4.832  14.530  0.00  0.00    +0.000 C 
ATOM     27  C   UNL     1       6.276   3.946  13.899  0.00  0.00    +0.000 C 
ENDBRANCH  25  26
ENDBRANCH   8  25
TORSDOF 7
ENDMDL
MODEL 9
REMARK VINA RESULT:      -6.3      6.967     11.653
REMARK  Name = 
REMARK  10 active torsions:
REMARK  status: ('A' for Active; 'I' for Inactive)
REMARK    1  A    between atoms: C_2  and  C_3
REMARK    2  A    between atoms: C_3  and  N_4
REMARK    3  A    between atoms: N_7  and  C_8
REMARK    4  A    between atoms: C_9  and  O_10
REMARK    5  A    between atoms: C_12  and  C_13
REMARK    6  A    between atoms: C_16  and  O_17
REMARK    7  A    between atoms: O_17  and  C_18
REMARK    8  A    between atoms: C_18  and  C_19
REMARK    9  A    between atoms: C_20  and  O_21
REMARK   10  A    between atoms: O_21  and  C_22
REMARK                            x       y       z     vdW  Elec       q    Type
REMARK                         _______ _______ _______ _____ _____    ______ ____
ROOT
ATOM      1  C   UNL     1      -4.534  12.005  18.616  0.00  0.00    +0.000 A 
ATOM      2  C   UNL     1      -5.153  11.722  17.392  0.00  0.00    +0.000 A 
ATOM      3  N   UNL     1      -4.566  11.075  16.373  0.00  0.00    +0.000 NA
ATOM      4  C   UNL     1      -3.303  10.636  16.556  0.00  0.00    +0.000 A 
ATOM      5  C   UNL     1      -2.750   9.838  15.408  0.00  0.00    +0.000 C 
ATOM      6  C   UNL     1      -2.557  10.880  17.731  0.00  0.00    +0.000 A 
ATOM      7  C   UNL     1      -1.228  10.417  17.905  0.00  0.00    +0.000 A 
ATOM      8  C   UNL     1      -0.480  10.675  19.061  0.00  0.00    +0.000 A 
ATOM      9  C   UNL     1      -1.074  11.416  20.084  0.00  0.00    +0.000 A 
ATOM     10  C   UNL     1      -2.402  11.853  19.934  0.00  0.00    +0.000 A 
ATOM     11  C   UNL     1      -3.176  11.608  18.773  0.00  0.00    +0.000 A 
ENDROOT
BRANCH   1  15
ATOM     12  N   UNL     1      -6.582  12.726  21.522  0.00  0.00    +0.000 N 
ATOM     13  C   UNL     1      -6.206  12.016  20.409  0.00  0.00    +0.000 C 
ATOM     14  O   UNL     1      -6.676  10.922  20.120  0.00  0.00    +0.000 OA
ATOM     15  N   UNL     1      -5.220  12.652  19.693  0.00  0.00    +0.000 N 
ATOM     16  H   UNL     1      -6.659  13.724  21.382  0.00  0.00    +0.000 HD
ATOM     17  H   UNL     1      -4.694  13.307  20.249  0.00  0.00    +0.000 HD
BRANCH  12  18
ATOM     18  C   UNL     1      -7.552  12.131  22.410  0.00  0.00    +0.000 C 
BRANCH  18  20
ATOM     19  C   UNL     1      -7.779  13.819  24.248  0.00  0.00    +0.000 C 
ATOM     20  C   UNL     1      -7.310  12.652  23.788  0.00  0.00    +0.000 C 
ENDBRANCH  18  20
ENDBRANCH  12  18
ENDBRANCH   1  15
BRANCH   2  21
ATOM     21  O   UNL     1      -6.412  12.156  17.093  0.00  0.00    +0.000 OA
ATOM     22  H   UNL     1      -6.439  12.175  16.117  0.00  0.00    +0.000 HD
ENDBRANCH   2  21
BRANCH   9  23
ATOM     23  O   UNL     1      -0.544  11.803  21.288  0.00  0.00    +0.000 OA
ATOM     24  C   UNL     1      -0.943  11.122  22.467  0.00  0.00    +0.000 C 
ENDBRANCH   9  23
BRANCH   8  25
ATOM     25  O   UNL     1       0.802  10.236  19.238  0.00  0.00    +0.000 OA
BRANCH  25  26
ATOM     26  C   UNL     1       1.628  10.035  18.092  0.00  0.00    +0.000 C 
ATOM     27  C   UNL     1       1.918   8.549  17.986  0.00  0.00    +0.000 C 
ENDBRANCH  25  26
ENDBRANCH   8  25
TORSDOF 7
ENDMDL
