MODEL 1
REMARK VINA RESULT:      -7.8      0.000      0.000
REMARK  Name = 
REMARK  10 active torsions:
REMARK  status: ('A' for Active; 'I' for Inactive)
REMARK    1  A    between atoms: C_1  and  C_2
REMARK    2  A    between atoms: C_2  and  C_3
REMARK    3  A    between atoms: C_3  and  C_4
REMARK    4  A    between atoms: C_4  and  C_22
REMARK    5  A    between atoms: N_5  and  N_6
REMARK    6  A    between atoms: N_9  and  N_10
REMARK    7  A    between atoms: C_11  and  C_12
REMARK    8  A    between atoms: C_11  and  C_15
REMARK    9  A    between atoms: C_12  and  C_13
REMARK   10  A    between atoms: C_13  and  C_14
REMARK                            x       y       z     vdW  Elec       q    Type
REMARK                         _______ _______ _______ _____ _____    ______ ____
ROOT
ATOM      1  N   UNL     1       2.576   6.294  20.607  0.00  0.00    +0.000 N 
ATOM      2  C   UNL     1       2.417   4.933  20.595  0.00  0.00    +0.000 C 
ATOM      3  N   UNL     1       1.375   4.262  20.959  0.00  0.00    +0.000 NA
ATOM      4  N   UNL     1       3.465   4.198  20.104  0.00  0.00    +0.000 N 
ATOM      5  H   UNL     1       3.313   6.543  19.937  0.00  0.00    +0.000 HD
ATOM      6  H   UNL     1       0.683   4.980  21.147  0.00  0.00    +0.000 HD
ATOM      7  H   UNL     1       3.232   3.216  20.224  0.00  0.00    +0.000 HD
ENDROOT
BRANCH   1   9
ATOM      8  C   UNL     1       1.446   8.413  20.358  0.00  0.00    +0.000 C 
ATOM      9  N   UNL     1       1.836   7.368  21.037  0.00  0.00    +0.000 NA
BRANCH   8  10
ATOM     10  C   UNL     1       0.535   9.387  21.086  0.00  0.00    +0.000 A 
ATOM     11  C   UNL     1       0.222   9.212  22.446  0.00  0.00    +0.000 A 
ATOM     12  C   UNL     1      -0.691  10.052  23.084  0.00  0.00    +0.000 A 
ATOM     13  C   UNL     1      -1.268  11.105  22.381  0.00  0.00    +0.000 A 
ATOM     14 CL   UNL     1      -2.409  12.127  23.167  0.00  0.00    +0.000 Cl
ATOM     15  C   UNL     1      -0.925  11.331  21.051  0.00  0.00    +0.000 A 
ATOM     16  C   UNL     1      -0.027  10.474  20.397  0.00  0.00    +0.000 A 
ENDBRANCH   8  10
BRANCH   8  17
ATOM     17  C   UNL     1       1.809   8.827  18.930  0.00  0.00    +0.000 C 
BRANCH  17  19
ATOM     18  C   UNL     1       3.475   7.671  17.470  0.00  0.00    +0.000 C 
ATOM     19  C   UNL     1       2.032   7.680  17.959  0.00  0.00    +0.000 C 
ENDBRANCH  17  19
ENDBRANCH   8  17
ENDBRANCH   1   9
BRANCH   4  20
ATOM     20  N   UNL     1       4.238   4.561  19.044  0.00  0.00    +0.000 NA
ATOM     21  C   UNL     1       4.292   3.771  18.004  0.00  0.00    +0.000 C 
BRANCH  21  22
ATOM     22  C   UNL     1       5.207   4.211  16.885  0.00  0.00    +0.000 A 
ATOM     23  C   UNL     1       4.752   4.028  15.568  0.00  0.00    +0.000 A 
ATOM     24  C   UNL     1       5.567   4.347  14.482  0.00  0.00    +0.000 A 
ATOM     25  C   UNL     1       6.842   4.855  14.705  0.00  0.00    +0.000 A 
ATOM     26 CL   UNL     1       7.856   5.233  13.367  0.00  0.00    +0.000 Cl
ATOM     27  C   UNL     1       7.306   5.047  16.006  0.00  0.00    +0.000 A 
ATOM     28  C   UNL     1       6.489   4.723  17.097  0.00  0.00    +0.000 A 
ENDBRANCH  21  22
BRANCH  21  29
ATOM     29  C   UNL     1       3.505   2.466  17.834  0.00  0.00    +0.000 C 
BRANCH  29  30
ATOM     30  C   UNL     1       1.987   2.651  17.831  0.00  0.00    +0.000 C 
ATOM     31  C   UNL     1       1.528   3.993  17.285  0.00  0.00    +0.000 C 
ENDBRANCH  29  30
ENDBRANCH  21  29
ENDBRANCH   4  20
TORSDOF 8
ENDMDL
MODEL 2
REMARK VINA RESULT:      -7.7      0.765      1.344
REMARK  Name = 
REMARK  10 active torsions:
REMARK  status: ('A' for Active; 'I' for Inactive)
REMARK    1  A    between atoms: C_1  and  C_2
REMARK    2  A    between atoms: C_2  and  C_3
REMARK    3  A    between atoms: C_3  and  C_4
REMARK    4  A    between atoms: C_4  and  C_22
REMARK    5  A    between atoms: N_5  and  N_6
REMARK    6  A    between atoms: N_9  and  N_10
REMARK    7  A    between atoms: C_11  and  C_12
REMARK    8  A    between atoms: C_11  and  C_15
REMARK    9  A    between atoms: C_12  and  C_13
REMARK   10  A    between atoms: C_13  and  C_14
REMARK                            x       y       z     vdW  Elec       q    Type
REMARK                         _______ _______ _______ _____ _____    ______ ____
ROOT
ATOM      1  N   UNL     1       2.432   6.717  20.497  0.00  0.00    +0.000 N 
ATOM      2  C   UNL     1       2.117   5.385  20.441  0.00  0.00    +0.000 C 
ATOM      3  N   UNL     1       0.981   4.834  20.714  0.00  0.00    +0.000 NA
ATOM      4  N   UNL     1       3.105   4.539  20.006  0.00  0.00    +0.000 N 
ATOM      5  H   UNL     1       3.239   6.889  19.887  0.00  0.00    +0.000 HD
ATOM      6  H   UNL     1       0.365   5.625  20.871  0.00  0.00    +0.000 HD
ATOM      7  H   UNL     1       2.752   3.590  20.084  0.00  0.00    +0.000 HD
ENDROOT
BRANCH   1   9
ATOM      8  C   UNL     1       1.144   8.734  20.175  0.00  0.00    +0.000 C 
ATOM      9  N   UNL     1       1.792   7.863  20.902  0.00  0.00    +0.000 NA
BRANCH   8  10
ATOM     10  C   UNL     1       0.441   9.849  20.930  0.00  0.00    +0.000 A 
ATOM     11  C   UNL     1       0.469  11.176  20.460  0.00  0.00    +0.000 A 
ATOM     12  C   UNL     1      -0.095  12.211  21.207  0.00  0.00    +0.000 A 
ATOM     13  C   UNL     1      -0.732  11.926  22.411  0.00  0.00    +0.000 A 
ATOM     14 CL   UNL     1      -1.408  13.209  23.338  0.00  0.00    +0.000 Cl
ATOM     15  C   UNL     1      -0.822  10.612  22.862  0.00  0.00    +0.000 A 
ATOM     16  C   UNL     1      -0.235   9.570  22.128  0.00  0.00    +0.000 A 
ENDBRANCH   8  10
BRANCH   8  17
ATOM     17  C   UNL     1       1.021   8.819  18.652  0.00  0.00    +0.000 C 
BRANCH  17  19
ATOM     18  C   UNL     1       3.112   8.057  17.518  0.00  0.00    +0.000 C 
ATOM     19  C   UNL     1       2.277   9.265  17.924  0.00  0.00    +0.000 C 
ENDBRANCH  17  19
ENDBRANCH   8  17
ENDBRANCH   1   9
BRANCH   4  20
ATOM     20  N   UNL     1       3.990   4.827  19.011  0.00  0.00    +0.000 NA
ATOM     21  C   UNL     1       3.741   4.396  17.802  0.00  0.00    +0.000 C 
BRANCH  21  22
ATOM     22  C   UNL     1       4.787   4.709  16.759  0.00  0.00    +0.000 A 
ATOM     23  C   UNL     1       4.680   4.055  15.520  0.00  0.00    +0.000 A 
ATOM     24  C   UNL     1       5.645   4.241  14.531  0.00  0.00    +0.000 A 
ATOM     25  C   UNL     1       6.725   5.084  14.772  0.00  0.00    +0.000 A 
ATOM     26 CL   UNL     1       7.926   5.301  13.560  0.00  0.00    +0.000 Cl
ATOM     27  C   UNL     1       6.843   5.742  15.996  0.00  0.00    +0.000 A 
ATOM     28  C   UNL     1       5.875   5.554  16.991  0.00  0.00    +0.000 A 
ENDBRANCH  21  22
BRANCH  21  29
ATOM     29  C   UNL     1       2.488   3.624  17.372  0.00  0.00    +0.000 C 
BRANCH  29  30
ATOM     30  C   UNL     1       2.344   2.254  18.036  0.00  0.00    +0.000 C 
ATOM     31  C   UNL     1       3.645   1.475  18.137  0.00  0.00    +0.000 C 
ENDBRANCH  29  30
ENDBRANCH  21  29
ENDBRANCH   4  20
TORSDOF 8
ENDMDL
MODEL 3
REMARK VINA RESULT:      -7.7      2.759      4.195
REMARK  Name = 
REMARK  10 active torsions:
REMARK  status: ('A' for Active; 'I' for Inactive)
REMARK    1  A    between atoms: C_1  and  C_2
REMARK    2  A    between atoms: C_2  and  C_3
REMARK    3  A    between atoms: C_3  and  C_4
REMARK    4  A    between atoms: C_4  and  C_22
REMARK    5  A    between atoms: N_5  and  N_6
REMARK    6  A    between atoms: N_9  and  N_10
REMARK    7  A    between atoms: C_11  and  C_12
REMARK    8  A    between atoms: C_11  and  C_15
REMARK    9  A    between atoms: C_12  and  C_13
REMARK   10  A    between atoms: C_13  and  C_14
REMARK                            x       y       z     vdW  Elec       q    Type
REMARK                         _______ _______ _______ _____ _____    ______ ____
ROOT
ATOM      1  N   UNL     1       1.158   9.709  20.391  0.00  0.00    +0.000 N 
ATOM      2  C   UNL     1       0.729   8.603  21.077  0.00  0.00    +0.000 C 
ATOM      3  N   UNL     1      -0.385   8.459  21.715  0.00  0.00    +0.000 NA
ATOM      4  N   UNL     1       1.553   7.508  21.052  0.00  0.00    +0.000 N 
ATOM      5  H   UNL     1       1.859   9.414  19.701  0.00  0.00    +0.000 HD
ATOM      6  H   UNL     1      -0.896   9.307  21.496  0.00  0.00    +0.000 HD
ATOM      7  H   UNL     1       1.141   6.801  21.654  0.00  0.00    +0.000 HD
ENDROOT
BRANCH   1   9
ATOM      8  C   UNL     1      -0.409  11.373  19.616  0.00  0.00    +0.000 C 
ATOM      9  N   UNL     1       0.695  10.987  20.196  0.00  0.00    +0.000 NA
BRANCH   8  10
ATOM     10  C   UNL     1      -0.702  12.864  19.653  0.00  0.00    +0.000 A 
ATOM     11  C   UNL     1       0.009  13.766  18.840  0.00  0.00    +0.000 A 
ATOM     12  C   UNL     1      -0.196  15.142  18.948  0.00  0.00    +0.000 A 
ATOM     13  C   UNL     1      -1.146  15.630  19.839  0.00  0.00    +0.000 A 
ATOM     14 CL   UNL     1      -1.381  17.329  19.984  0.00  0.00    +0.000 Cl
ATOM     15  C   UNL     1      -1.902  14.750  20.609  0.00  0.00    +0.000 A 
ATOM     16  C   UNL     1      -1.683  13.367  20.523  0.00  0.00    +0.000 A 
ENDBRANCH   8  10
BRANCH   8  17
ATOM     17  C   UNL     1      -1.446  10.539  18.861  0.00  0.00    +0.000 C 
BRANCH  17  19
ATOM     18  C   UNL     1      -2.443  10.006  16.633  0.00  0.00    +0.000 C 
ATOM     19  C   UNL     1      -1.891  11.111  17.526  0.00  0.00    +0.000 C 
ENDBRANCH  17  19
ENDBRANCH   8  17
ENDBRANCH   1   9
BRANCH   4  20
ATOM     20  N   UNL     1       2.273   7.103  19.969  0.00  0.00    +0.000 NA
ATOM     21  C   UNL     1       2.253   5.840  19.634  0.00  0.00    +0.000 C 
BRANCH  21  22
ATOM     22  C   UNL     1       3.112   5.453  18.454  0.00  0.00    +0.000 A 
ATOM     23  C   UNL     1       3.087   4.108  18.050  0.00  0.00    +0.000 A 
ATOM     24  C   UNL     1       3.904   3.661  17.011  0.00  0.00    +0.000 A 
ATOM     25  C   UNL     1       4.751   4.557  16.368  0.00  0.00    +0.000 A 
ATOM     26 CL   UNL     1       5.772   4.005  15.098  0.00  0.00    +0.000 Cl
ATOM     27  C   UNL     1       4.784   5.896  16.755  0.00  0.00    +0.000 A 
ATOM     28  C   UNL     1       3.966   6.345  17.800  0.00  0.00    +0.000 A 
ENDBRANCH  21  22
BRANCH  21  29
ATOM     29  C   UNL     1       1.431   4.747  20.328  0.00  0.00    +0.000 C 
BRANCH  29  30
ATOM     30  C   UNL     1       2.189   4.005  21.430  0.00  0.00    +0.000 C 
ATOM     31  C   UNL     1       1.750   2.562  21.618  0.00  0.00    +0.000 C 
ENDBRANCH  29  30
ENDBRANCH  21  29
ENDBRANCH   4  20
TORSDOF 8
ENDMDL
MODEL 4
REMARK VINA RESULT:      -7.6      2.772      4.188
REMARK  Name = 
REMARK  10 active torsions:
REMARK  status: ('A' for Active; 'I' for Inactive)
REMARK    1  A    between atoms: C_1  and  C_2
REMARK    2  A    between atoms: C_2  and  C_3
REMARK    3  A    between atoms: C_3  and  C_4
REMARK    4  A    between atoms: C_4  and  C_22
REMARK    5  A    between atoms: N_5  and  N_6
REMARK    6  A    between atoms: N_9  and  N_10
REMARK    7  A    between atoms: C_11  and  C_12
REMARK    8  A    between atoms: C_11  and  C_15
REMARK    9  A    between atoms: C_12  and  C_13
REMARK   10  A    between atoms: C_13  and  C_14
REMARK                            x       y       z     vdW  Elec       q    Type
REMARK                         _______ _______ _______ _____ _____    ______ ____
ROOT
ATOM      1  N   UNL     1       1.254   9.740  20.422  0.00  0.00    +0.000 N 
ATOM      2  C   UNL     1       0.775   8.635  21.076  0.00  0.00    +0.000 C 
ATOM      3  N   UNL     1      -0.363   8.508  21.675  0.00  0.00    +0.000 NA
ATOM      4  N   UNL     1       1.573   7.520  21.061  0.00  0.00    +0.000 N 
ATOM      5  H   UNL     1       1.970   9.439  19.752  0.00  0.00    +0.000 HD
ATOM      6  H   UNL     1      -0.846   9.372  21.452  0.00  0.00    +0.000 HD
ATOM      7  H   UNL     1       1.125   6.815  21.638  0.00  0.00    +0.000 HD
ENDROOT
BRANCH   1   9
ATOM      8  C   UNL     1      -0.299  11.451  19.723  0.00  0.00    +0.000 C 
ATOM      9  N   UNL     1       0.828  11.032  20.232  0.00  0.00    +0.000 NA
BRANCH   8  10
ATOM     10  C   UNL     1      -0.530  12.953  19.748  0.00  0.00    +0.000 A 
ATOM     11  C   UNL     1      -1.471  13.530  20.621  0.00  0.00    +0.000 A 
ATOM     12  C   UNL     1      -1.749  14.896  20.571  0.00  0.00    +0.000 A 
ATOM     13  C   UNL     1      -1.058  15.710  19.678  0.00  0.00    +0.000 A 
ATOM     14 CL   UNL     1      -1.420  17.391  19.607  0.00  0.00    +0.000 Cl
ATOM     15  C   UNL     1      -0.082  15.167  18.848  0.00  0.00    +0.000 A 
ATOM     16  C   UNL     1       0.185  13.790  18.876  0.00  0.00    +0.000 A 
ENDBRANCH   8  10
BRANCH   8  17
ATOM     17  C   UNL     1      -1.418  10.645  19.061  0.00  0.00    +0.000 C 
BRANCH  17  19
ATOM     18  C   UNL     1      -2.598   9.909  16.986  0.00  0.00    +0.000 C 
ATOM     19  C   UNL     1      -1.629  10.922  17.582  0.00  0.00    +0.000 C 
ENDBRANCH  17  19
ENDBRANCH   8  17
ENDBRANCH   1   9
BRANCH   4  20
ATOM     20  N   UNL     1       2.320   7.115  19.997  0.00  0.00    +0.000 NA
ATOM     21  C   UNL     1       2.297   5.854  19.654  0.00  0.00    +0.000 C 
BRANCH  21  22
ATOM     22  C   UNL     1       3.186   5.465  18.497  0.00  0.00    +0.000 A 
ATOM     23  C   UNL     1       3.932   6.485  17.884  0.00  0.00    +0.000 A 
ATOM     24  C   UNL     1       4.724   6.217  16.768  0.00  0.00    +0.000 A 
ATOM     25  C   UNL     1       4.778   4.924  16.257  0.00  0.00    +0.000 A 
ATOM     26 CL   UNL     1       5.740   4.594  14.870  0.00  0.00    +0.000 Cl
ATOM     27  C   UNL     1       4.046   3.900  16.857  0.00  0.00    +0.000 A 
ATOM     28  C   UNL     1       3.248   4.170  17.977  0.00  0.00    +0.000 A 
ENDBRANCH  21  22
BRANCH  21  29
ATOM     29  C   UNL     1       1.446   4.765  20.319  0.00  0.00    +0.000 C 
BRANCH  29  30
ATOM     30  C   UNL     1       2.175   3.990  21.417  0.00  0.00    +0.000 C 
ATOM     31  C   UNL     1       1.664   2.573  21.618  0.00  0.00    +0.000 C 
ENDBRANCH  29  30
ENDBRANCH  21  29
ENDBRANCH   4  20
TORSDOF 8
ENDMDL
MODEL 5
REMARK VINA RESULT:      -7.6      4.175      5.784
REMARK  Name = 
REMARK  10 active torsions:
REMARK  status: ('A' for Active; 'I' for Inactive)
REMARK    1  A    between atoms: C_1  and  C_2
REMARK    2  A    between atoms: C_2  and  C_3
REMARK    3  A    between atoms: C_3  and  C_4
REMARK    4  A    between atoms: C_4  and  C_22
REMARK    5  A    between atoms: N_5  and  N_6
REMARK    6  A    between atoms: N_9  and  N_10
REMARK    7  A    between atoms: C_11  and  C_12
REMARK    8  A    between atoms: C_11  and  C_15
REMARK    9  A    between atoms: C_12  and  C_13
REMARK   10  A    between atoms: C_13  and  C_14
REMARK                            x       y       z     vdW  Elec       q    Type
REMARK                         _______ _______ _______ _____ _____    ______ ____
ROOT
ATOM      1  N   UNL     1      -0.139  10.234  18.232  0.00  0.00    +0.000 N 
ATOM      2  C   UNL     1       1.192  10.525  18.082  0.00  0.00    +0.000 C 
ATOM      3  N   UNL     1       1.764  11.675  18.221  0.00  0.00    +0.000 NA
ATOM      4  N   UNL     1       2.021   9.473  17.791  0.00  0.00    +0.000 N 
ATOM      5  H   UNL     1      -0.234   9.232  18.433  0.00  0.00    +0.000 HD
ATOM      6  H   UNL     1       1.019  12.271  18.567  0.00  0.00    +0.000 HD
ATOM      7  H   UNL     1       2.952   9.849  17.641  0.00  0.00    +0.000 HD
ENDROOT
BRANCH   1   9
ATOM      8  C   UNL     1      -2.486  10.750  18.002  0.00  0.00    +0.000 C 
ATOM      9  N   UNL     1      -1.283  10.955  18.469  0.00  0.00    +0.000 NA
BRANCH   8  10
ATOM     10  C   UNL     1      -3.580  11.659  18.539  0.00  0.00    +0.000 A 
ATOM     11  C   UNL     1      -3.394  12.401  19.720  0.00  0.00    +0.000 A 
ATOM     12  C   UNL     1      -4.435  13.158  20.260  0.00  0.00    +0.000 A 
ATOM     13  C   UNL     1      -5.659  13.216  19.602  0.00  0.00    +0.000 A 
ATOM     14 CL   UNL     1      -6.946  14.135  20.284  0.00  0.00    +0.000 Cl
ATOM     15  C   UNL     1      -5.842  12.537  18.401  0.00  0.00    +0.000 A 
ATOM     16  C   UNL     1      -4.808  11.754  17.866  0.00  0.00    +0.000 A 
ENDBRANCH   8  10
BRANCH   8  17
ATOM     17  C   UNL     1      -2.955   9.741  16.952  0.00  0.00    +0.000 C 
BRANCH  17  19
ATOM     18  C   UNL     1      -3.744  10.162  14.619  0.00  0.00    +0.000 C 
ATOM     19  C   UNL     1      -2.526  10.043  15.526  0.00  0.00    +0.000 C 
ENDBRANCH  17  19
ENDBRANCH   8  17
ENDBRANCH   1   9
BRANCH   4  20
ATOM     20  N   UNL     1       1.899   8.221  18.315  0.00  0.00    +0.000 NA
ATOM     21  C   UNL     1       2.816   7.332  18.041  0.00  0.00    +0.000 C 
BRANCH  21  22
ATOM     22  C   UNL     1       2.593   5.952  18.614  0.00  0.00    +0.000 A 
ATOM     23  C   UNL     1       1.963   5.004  17.791  0.00  0.00    +0.000 A 
ATOM     24  C   UNL     1       1.663   3.730  18.272  0.00  0.00    +0.000 A 
ATOM     25  C   UNL     1       1.993   3.393  19.580  0.00  0.00    +0.000 A 
ATOM     26 CL   UNL     1       1.608   1.828  20.182  0.00  0.00    +0.000 Cl
ATOM     27  C   UNL     1       2.622   4.322  20.408  0.00  0.00    +0.000 A 
ATOM     28  C   UNL     1       2.922   5.603  19.926  0.00  0.00    +0.000 A 
ENDBRANCH  21  22
BRANCH  21  29
ATOM     29  C   UNL     1       4.079   7.581  17.207  0.00  0.00    +0.000 C 
BRANCH  29  30
ATOM     30  C   UNL     1       5.075   6.420  17.226  0.00  0.00    +0.000 C 
ATOM     31  C   UNL     1       5.257   5.739  15.880  0.00  0.00    +0.000 C 
ENDBRANCH  29  30
ENDBRANCH  21  29
ENDBRANCH   4  20
TORSDOF 8
ENDMDL
MODEL 6
REMARK VINA RESULT:      -7.4      4.400      6.140
REMARK  Name = 
REMARK  10 active torsions:
REMARK  status: ('A' for Active; 'I' for Inactive)
REMARK    1  A    between atoms: C_1  and  C_2
REMARK    2  A    between atoms: C_2  and  C_3
REMARK    3  A    between atoms: C_3  and  C_4
REMARK    4  A    between atoms: C_4  and  C_22
REMARK    5  A    between atoms: N_5  and  N_6
REMARK    6  A    between atoms: N_9  and  N_10
REMARK    7  A    between atoms: C_11  and  C_12
REMARK    8  A    between atoms: C_11  and  C_15
REMARK    9  A    between atoms: C_12  and  C_13
REMARK   10  A    between atoms: C_13  and  C_14
REMARK                            x       y       z     vdW  Elec       q    Type
REMARK                         _______ _______ _______ _____ _____    ______ ____
ROOT
ATOM      1  N   UNL     1      -0.515  10.238  18.485  0.00  0.00    +0.000 N 
ATOM      2  C   UNL     1       0.795  10.639  18.425  0.00  0.00    +0.000 C 
ATOM      3  N   UNL     1       1.255  11.838  18.562  0.00  0.00    +0.000 NA
ATOM      4  N   UNL     1       1.729   9.653  18.240  0.00  0.00    +0.000 N 
ATOM      5  H   UNL     1      -0.541   9.239  18.718  0.00  0.00    +0.000 HD
ATOM      6  H   UNL     1       0.439  12.378  18.827  0.00  0.00    +0.000 HD
ATOM      7  H   UNL     1       2.635  10.104  18.146  0.00  0.00    +0.000 HD
ENDROOT
BRANCH   1   9
ATOM      8  C   UNL     1      -2.799  10.718  17.868  0.00  0.00    +0.000 C 
ATOM      9  N   UNL     1      -1.731  10.865  18.606  0.00  0.00    +0.000 NA
BRANCH   8  10
ATOM     10  C   UNL     1      -4.038  11.472  18.322  0.00  0.00    +0.000 A 
ATOM     11  C   UNL     1      -3.997  12.339  19.430  0.00  0.00    +0.000 A 
ATOM     12  C   UNL     1      -5.158  12.953  19.901  0.00  0.00    +0.000 A 
ATOM     13  C   UNL     1      -6.366  12.742  19.244  0.00  0.00    +0.000 A 
ATOM     14 CL   UNL     1      -7.799  13.485  19.841  0.00  0.00    +0.000 Cl
ATOM     15  C   UNL     1      -6.415  11.935  18.111  0.00  0.00    +0.000 A 
ATOM     16  C   UNL     1      -5.256  11.295  17.646  0.00  0.00    +0.000 A 
ENDBRANCH   8  10
BRANCH   8  17
ATOM     17  C   UNL     1      -2.977   9.919  16.576  0.00  0.00    +0.000 C 
BRANCH  17  19
ATOM     18  C   UNL     1      -3.416   9.978  14.117  0.00  0.00    +0.000 C 
ATOM     19  C   UNL     1      -2.780  10.709  15.293  0.00  0.00    +0.000 C 
ENDBRANCH  17  19
ENDBRANCH   8  17
ENDBRANCH   1   9
BRANCH   4  20
ATOM     20  N   UNL     1       1.672   8.414  18.802  0.00  0.00    +0.000 NA
ATOM     21  C   UNL     1       2.390   7.453  18.283  0.00  0.00    +0.000 C 
BRANCH  21  22
ATOM     22  C   UNL     1       2.241   6.094  18.925  0.00  0.00    +0.000 A 
ATOM     23  C   UNL     1       2.245   6.038  20.329  0.00  0.00    +0.000 A 
ATOM     24  C   UNL     1       2.179   4.814  20.994  0.00  0.00    +0.000 A 
ATOM     25  C   UNL     1       2.105   3.636  20.259  0.00  0.00    +0.000 A 
ATOM     26 CL   UNL     1       2.041   2.123  21.077  0.00  0.00    +0.000 Cl
ATOM     27  C   UNL     1       2.096   3.675  18.866  0.00  0.00    +0.000 A 
ATOM     28  C   UNL     1       2.165   4.904  18.197  0.00  0.00    +0.000 A 
ENDBRANCH  21  22
BRANCH  21  29
ATOM     29  C   UNL     1       3.359   7.601  17.104  0.00  0.00    +0.000 C 
BRANCH  29  30
ATOM     30  C   UNL     1       4.700   6.894  17.308  0.00  0.00    +0.000 C 
ATOM     31  C   UNL     1       5.231   6.204  16.062  0.00  0.00    +0.000 C 
ENDBRANCH  29  30
ENDBRANCH  21  29
ENDBRANCH   4  20
TORSDOF 8
ENDMDL
MODEL 7
REMARK VINA RESULT:      -7.4      4.280      6.006
REMARK  Name = 
REMARK  10 active torsions:
REMARK  status: ('A' for Active; 'I' for Inactive)
REMARK    1  A    between atoms: C_1  and  C_2
REMARK    2  A    between atoms: C_2  and  C_3
REMARK    3  A    between atoms: C_3  and  C_4
REMARK    4  A    between atoms: C_4  and  C_22
REMARK    5  A    between atoms: N_5  and  N_6
REMARK    6  A    between atoms: N_9  and  N_10
REMARK    7  A    between atoms: C_11  and  C_12
REMARK    8  A    between atoms: C_11  and  C_15
REMARK    9  A    between atoms: C_12  and  C_13
REMARK   10  A    between atoms: C_13  and  C_14
REMARK                            x       y       z     vdW  Elec       q    Type
REMARK                         _______ _______ _______ _____ _____    ______ ____
ROOT
ATOM      1  N   UNL     1      -0.532  10.217  18.735  0.00  0.00    +0.000 N 
ATOM      2  C   UNL     1       0.771  10.643  18.733  0.00  0.00    +0.000 C 
ATOM      3  N   UNL     1       1.209  11.830  18.996  0.00  0.00    +0.000 NA
ATOM      4  N   UNL     1       1.725   9.696  18.463  0.00  0.00    +0.000 N 
ATOM      5  H   UNL     1      -0.543   9.199  18.866  0.00  0.00    +0.000 HD
ATOM      6  H   UNL     1       0.379  12.327  19.302  0.00  0.00    +0.000 HD
ATOM      7  H   UNL     1       2.623  10.168  18.427  0.00  0.00    +0.000 HD
ENDROOT
BRANCH   1   9
ATOM      8  C   UNL     1      -2.616  11.179  17.986  0.00  0.00    +0.000 C 
ATOM      9  N   UNL     1      -1.760  10.808  18.900  0.00  0.00    +0.000 NA
BRANCH   8  10
ATOM     10  C   UNL     1      -3.950  11.706  18.487  0.00  0.00    +0.000 A 
ATOM     11  C   UNL     1      -5.138  11.481  17.768  0.00  0.00    +0.000 A 
ATOM     12  C   UNL     1      -6.344  12.049  18.181  0.00  0.00    +0.000 A 
ATOM     13  C   UNL     1      -6.384  12.813  19.343  0.00  0.00    +0.000 A 
ATOM     14 CL   UNL     1      -7.869  13.529  19.838  0.00  0.00    +0.000 Cl
ATOM     15  C   UNL     1      -5.230  12.998  20.100  0.00  0.00    +0.000 A 
ATOM     16  C   UNL     1      -4.010  12.449  19.677  0.00  0.00    +0.000 A 
ENDBRANCH   8  10
BRANCH   8  17
ATOM     17  C   UNL     1      -2.455  11.196  16.464  0.00  0.00    +0.000 C 
BRANCH  17  19
ATOM     18  C   UNL     1      -3.331  10.056  14.421  0.00  0.00    +0.000 C 
ATOM     19  C   UNL     1      -2.660   9.858  15.775  0.00  0.00    +0.000 C 
ENDBRANCH  17  19
ENDBRANCH   8  17
ENDBRANCH   1   9
BRANCH   4  20
ATOM     20  N   UNL     1       1.682   8.406  18.897  0.00  0.00    +0.000 NA
ATOM     21  C   UNL     1       2.479   7.529  18.345  0.00  0.00    +0.000 C 
BRANCH  21  22
ATOM     22  C   UNL     1       2.344   6.108  18.840  0.00  0.00    +0.000 A 
ATOM     23  C   UNL     1       1.998   5.125  17.898  0.00  0.00    +0.000 A 
ATOM     24  C   UNL     1       1.791   3.803  18.291  0.00  0.00    +0.000 A 
ATOM     25  C   UNL     1       1.930   3.454  19.630  0.00  0.00    +0.000 A 
ATOM     26 CL   UNL     1       1.658   1.827  20.120  0.00  0.00    +0.000 Cl
ATOM     27  C   UNL     1       2.277   4.417  20.576  0.00  0.00    +0.000 A 
ATOM     28  C   UNL     1       2.483   5.746  20.182  0.00  0.00    +0.000 A 
ENDBRANCH  21  22
BRANCH  21  29
ATOM     29  C   UNL     1       3.523   7.829  17.263  0.00  0.00    +0.000 C 
BRANCH  29  30
ATOM     30  C   UNL     1       4.769   6.945  17.339  0.00  0.00    +0.000 C 
ATOM     31  C   UNL     1       5.132   6.274  16.025  0.00  0.00    +0.000 C 
ENDBRANCH  29  30
ENDBRANCH  21  29
ENDBRANCH   4  20
TORSDOF 8
ENDMDL
MODEL 8
REMARK VINA RESULT:      -7.4      2.667      4.066
REMARK  Name = 
REMARK  10 active torsions:
REMARK  status: ('A' for Active; 'I' for Inactive)
REMARK    1  A    between atoms: C_1  and  C_2
REMARK    2  A    between atoms: C_2  and  C_3
REMARK    3  A    between atoms: C_3  and  C_4
REMARK    4  A    between atoms: C_4  and  C_22
REMARK    5  A    between atoms: N_5  and  N_6
REMARK    6  A    between atoms: N_9  and  N_10
REMARK    7  A    between atoms: C_11  and  C_12
REMARK    8  A    between atoms: C_11  and  C_15
REMARK    9  A    between atoms: C_12  and  C_13
REMARK   10  A    between atoms: C_13  and  C_14
REMARK                            x       y       z     vdW  Elec       q    Type
REMARK                         _______ _______ _______ _____ _____    ______ ____
ROOT
ATOM      1  N   UNL     1       1.270   9.733  20.564  0.00  0.00    +0.000 N 
ATOM      2  C   UNL     1       0.782   8.574  21.109  0.00  0.00    +0.000 C 
ATOM      3  N   UNL     1      -0.358   8.399  21.692  0.00  0.00    +0.000 NA
ATOM      4  N   UNL     1       1.573   7.461  20.988  0.00  0.00    +0.000 N 
ATOM      5  H   UNL     1       1.985   9.493  19.869  0.00  0.00    +0.000 HD
ATOM      6  H   UNL     1      -0.834   9.284  21.552  0.00  0.00    +0.000 HD
ATOM      7  H   UNL     1       1.119   6.707  21.495  0.00  0.00    +0.000 HD
ENDROOT
BRANCH   1   9
ATOM      8  C   UNL     1       0.088  11.607  19.604  0.00  0.00    +0.000 C 
ATOM      9  N   UNL     1       0.854  11.040  20.498  0.00  0.00    +0.000 NA
BRANCH   8  10
ATOM     10  C   UNL     1      -0.291  13.056  19.864  0.00  0.00    +0.000 A 
ATOM     11  C   UNL     1      -0.267  14.011  18.831  0.00  0.00    +0.000 A 
ATOM     12  C   UNL     1      -0.522  15.357  19.095  0.00  0.00    +0.000 A 
ATOM     13  C   UNL     1      -0.845  15.757  20.387  0.00  0.00    +0.000 A 
ATOM     14 CL   UNL     1      -1.138  17.422  20.712  0.00  0.00    +0.000 Cl
ATOM     15  C   UNL     1      -0.932  14.818  21.411  0.00  0.00    +0.000 A 
ATOM     16  C   UNL     1      -0.653  13.467  21.157  0.00  0.00    +0.000 A 
ENDBRANCH   8  10
BRANCH   8  17
ATOM     17  C   UNL     1      -0.458  11.031  18.296  0.00  0.00    +0.000 C 
BRANCH  17  19
ATOM     18  C   UNL     1      -2.595  10.580  17.085  0.00  0.00    +0.000 C 
ATOM     19  C   UNL     1      -1.834  10.396  18.392  0.00  0.00    +0.000 C 
ENDBRANCH  17  19
ENDBRANCH   8  17
ENDBRANCH   1   9
BRANCH   4  20
ATOM     20  N   UNL     1       2.319   7.153  19.891  0.00  0.00    +0.000 NA
ATOM     21  C   UNL     1       2.679   5.911  19.701  0.00  0.00    +0.000 C 
BRANCH  21  22
ATOM     22  C   UNL     1       3.545   5.650  18.492  0.00  0.00    +0.000 A 
ATOM     23  C   UNL     1       3.969   6.764  17.748  0.00  0.00    +0.000 A 
ATOM     24  C   UNL     1       4.716   6.600  16.581  0.00  0.00    +0.000 A 
ATOM     25  C   UNL     1       5.046   5.319  16.151  0.00  0.00    +0.000 A 
ATOM     26 CL   UNL     1       5.951   5.112  14.703  0.00  0.00    +0.000 Cl
ATOM     27  C   UNL     1       4.635   4.204  16.881  0.00  0.00    +0.000 A 
ATOM     28  C   UNL     1       3.883   4.369  18.051  0.00  0.00    +0.000 A 
ENDBRANCH  21  22
BRANCH  21  29
ATOM     29  C   UNL     1       2.288   4.724  20.590  0.00  0.00    +0.000 C 
BRANCH  29  30
ATOM     30  C   UNL     1       0.965   4.065  20.199  0.00  0.00    +0.000 C 
ATOM     31  C   UNL     1       1.034   2.549  20.100  0.00  0.00    +0.000 C 
ENDBRANCH  29  30
ENDBRANCH  21  29
ENDBRANCH   4  20
TORSDOF 8
ENDMDL
MODEL 9
REMARK VINA RESULT:      -7.3      4.496      6.194
REMARK  Name = 
REMARK  10 active torsions:
REMARK  status: ('A' for Active; 'I' for Inactive)
REMARK    1  A    between atoms: C_1  and  C_2
REMARK    2  A    between atoms: C_2  and  C_3
REMARK    3  A    between atoms: C_3  and  C_4
REMARK    4  A    between atoms: C_4  and  C_22
REMARK    5  A    between atoms: N_5  and  N_6
REMARK    6  A    between atoms: N_9  and  N_10
REMARK    7  A    between atoms: C_11  and  C_12
REMARK    8  A    between atoms: C_11  and  C_15
REMARK    9  A    between atoms: C_12  and  C_13
REMARK   10  A    between atoms: C_13  and  C_14
REMARK                            x       y       z     vdW  Elec       q    Type
REMARK                         _______ _______ _______ _____ _____    ______ ____
ROOT
ATOM      1  N   UNL     1      -0.526  10.258  18.017  0.00  0.00    +0.000 N 
ATOM      2  C   UNL     1       0.800  10.604  18.029  0.00  0.00    +0.000 C 
ATOM      3  N   UNL     1       1.307  11.764  18.287  0.00  0.00    +0.000 NA
ATOM      4  N   UNL     1       1.698   9.598  17.781  0.00  0.00    +0.000 N 
ATOM      5  H   UNL     1      -0.601   9.245  18.157  0.00  0.00    +0.000 HD
ATOM      6  H   UNL     1       0.506  12.314  18.577  0.00  0.00    +0.000 HD
ATOM      7  H   UNL     1       2.624  10.014  17.753  0.00  0.00    +0.000 HD
ENDROOT
BRANCH   1   9
ATOM      8  C   UNL     1      -2.846  10.719  17.537  0.00  0.00    +0.000 C 
ATOM      9  N   UNL     1      -1.717  10.925  18.160  0.00  0.00    +0.000 NA
BRANCH   8  10
ATOM     10  C   UNL     1      -4.031  11.553  17.997  0.00  0.00    +0.000 A 
ATOM     11  C   UNL     1      -5.116  11.811  17.139  0.00  0.00    +0.000 A 
ATOM     12  C   UNL     1      -6.154  12.657  17.532  0.00  0.00    +0.000 A 
ATOM     13  C   UNL     1      -6.141  13.219  18.805  0.00  0.00    +0.000 A 
ATOM     14 CL   UNL     1      -7.413  14.278  19.278  0.00  0.00    +0.000 Cl
ATOM     15  C   UNL     1      -5.106  12.928  19.689  0.00  0.00    +0.000 A 
ATOM     16  C   UNL     1      -4.047  12.099  19.290  0.00  0.00    +0.000 A 
ENDBRANCH   8  10
BRANCH   8  17
ATOM     17  C   UNL     1      -3.146   9.777  16.369  0.00  0.00    +0.000 C 
BRANCH  17  19
ATOM     18  C   UNL     1      -3.841  10.007  13.981  0.00  0.00    +0.000 C 
ATOM     19  C   UNL     1      -2.744  10.295  14.999  0.00  0.00    +0.000 C 
ENDBRANCH  17  19
ENDBRANCH   8  17
ENDBRANCH   1   9
BRANCH   4  20
ATOM     20  N   UNL     1       1.571   8.317  18.226  0.00  0.00    +0.000 NA
ATOM     21  C   UNL     1       2.568   7.489  18.056  0.00  0.00    +0.000 C 
BRANCH  21  22
ATOM     22  C   UNL     1       2.341   6.073  18.530  0.00  0.00    +0.000 A 
ATOM     23  C   UNL     1       2.782   5.745  19.822  0.00  0.00    +0.000 A 
ATOM     24  C   UNL     1       2.668   4.441  20.305  0.00  0.00    +0.000 A 
ATOM     25  C   UNL     1       2.109   3.456  19.498  0.00  0.00    +0.000 A 
ATOM     26 CL   UNL     1       1.983   1.843  20.084  0.00  0.00    +0.000 Cl
ATOM     27  C   UNL     1       1.663   3.767  18.214  0.00  0.00    +0.000 A 
ATOM     28  C   UNL     1       1.780   5.076  17.728  0.00  0.00    +0.000 A 
ENDBRANCH  21  22
BRANCH  21  29
ATOM     29  C   UNL     1       3.925   7.843  17.436  0.00  0.00    +0.000 C 
BRANCH  29  30
ATOM     30  C   UNL     1       4.646   6.655  16.798  0.00  0.00    +0.000 C 
ATOM     31  C   UNL     1       6.025   6.384  17.377  0.00  0.00    +0.000 C 
ENDBRANCH  29  30
ENDBRANCH  21  29
ENDBRANCH   4  20
TORSDOF 8
ENDMDL
