MODEL 1
REMARK VINA RESULT:      -7.4      0.000      0.000
REMARK  Name = 
REMARK  11 active torsions:
REMARK  status: ('A' for Active; 'I' for Inactive)
REMARK    1  A    between atoms: C_2  and  C_3
REMARK    2  A    between atoms: C_3  and  C_4
REMARK    3  A    between atoms: C_3  and  C_13
REMARK    4  A    between atoms: C_7  and  O_8
REMARK    5  A    between atoms: C_9  and  O_10
REMARK    6  A    between atoms: O_10  and  C_11
REMARK    7  A    between atoms: C_14  and  O_15
REMARK    8  A    between atoms: C_17  and  O_18
REMARK    9  A    between atoms: C_23  and  C_24
REMARK   10  A    between atoms: C_27  and  O_28
REMARK   11  A    between atoms: O_28  and  C_29
REMARK                            x       y       z     vdW  Elec       q    Type
REMARK                         _______ _______ _______ _____ _____    ______ ____
ROOT
ATOM      1  C   UNL     1      -1.311  13.106  20.078  0.00  0.00    +0.000 A 
ATOM      2  C   UNL     1      -1.431  14.521  20.064  0.00  0.00    +0.000 A 
ATOM      3  C   UNL     1      -0.405  15.355  19.631  0.00  0.00    +0.000 A 
ATOM      4  C   UNL     1       0.751  14.802  19.114  0.00  0.00    +0.000 A 
ATOM      5  C   UNL     1       0.902  13.414  19.051  0.00  0.00    +0.000 A 
ATOM      6  C   UNL     1       2.083  12.840  18.376  0.00  0.00    +0.000 A 
ATOM      7  O   UNL     1       3.044  13.476  17.953  0.00  0.00    +0.000 OA
ATOM      8  C   UNL     1       2.105  11.394  18.228  0.00  0.00    +0.000 A 
ATOM      9  C   UNL     1       1.229  10.657  18.912  0.00  0.00    +0.000 A 
ATOM     10  O   UNL     1       0.116  11.165  19.594  0.00  0.00    +0.000 OA
ATOM     11  C   UNL     1      -0.092  12.550  19.572  0.00  0.00    +0.000 A 
ENDROOT
BRANCH   9  12
ATOM     12  C   UNL     1       1.556   9.213  18.983  0.00  0.00    +0.000 A 
ATOM     13  C   UNL     1       1.354   8.518  20.199  0.00  0.00    +0.000 A 
ATOM     14  C   UNL     1       1.864   7.228  20.411  0.00  0.00    +0.000 A 
ATOM     15  C   UNL     1       2.599   6.597  19.417  0.00  0.00    +0.000 A 
ATOM     16  C   UNL     1       2.782   7.265  18.192  0.00  0.00    +0.000 A 
ATOM     17  C   UNL     1       2.271   8.557  17.979  0.00  0.00    +0.000 A 
BRANCH  15  18
ATOM     18  O   UNL     1       3.203   5.373  19.499  0.00  0.00    +0.000 OA
ATOM     19  C   UNL     1       4.577   5.282  19.130  0.00  0.00    +0.000 C 
ENDBRANCH  15  18
ENDBRANCH   9  12
BRANCH   2  20
ATOM     20  O   UNL     1      -2.548  15.210  20.456  0.00  0.00    +0.000 OA
ATOM     21  H   UNL     1      -2.711  15.065  21.402  0.00  0.00    +0.000 HD
ENDBRANCH   2  20
BRANCH   4  22
ATOM     22  O   UNL     1       1.716  15.648  18.646  0.00  0.00    +0.000 OA
ATOM     23  H   UNL     1       2.201  15.238  17.915  0.00  0.00    +0.000 HD
ENDBRANCH   4  22
BRANCH   1  24
ATOM     24  C   UNL     1      -2.507  12.245  20.552  0.00  0.00    +0.000 C 
BRANCH  24  25
ATOM     25  C   UNL     1      -3.645  12.234  19.494  0.00  0.00    +0.000 A 
ATOM     26  C   UNL     1      -4.907  12.742  19.844  0.00  0.00    +0.000 A 
ATOM     27  C   UNL     1      -5.973  12.719  18.942  0.00  0.00    +0.000 A 
ATOM     28  C   UNL     1      -5.808  12.189  17.659  0.00  0.00    +0.000 A 
ATOM     29  C   UNL     1      -4.571  11.690  17.266  0.00  0.00    +0.000 A 
ATOM     30  C   UNL     1      -3.502  11.721  18.183  0.00  0.00    +0.000 A 
BRANCH  28  31
ATOM     31  O   UNL     1      -6.890  12.184  16.820  0.00  0.00    +0.000 OA
ATOM     32  H   UNL     1      -6.923  11.337  16.344  0.00  0.00    +0.000 HD
ENDBRANCH  28  31
BRANCH  29  33
ATOM     33  O   UNL     1      -4.228  11.136  16.056  0.00  0.00    +0.000 OA
ATOM     34  C   UNL     1      -2.870  10.752  15.847  0.00  0.00    +0.000 C 
ENDBRANCH  29  33
ENDBRANCH  24  25
BRANCH  24  36
ATOM     35  C   UNL     1      -2.505  12.214  23.112  0.00  0.00    +0.000 C 
ATOM     36  C   UNL     1      -2.981  12.671  21.945  0.00  0.00    +0.000 C 
ENDBRANCH  24  36
ENDBRANCH   1  24
TORSDOF 9
ENDMDL
MODEL 2
REMARK VINA RESULT:      -7.3      2.327      7.796
REMARK  Name = 
REMARK  11 active torsions:
REMARK  status: ('A' for Active; 'I' for Inactive)
REMARK    1  A    between atoms: C_2  and  C_3
REMARK    2  A    between atoms: C_3  and  C_4
REMARK    3  A    between atoms: C_3  and  C_13
REMARK    4  A    between atoms: C_7  and  O_8
REMARK    5  A    between atoms: C_9  and  O_10
REMARK    6  A    between atoms: O_10  and  C_11
REMARK    7  A    between atoms: C_14  and  O_15
REMARK    8  A    between atoms: C_17  and  O_18
REMARK    9  A    between atoms: C_23  and  C_24
REMARK   10  A    between atoms: C_27  and  O_28
REMARK   11  A    between atoms: O_28  and  C_29
REMARK                            x       y       z     vdW  Elec       q    Type
REMARK                         _______ _______ _______ _____ _____    ______ ____
ROOT
ATOM      1  C   UNL     1      -2.227  11.733  18.163  0.00  0.00    +0.000 A 
ATOM      2  C   UNL     1      -2.824  11.189  16.996  0.00  0.00    +0.000 A 
ATOM      3  C   UNL     1      -4.193  10.967  16.888  0.00  0.00    +0.000 A 
ATOM      4  C   UNL     1      -5.030  11.361  17.915  0.00  0.00    +0.000 A 
ATOM      5  C   UNL     1      -4.504  11.955  19.066  0.00  0.00    +0.000 A 
ATOM      6  C   UNL     1      -5.420  12.490  20.093  0.00  0.00    +0.000 A 
ATOM      7  O   UNL     1      -6.640  12.357  20.102  0.00  0.00    +0.000 OA
ATOM      8  C   UNL     1      -4.806  13.213  21.194  0.00  0.00    +0.000 A 
ATOM      9  C   UNL     1      -3.485  13.138  21.365  0.00  0.00    +0.000 A 
ATOM     10  O   UNL     1      -2.586  12.607  20.431  0.00  0.00    +0.000 OA
ATOM     11  C   UNL     1      -3.105  12.104  19.232  0.00  0.00    +0.000 A 
ENDROOT
BRANCH   9  12
ATOM     12  C   UNL     1      -3.006  13.594  22.692  0.00  0.00    +0.000 A 
ATOM     13  C   UNL     1      -3.941  13.767  23.741  0.00  0.00    +0.000 A 
ATOM     14  C   UNL     1      -3.604  14.421  24.936  0.00  0.00    +0.000 A 
ATOM     15  C   UNL     1      -2.326  14.930  25.115  0.00  0.00    +0.000 A 
ATOM     16  C   UNL     1      -1.378  14.738  24.092  0.00  0.00    +0.000 A 
ATOM     17  C   UNL     1      -1.715  14.082  22.895  0.00  0.00    +0.000 A 
BRANCH  15  18
ATOM     18  O   UNL     1      -1.870  15.636  26.194  0.00  0.00    +0.000 OA
ATOM     19  C   UNL     1      -0.550  16.170  26.132  0.00  0.00    +0.000 C 
ENDBRANCH  15  18
ENDBRANCH   9  12
BRANCH   2  20
ATOM     20  O   UNL     1      -2.138  10.838  15.863  0.00  0.00    +0.000 OA
ATOM     21  H   UNL     1      -2.250  11.523  15.183  0.00  0.00    +0.000 HD
ENDBRANCH   2  20
BRANCH   4  22
ATOM     22  O   UNL     1      -6.375  11.181  17.755  0.00  0.00    +0.000 OA
ATOM     23  H   UNL     1      -6.561  10.294  17.415  0.00  0.00    +0.000 HD
ENDBRANCH   4  22
BRANCH   1  24
ATOM     24  C   UNL     1      -0.699  11.973  18.196  0.00  0.00    +0.000 C 
BRANCH  24  25
ATOM     25  C   UNL     1       0.023  10.882  19.035  0.00  0.00    +0.000 A 
ATOM     26  C   UNL     1       0.725   9.863  18.371  0.00  0.00    +0.000 A 
ATOM     27  C   UNL     1       1.358   8.839  19.077  0.00  0.00    +0.000 A 
ATOM     28  C   UNL     1       1.311   8.804  20.475  0.00  0.00    +0.000 A 
ATOM     29  C   UNL     1       0.639   9.802  21.173  0.00  0.00    +0.000 A 
ATOM     30  C   UNL     1       0.008  10.832  20.448  0.00  0.00    +0.000 A 
BRANCH  28  31
ATOM     31  O   UNL     1       1.940   7.771  21.115  0.00  0.00    +0.000 OA
ATOM     32  H   UNL     1       2.247   8.072  21.987  0.00  0.00    +0.000 HD
ENDBRANCH  28  31
BRANCH  29  33
ATOM     33  O   UNL     1       0.490   9.929  22.533  0.00  0.00    +0.000 OA
ATOM     34  C   UNL     1      -0.750  10.423  23.036  0.00  0.00    +0.000 C 
ENDBRANCH  29  33
ENDBRANCH  24  25
BRANCH  24  36
ATOM     35  C   UNL     1       0.851  13.953  18.683  0.00  0.00    +0.000 C 
ATOM     36  C   UNL     1      -0.369  13.400  18.649  0.00  0.00    +0.000 C 
ENDBRANCH  24  36
ENDBRANCH   1  24
TORSDOF 9
ENDMDL
MODEL 3
REMARK VINA RESULT:      -7.1      3.141      6.591
REMARK  Name = 
REMARK  11 active torsions:
REMARK  status: ('A' for Active; 'I' for Inactive)
REMARK    1  A    between atoms: C_2  and  C_3
REMARK    2  A    between atoms: C_3  and  C_4
REMARK    3  A    between atoms: C_3  and  C_13
REMARK    4  A    between atoms: C_7  and  O_8
REMARK    5  A    between atoms: C_9  and  O_10
REMARK    6  A    between atoms: O_10  and  C_11
REMARK    7  A    between atoms: C_14  and  O_15
REMARK    8  A    between atoms: C_17  and  O_18
REMARK    9  A    between atoms: C_23  and  C_24
REMARK   10  A    between atoms: C_27  and  O_28
REMARK   11  A    between atoms: O_28  and  C_29
REMARK                            x       y       z     vdW  Elec       q    Type
REMARK                         _______ _______ _______ _____ _____    ______ ____
ROOT
ATOM      1  C   UNL     1      -1.590  13.355  22.127  0.00  0.00    +0.000 A 
ATOM      2  C   UNL     1      -1.801  14.236  23.220  0.00  0.00    +0.000 A 
ATOM      3  C   UNL     1      -2.971  14.972  23.375  0.00  0.00    +0.000 A 
ATOM      4  C   UNL     1      -4.012  14.793  22.485  0.00  0.00    +0.000 A 
ATOM      5  C   UNL     1      -3.883  13.896  21.419  0.00  0.00    +0.000 A 
ATOM      6  C   UNL     1      -5.049  13.617  20.557  0.00  0.00    +0.000 A 
ATOM      7  O   UNL     1      -6.127  14.200  20.603  0.00  0.00    +0.000 OA
ATOM      8  C   UNL     1      -4.880  12.575  19.558  0.00  0.00    +0.000 A 
ATOM      9  C   UNL     1      -3.654  12.120  19.294  0.00  0.00    +0.000 A 
ATOM     10  O   UNL     1      -2.517  12.389  20.066  0.00  0.00    +0.000 OA
ATOM     11  C   UNL     1      -2.666  13.207  21.193  0.00  0.00    +0.000 A 
ENDROOT
BRANCH   9  12
ATOM     12  C   UNL     1      -3.539  11.345  18.036  0.00  0.00    +0.000 A 
ATOM     13  C   UNL     1      -2.401  10.528  17.829  0.00  0.00    +0.000 A 
ATOM     14  C   UNL     1      -2.109   9.965  16.577  0.00  0.00    +0.000 A 
ATOM     15  C   UNL     1      -2.940  10.208  15.492  0.00  0.00    +0.000 A 
ATOM     16  C   UNL     1      -4.090  10.993  15.692  0.00  0.00    +0.000 A 
ATOM     17  C   UNL     1      -4.384  11.557  16.946  0.00  0.00    +0.000 A 
BRANCH  15  18
ATOM     18  O   UNL     1      -2.754   9.778  14.208  0.00  0.00    +0.000 OA
ATOM     19  C   UNL     1      -3.828   9.949  13.286  0.00  0.00    +0.000 C 
ENDBRANCH  15  18
ENDBRANCH   9  12
BRANCH   2  20
ATOM     20  O   UNL     1      -0.901  14.447  24.232  0.00  0.00    +0.000 OA
ATOM     21  H   UNL     1      -0.991  13.753  24.905  0.00  0.00    +0.000 HD
ENDBRANCH   2  20
BRANCH   4  22
ATOM     22  O   UNL     1      -5.168  15.489  22.696  0.00  0.00    +0.000 OA
ATOM     23  H   UNL     1      -5.024  16.436  22.557  0.00  0.00    +0.000 HD
ENDBRANCH   4  22
BRANCH   1  24
ATOM     24  C   UNL     1      -0.271  12.551  22.038  0.00  0.00    +0.000 C 
BRANCH  24  25
ATOM     25  C   UNL     1       0.559  12.969  20.793  0.00  0.00    +0.000 A 
ATOM     26  C   UNL     1       1.060  11.972  19.940  0.00  0.00    +0.000 A 
ATOM     27  C   UNL     1       1.844  12.294  18.830  0.00  0.00    +0.000 A 
ATOM     28  C   UNL     1       2.149  13.627  18.537  0.00  0.00    +0.000 A 
ATOM     29  C   UNL     1       1.661  14.647  19.347  0.00  0.00    +0.000 A 
ATOM     30  C   UNL     1       0.868  14.309  20.462  0.00  0.00    +0.000 A 
BRANCH  28  31
ATOM     31  O   UNL     1       2.929  13.883  17.442  0.00  0.00    +0.000 OA
ATOM     32  H   UNL     1       2.388  14.303  16.753  0.00  0.00    +0.000 HD
ENDBRANCH  28  31
BRANCH  29  33
ATOM     33  O   UNL     1       1.857  16.000  19.213  0.00  0.00    +0.000 OA
ATOM     34  C   UNL     1       0.904  16.885  19.801  0.00  0.00    +0.000 C 
ENDBRANCH  29  33
ENDBRANCH  24  25
BRANCH  24  36
ATOM     35  C   UNL     1      -0.907  10.361  23.203  0.00  0.00    +0.000 C 
ATOM     36  C   UNL     1      -0.533  11.043  22.111  0.00  0.00    +0.000 C 
ENDBRANCH  24  36
ENDBRANCH   1  24
TORSDOF 9
ENDMDL
MODEL 4
REMARK VINA RESULT:      -7.0      2.361      6.116
REMARK  Name = 
REMARK  11 active torsions:
REMARK  status: ('A' for Active; 'I' for Inactive)
REMARK    1  A    between atoms: C_2  and  C_3
REMARK    2  A    between atoms: C_3  and  C_4
REMARK    3  A    between atoms: C_3  and  C_13
REMARK    4  A    between atoms: C_7  and  O_8
REMARK    5  A    between atoms: C_9  and  O_10
REMARK    6  A    between atoms: O_10  and  C_11
REMARK    7  A    between atoms: C_14  and  O_15
REMARK    8  A    between atoms: C_17  and  O_18
REMARK    9  A    between atoms: C_23  and  C_24
REMARK   10  A    between atoms: C_27  and  O_28
REMARK   11  A    between atoms: O_28  and  C_29
REMARK                            x       y       z     vdW  Elec       q    Type
REMARK                         _______ _______ _______ _____ _____    ______ ____
ROOT
ATOM      1  C   UNL     1       0.747  11.621  19.212  0.00  0.00    +0.000 A 
ATOM      2  C   UNL     1       1.888  11.794  18.385  0.00  0.00    +0.000 A 
ATOM      3  C   UNL     1       2.661  12.951  18.408  0.00  0.00    +0.000 A 
ATOM      4  C   UNL     1       2.371  13.947  19.320  0.00  0.00    +0.000 A 
ATOM      5  C   UNL     1       1.293  13.807  20.198  0.00  0.00    +0.000 A 
ATOM      6  C   UNL     1       1.077  14.817  21.254  0.00  0.00    +0.000 A 
ATOM      7  O   UNL     1       1.697  15.870  21.372  0.00  0.00    +0.000 OA
ATOM      8  C   UNL     1       0.022  14.536  22.213  0.00  0.00    +0.000 A 
ATOM      9  C   UNL     1      -0.845  13.555  21.957  0.00  0.00    +0.000 A 
ATOM     10  O   UNL     1      -0.695  12.599  20.945  0.00  0.00    +0.000 OA
ATOM     11  C   UNL     1       0.439  12.678  20.128  0.00  0.00    +0.000 A 
ENDROOT
BRANCH   9  12
ATOM     12  C   UNL     1      -2.073  13.582  22.788  0.00  0.00    +0.000 A 
ATOM     13  C   UNL     1      -2.534  12.379  23.375  0.00  0.00    +0.000 A 
ATOM     14  C   UNL     1      -3.805  12.281  23.963  0.00  0.00    +0.000 A 
ATOM     15  C   UNL     1      -4.656  13.377  23.973  0.00  0.00    +0.000 A 
ATOM     16  C   UNL     1      -4.197  14.586  23.419  0.00  0.00    +0.000 A 
ATOM     17  C   UNL     1      -2.924  14.686  22.831  0.00  0.00    +0.000 A 
BRANCH  15  18
ATOM     18  O   UNL     1      -5.935  13.415  24.454  0.00  0.00    +0.000 OA
ATOM     19  C   UNL     1      -6.923  12.637  23.783  0.00  0.00    +0.000 C 
ENDBRANCH  15  18
ENDBRANCH   9  12
BRANCH   2  20
ATOM     20  O   UNL     1       2.355  10.859  17.500  0.00  0.00    +0.000 OA
ATOM     21  H   UNL     1       2.902  10.206  17.966  0.00  0.00    +0.000 HD
ENDBRANCH   2  20
BRANCH   4  22
ATOM     22  O   UNL     1       3.183  15.045  19.355  0.00  0.00    +0.000 OA
ATOM     23  H   UNL     1       3.496  15.264  18.466  0.00  0.00    +0.000 HD
ENDBRANCH   4  22
BRANCH   1  24
ATOM     24  C   UNL     1      -0.047  10.295  19.147  0.00  0.00    +0.000 C 
BRANCH  24  25
ATOM     25  C   UNL     1      -1.369  10.470  18.349  0.00  0.00    +0.000 A 
ATOM     26  C   UNL     1      -1.491   9.864  17.088  0.00  0.00    +0.000 A 
ATOM     27  C   UNL     1      -2.643  10.023  16.314  0.00  0.00    +0.000 A 
ATOM     28  C   UNL     1      -3.713  10.793  16.782  0.00  0.00    +0.000 A 
ATOM     29  C   UNL     1      -3.640  11.399  18.033  0.00  0.00    +0.000 A 
ATOM     30  C   UNL     1      -2.474  11.228  18.804  0.00  0.00    +0.000 A 
BRANCH  28  31
ATOM     31  O   UNL     1      -4.813  10.923  15.978  0.00  0.00    +0.000 OA
ATOM     32  H   UNL     1      -5.319  10.093  15.991  0.00  0.00    +0.000 HD
ENDBRANCH  28  31
BRANCH  29  33
ATOM     33  O   UNL     1      -4.585  12.184  18.648  0.00  0.00    +0.000 OA
ATOM     34  C   UNL     1      -4.352  12.595  19.994  0.00  0.00    +0.000 C 
ENDBRANCH  29  33
ENDBRANCH  24  25
BRANCH  24  36
ATOM     35  C   UNL     1       0.498   8.764  21.126  0.00  0.00    +0.000 C 
ATOM     36  C   UNL     1      -0.260   9.705  20.545  0.00  0.00    +0.000 C 
ENDBRANCH  24  36
ENDBRANCH   1  24
TORSDOF 9
ENDMDL
MODEL 5
REMARK VINA RESULT:      -6.9      2.307      7.734
REMARK  Name = 
REMARK  11 active torsions:
REMARK  status: ('A' for Active; 'I' for Inactive)
REMARK    1  A    between atoms: C_2  and  C_3
REMARK    2  A    between atoms: C_3  and  C_4
REMARK    3  A    between atoms: C_3  and  C_13
REMARK    4  A    between atoms: C_7  and  O_8
REMARK    5  A    between atoms: C_9  and  O_10
REMARK    6  A    between atoms: O_10  and  C_11
REMARK    7  A    between atoms: C_14  and  O_15
REMARK    8  A    between atoms: C_17  and  O_18
REMARK    9  A    between atoms: C_23  and  C_24
REMARK   10  A    between atoms: C_27  and  O_28
REMARK   11  A    between atoms: O_28  and  C_29
REMARK                            x       y       z     vdW  Elec       q    Type
REMARK                         _______ _______ _______ _____ _____    ______ ____
ROOT
ATOM      1  C   UNL     1      -2.305  11.718  18.181  0.00  0.00    +0.000 A 
ATOM      2  C   UNL     1      -2.879  11.169  17.004  0.00  0.00    +0.000 A 
ATOM      3  C   UNL     1      -4.249  10.981  16.857  0.00  0.00    +0.000 A 
ATOM      4  C   UNL     1      -5.108  11.414  17.850  0.00  0.00    +0.000 A 
ATOM      5  C   UNL     1      -4.602  12.013  19.008  0.00  0.00    +0.000 A 
ATOM      6  C   UNL     1      -5.535  12.589  19.997  0.00  0.00    +0.000 A 
ATOM      7  O   UNL     1      -6.758  12.487  19.969  0.00  0.00    +0.000 OA
ATOM      8  C   UNL     1      -4.937  13.315  21.105  0.00  0.00    +0.000 A 
ATOM      9  C   UNL     1      -3.625  13.208  21.319  0.00  0.00    +0.000 A 
ATOM     10  O   UNL     1      -2.711  12.639  20.423  0.00  0.00    +0.000 OA
ATOM     11  C   UNL     1      -3.206  12.129  19.216  0.00  0.00    +0.000 A 
ENDROOT
BRANCH   9  12
ATOM     12  C   UNL     1      -3.176  13.673  22.653  0.00  0.00    +0.000 A 
ATOM     13  C   UNL     1      -4.121  14.245  23.538  0.00  0.00    +0.000 A 
ATOM     14  C   UNL     1      -3.731  14.923  24.704  0.00  0.00    +0.000 A 
ATOM     15  C   UNL     1      -2.386  15.057  25.016  0.00  0.00    +0.000 A 
ATOM     16  C   UNL     1      -1.438  14.467  24.159  0.00  0.00    +0.000 A 
ATOM     17  C   UNL     1      -1.827  13.788  22.992  0.00  0.00    +0.000 A 
BRANCH  15  18
ATOM     18  O   UNL     1      -1.856  15.735  26.079  0.00  0.00    +0.000 OA
ATOM     19  C   UNL     1      -0.581  16.349  25.909  0.00  0.00    +0.000 C 
ENDBRANCH  15  18
ENDBRANCH   9  12
BRANCH   2  20
ATOM     20  O   UNL     1      -2.167  10.782  15.900  0.00  0.00    +0.000 OA
ATOM     21  H   UNL     1      -2.455  11.292  15.125  0.00  0.00    +0.000 HD
ENDBRANCH   2  20
BRANCH   4  22
ATOM     22  O   UNL     1      -6.451  11.266  17.651  0.00  0.00    +0.000 OA
ATOM     23  H   UNL     1      -6.732  10.370  17.886  0.00  0.00    +0.000 HD
ENDBRANCH   4  22
BRANCH   1  24
ATOM     24  C   UNL     1      -0.772  11.919  18.259  0.00  0.00    +0.000 C 
BRANCH  24  25
ATOM     25  C   UNL     1      -0.111  10.851  19.175  0.00  0.00    +0.000 A 
ATOM     26  C   UNL     1      -0.314  10.922  20.563  0.00  0.00    +0.000 A 
ATOM     27  C   UNL     1       0.289  10.010  21.431  0.00  0.00    +0.000 A 
ATOM     28  C   UNL     1       1.113   8.994  20.935  0.00  0.00    +0.000 A 
ATOM     29  C   UNL     1       1.328   8.878  19.566  0.00  0.00    +0.000 A 
ATOM     30  C   UNL     1       0.711   9.803  18.700  0.00  0.00    +0.000 A 
BRANCH  28  31
ATOM     31  O   UNL     1       1.686   8.134  21.833  0.00  0.00    +0.000 OA
ATOM     32  H   UNL     1       2.267   8.634  22.431  0.00  0.00    +0.000 HD
ENDBRANCH  28  31
BRANCH  29  33
ATOM     33  O   UNL     1       2.100   7.952  18.907  0.00  0.00    +0.000 OA
ATOM     34  C   UNL     1       2.674   8.318  17.653  0.00  0.00    +0.000 C 
ENDBRANCH  29  33
ENDBRANCH  24  25
BRANCH  24  36
ATOM     35  C   UNL     1       0.810  13.891  18.666  0.00  0.00    +0.000 C 
ATOM     36  C   UNL     1      -0.419  13.356  18.656  0.00  0.00    +0.000 C 
ENDBRANCH  24  36
ENDBRANCH   1  24
TORSDOF 9
ENDMDL
MODEL 6
REMARK VINA RESULT:      -6.9      2.822      7.722
REMARK  Name = 
REMARK  11 active torsions:
REMARK  status: ('A' for Active; 'I' for Inactive)
REMARK    1  A    between atoms: C_2  and  C_3
REMARK    2  A    between atoms: C_3  and  C_4
REMARK    3  A    between atoms: C_3  and  C_13
REMARK    4  A    between atoms: C_7  and  O_8
REMARK    5  A    between atoms: C_9  and  O_10
REMARK    6  A    between atoms: O_10  and  C_11
REMARK    7  A    between atoms: C_14  and  O_15
REMARK    8  A    between atoms: C_17  and  O_18
REMARK    9  A    between atoms: C_23  and  C_24
REMARK   10  A    between atoms: C_27  and  O_28
REMARK   11  A    between atoms: O_28  and  C_29
REMARK                            x       y       z     vdW  Elec       q    Type
REMARK                         _______ _______ _______ _____ _____    ______ ____
ROOT
ATOM      1  C   UNL     1       0.306  10.978  19.148  0.00  0.00    +0.000 A 
ATOM      2  C   UNL     1       1.084   9.873  18.712  0.00  0.00    +0.000 A 
ATOM      3  C   UNL     1       1.534   8.884  19.580  0.00  0.00    +0.000 A 
ATOM      4  C   UNL     1       1.152   8.917  20.908  0.00  0.00    +0.000 A 
ATOM      5  C   UNL     1       0.340   9.951  21.383  0.00  0.00    +0.000 A 
ATOM      6  C   UNL     1      -0.168   9.900  22.768  0.00  0.00    +0.000 A 
ATOM      7  O   UNL     1       0.156   9.077  23.619  0.00  0.00    +0.000 OA
ATOM      8  C   UNL     1      -1.115  10.935  23.149  0.00  0.00    +0.000 A 
ATOM      9  C   UNL     1      -1.275  11.995  22.354  0.00  0.00    +0.000 A 
ATOM     10  O   UNL     1      -0.781  12.096  21.047  0.00  0.00    +0.000 OA
ATOM     11  C   UNL     1      -0.052  11.015  20.534  0.00  0.00    +0.000 A 
ENDROOT
BRANCH   9  12
ATOM     12  C   UNL     1      -1.967  13.143  22.985  0.00  0.00    +0.000 A 
ATOM     13  C   UNL     1      -1.234  14.323  23.262  0.00  0.00    +0.000 A 
ATOM     14  C   UNL     1      -1.753  15.346  24.071  0.00  0.00    +0.000 A 
ATOM     15  C   UNL     1      -3.014  15.219  24.634  0.00  0.00    +0.000 A 
ATOM     16  C   UNL     1      -3.765  14.064  24.341  0.00  0.00    +0.000 A 
ATOM     17  C   UNL     1      -3.247  13.039  23.531  0.00  0.00    +0.000 A 
BRANCH  15  18
ATOM     18  O   UNL     1      -3.625  16.100  25.482  0.00  0.00    +0.000 OA
ATOM     19  C   UNL     1      -4.650  16.935  24.950  0.00  0.00    +0.000 C 
ENDBRANCH  15  18
ENDBRANCH   9  12
BRANCH   2  20
ATOM     20  O   UNL     1       1.461   9.653  17.413  0.00  0.00    +0.000 OA
ATOM     21  H   UNL     1       2.047   8.880  17.366  0.00  0.00    +0.000 HD
ENDBRANCH   2  20
BRANCH   4  22
ATOM     22  O   UNL     1       1.564   7.901  21.722  0.00  0.00    +0.000 OA
ATOM     23  H   UNL     1       2.530   7.874  21.770  0.00  0.00    +0.000 HD
ENDBRANCH   4  22
BRANCH   1  24
ATOM     24  C   UNL     1      -0.178  12.024  18.116  0.00  0.00    +0.000 C 
BRANCH  24  25
ATOM     25  C   UNL     1       0.472  13.412  18.376  0.00  0.00    +0.000 A 
ATOM     26  C   UNL     1       1.872  13.522  18.367  0.00  0.00    +0.000 A 
ATOM     27  C   UNL     1       2.505  14.738  18.632  0.00  0.00    +0.000 A 
ATOM     28  C   UNL     1       1.754  15.885  18.913  0.00  0.00    +0.000 A 
ATOM     29  C   UNL     1       0.365  15.823  18.917  0.00  0.00    +0.000 A 
ATOM     30  C   UNL     1      -0.262  14.591  18.644  0.00  0.00    +0.000 A 
BRANCH  28  31
ATOM     31  O   UNL     1       2.428  17.047  19.175  0.00  0.00    +0.000 OA
ATOM     32  H   UNL     1       2.686  17.064  20.112  0.00  0.00    +0.000 HD
ENDBRANCH  28  31
BRANCH  29  33
ATOM     33  O   UNL     1      -0.526  16.838  19.169  0.00  0.00    +0.000 OA
ATOM     34  C   UNL     1      -0.911  17.686  18.089  0.00  0.00    +0.000 C 
ENDBRANCH  29  33
ENDBRANCH  24  25
BRANCH  24  36
ATOM     35  C   UNL     1      -2.513  11.089  17.636  0.00  0.00    +0.000 C 
ATOM     36  C   UNL     1      -1.708  12.077  18.053  0.00  0.00    +0.000 C 
ENDBRANCH  24  36
ENDBRANCH   1  24
TORSDOF 9
ENDMDL
MODEL 7
REMARK VINA RESULT:      -6.9      0.704      1.778
REMARK  Name = 
REMARK  11 active torsions:
REMARK  status: ('A' for Active; 'I' for Inactive)
REMARK    1  A    between atoms: C_2  and  C_3
REMARK    2  A    between atoms: C_3  and  C_4
REMARK    3  A    between atoms: C_3  and  C_13
REMARK    4  A    between atoms: C_7  and  O_8
REMARK    5  A    between atoms: C_9  and  O_10
REMARK    6  A    between atoms: O_10  and  C_11
REMARK    7  A    between atoms: C_14  and  O_15
REMARK    8  A    between atoms: C_17  and  O_18
REMARK    9  A    between atoms: C_23  and  C_24
REMARK   10  A    between atoms: C_27  and  O_28
REMARK   11  A    between atoms: O_28  and  C_29
REMARK                            x       y       z     vdW  Elec       q    Type
REMARK                         _______ _______ _______ _____ _____    ______ ____
ROOT
ATOM      1  C   UNL     1      -1.420  13.106  20.135  0.00  0.00    +0.000 A 
ATOM      2  C   UNL     1      -1.552  14.519  20.084  0.00  0.00    +0.000 A 
ATOM      3  C   UNL     1      -0.543  15.348  19.605  0.00  0.00    +0.000 A 
ATOM      4  C   UNL     1       0.607  14.791  19.080  0.00  0.00    +0.000 A 
ATOM      5  C   UNL     1       0.769  13.402  19.054  0.00  0.00    +0.000 A 
ATOM      6  C   UNL     1       1.941  12.819  18.370  0.00  0.00    +0.000 A 
ATOM      7  O   UNL     1       2.887  13.451  17.910  0.00  0.00    +0.000 OA
ATOM      8  C   UNL     1       1.973  11.370  18.263  0.00  0.00    +0.000 A 
ATOM      9  C   UNL     1       1.117  10.645  18.986  0.00  0.00    +0.000 A 
ATOM     10  O   UNL     1       0.014  11.164  19.676  0.00  0.00    +0.000 OA
ATOM     11  C   UNL     1      -0.207  12.546  19.620  0.00  0.00    +0.000 A 
ENDROOT
BRANCH   9  12
ATOM     12  C   UNL     1       1.458   9.207  19.090  0.00  0.00    +0.000 A 
ATOM     13  C   UNL     1       1.278   8.543  20.328  0.00  0.00    +0.000 A 
ATOM     14  C   UNL     1       1.802   7.263  20.567  0.00  0.00    +0.000 A 
ATOM     15  C   UNL     1       2.530   6.612  19.581  0.00  0.00    +0.000 A 
ATOM     16  C   UNL     1       2.691   7.249  18.336  0.00  0.00    +0.000 A 
ATOM     17  C   UNL     1       2.166   8.531  18.096  0.00  0.00    +0.000 A 
BRANCH  15  18
ATOM     18  O   UNL     1       3.147   5.396  19.687  0.00  0.00    +0.000 OA
ATOM     19  C   UNL     1       4.503   5.297  19.259  0.00  0.00    +0.000 C 
ENDBRANCH  15  18
ENDBRANCH   9  12
BRANCH   2  20
ATOM     20  O   UNL     1      -2.667  15.209  20.479  0.00  0.00    +0.000 OA
ATOM     21  H   UNL     1      -2.454  16.152  20.580  0.00  0.00    +0.000 HD
ENDBRANCH   2  20
BRANCH   4  22
ATOM     22  O   UNL     1       1.555  15.630  18.568  0.00  0.00    +0.000 OA
ATOM     23  H   UNL     1       1.333  15.878  17.659  0.00  0.00    +0.000 HD
ENDBRANCH   4  22
BRANCH   1  24
ATOM     24  C   UNL     1      -2.598  12.249  20.658  0.00  0.00    +0.000 C 
BRANCH  24  25
ATOM     25  C   UNL     1      -3.790  12.266  19.662  0.00  0.00    +0.000 A 
ATOM     26  C   UNL     1      -3.618  11.718  18.380  0.00  0.00    +0.000 A 
ATOM     27  C   UNL     1      -4.646  11.743  17.436  0.00  0.00    +0.000 A 
ATOM     28  C   UNL     1      -5.883  12.316  17.747  0.00  0.00    +0.000 A 
ATOM     29  C   UNL     1      -6.102  12.856  19.010  0.00  0.00    +0.000 A 
ATOM     30  C   UNL     1      -5.058  12.822  19.955  0.00  0.00    +0.000 A 
BRANCH  28  31
ATOM     31  O   UNL     1      -6.852  12.322  16.780  0.00  0.00    +0.000 OA
ATOM     32  H   UNL     1      -7.724  12.415  17.199  0.00  0.00    +0.000 HD
ENDBRANCH  28  31
BRANCH  29  33
ATOM     33  O   UNL     1      -7.243  13.455  19.488  0.00  0.00    +0.000 OA
ATOM     34  C   UNL     1      -7.232  13.971  20.818  0.00  0.00    +0.000 C 
ENDBRANCH  29  33
ENDBRANCH  24  25
BRANCH  24  36
ATOM     35  C   UNL     1      -2.381  12.271  23.209  0.00  0.00    +0.000 C 
ATOM     36  C   UNL     1      -2.994  12.657  22.081  0.00  0.00    +0.000 C 
ENDBRANCH  24  36
ENDBRANCH   1  24
TORSDOF 9
ENDMDL
MODEL 8
REMARK VINA RESULT:      -6.9      2.761      7.762
REMARK  Name = 
REMARK  11 active torsions:
REMARK  status: ('A' for Active; 'I' for Inactive)
REMARK    1  A    between atoms: C_2  and  C_3
REMARK    2  A    between atoms: C_3  and  C_4
REMARK    3  A    between atoms: C_3  and  C_13
REMARK    4  A    between atoms: C_7  and  O_8
REMARK    5  A    between atoms: C_9  and  O_10
REMARK    6  A    between atoms: O_10  and  C_11
REMARK    7  A    between atoms: C_14  and  O_15
REMARK    8  A    between atoms: C_17  and  O_18
REMARK    9  A    between atoms: C_23  and  C_24
REMARK   10  A    between atoms: C_27  and  O_28
REMARK   11  A    between atoms: O_28  and  C_29
REMARK                            x       y       z     vdW  Elec       q    Type
REMARK                         _______ _______ _______ _____ _____    ______ ____
ROOT
ATOM      1  C   UNL     1       0.314  11.069  19.203  0.00  0.00    +0.000 A 
ATOM      2  C   UNL     1       1.092  10.001  18.684  0.00  0.00    +0.000 A 
ATOM      3  C   UNL     1       1.545   8.951  19.475  0.00  0.00    +0.000 A 
ATOM      4  C   UNL     1       1.165   8.884  20.802  0.00  0.00    +0.000 A 
ATOM      5  C   UNL     1       0.353   9.879  21.355  0.00  0.00    +0.000 A 
ATOM      6  C   UNL     1      -0.152   9.725  22.734  0.00  0.00    +0.000 A 
ATOM      7  O   UNL     1       0.175   8.841  23.520  0.00  0.00    +0.000 OA
ATOM      8  C   UNL     1      -1.100  10.727  23.192  0.00  0.00    +0.000 A 
ATOM      9  C   UNL     1      -1.262  11.843  22.478  0.00  0.00    +0.000 A 
ATOM     10  O   UNL     1      -0.771  12.042  21.182  0.00  0.00    +0.000 OA
ATOM     11  C   UNL     1      -0.042  11.003  20.589  0.00  0.00    +0.000 A 
ENDROOT
BRANCH   9  12
ATOM     12  C   UNL     1      -1.954  12.940  23.195  0.00  0.00    +0.000 A 
ATOM     13  C   UNL     1      -3.356  12.869  23.377  0.00  0.00    +0.000 A 
ATOM     14  C   UNL     1      -4.104  13.971  23.822  0.00  0.00    +0.000 A 
ATOM     15  C   UNL     1      -3.474  15.178  24.090  0.00  0.00    +0.000 A 
ATOM     16  C   UNL     1      -2.077  15.252  23.942  0.00  0.00    +0.000 A 
ATOM     17  C   UNL     1      -1.327  14.150  23.497  0.00  0.00    +0.000 A 
BRANCH  15  18
ATOM     18  O   UNL     1      -4.074  16.346  24.473  0.00  0.00    +0.000 OA
ATOM     19  C   UNL     1      -5.487  16.451  24.320  0.00  0.00    +0.000 C 
ENDBRANCH  15  18
ENDBRANCH   9  12
BRANCH   2  20
ATOM     20  O   UNL     1       1.467   9.879  17.372  0.00  0.00    +0.000 OA
ATOM     21  H   UNL     1       2.269  10.401  17.208  0.00  0.00    +0.000 HD
ENDBRANCH   2  20
BRANCH   4  22
ATOM     22  O   UNL     1       1.580   7.811  21.538  0.00  0.00    +0.000 OA
ATOM     23  H   UNL     1       0.862   7.485  22.099  0.00  0.00    +0.000 HD
ENDBRANCH   4  22
BRANCH   1  24
ATOM     24  C   UNL     1      -0.174  12.189  18.252  0.00  0.00    +0.000 C 
BRANCH  24  25
ATOM     25  C   UNL     1       0.503  13.547  18.590  0.00  0.00    +0.000 A 
ATOM     26  C   UNL     1      -0.302  14.683  18.773  0.00  0.00    +0.000 A 
ATOM     27  C   UNL     1       0.259  15.934  19.040  0.00  0.00    +0.000 A 
ATOM     28  C   UNL     1       1.647  16.085  19.135  0.00  0.00    +0.000 A 
ATOM     29  C   UNL     1       2.480  14.982  18.976  0.00  0.00    +0.000 A 
ATOM     30  C   UNL     1       1.900  13.726  18.711  0.00  0.00    +0.000 A 
BRANCH  28  31
ATOM     31  O   UNL     1       2.142  17.336  19.389  0.00  0.00    +0.000 OA
ATOM     32  H   UNL     1       1.450  17.996  19.218  0.00  0.00    +0.000 HD
ENDBRANCH  28  31
BRANCH  29  33
ATOM     33  O   UNL     1       3.851  14.943  19.035  0.00  0.00    +0.000 OA
ATOM     34  C   UNL     1       4.589  15.169  17.835  0.00  0.00    +0.000 C 
ENDBRANCH  29  33
ENDBRANCH  24  25
BRANCH  24  36
ATOM     35  C   UNL     1      -2.533  11.311  17.783  0.00  0.00    +0.000 C 
ATOM     36  C   UNL     1      -1.704  12.267  18.224  0.00  0.00    +0.000 C 
ENDBRANCH  24  36
ENDBRANCH   1  24
TORSDOF 9
ENDMDL
MODEL 9
REMARK VINA RESULT:      -6.8      0.557      1.019
REMARK  Name = 
REMARK  11 active torsions:
REMARK  status: ('A' for Active; 'I' for Inactive)
REMARK    1  A    between atoms: C_2  and  C_3
REMARK    2  A    between atoms: C_3  and  C_4
REMARK    3  A    between atoms: C_3  and  C_13
REMARK    4  A    between atoms: C_7  and  O_8
REMARK    5  A    between atoms: C_9  and  O_10
REMARK    6  A    between atoms: O_10  and  C_11
REMARK    7  A    between atoms: C_14  and  O_15
REMARK    8  A    between atoms: C_17  and  O_18
REMARK    9  A    between atoms: C_23  and  C_24
REMARK   10  A    between atoms: C_27  and  O_28
REMARK   11  A    between atoms: O_28  and  C_29
REMARK                            x       y       z     vdW  Elec       q    Type
REMARK                         _______ _______ _______ _____ _____    ______ ____
ROOT
ATOM      1  C   UNL     1      -1.258  13.153  20.038  0.00  0.00    +0.000 A 
ATOM      2  C   UNL     1      -1.463  14.557  19.987  0.00  0.00    +0.000 A 
ATOM      3  C   UNL     1      -0.490  15.440  19.531  0.00  0.00    +0.000 A 
ATOM      4  C   UNL     1       0.699  14.946  19.029  0.00  0.00    +0.000 A 
ATOM      5  C   UNL     1       0.934  13.568  19.002  0.00  0.00    +0.000 A 
ATOM      6  C   UNL     1       2.149  13.049  18.342  0.00  0.00    +0.000 A 
ATOM      7  O   UNL     1       3.070  13.731  17.903  0.00  0.00    +0.000 OA
ATOM      8  C   UNL     1       2.259  11.604  18.232  0.00  0.00    +0.000 A 
ATOM      9  C   UNL     1       1.428  10.833  18.937  0.00  0.00    +0.000 A 
ATOM     10  O   UNL     1       0.285  11.291  19.605  0.00  0.00    +0.000 OA
ATOM     11  C   UNL     1      -0.007  12.659  19.546  0.00  0.00    +0.000 A 
ENDROOT
BRANCH   9  12
ATOM     12  C   UNL     1       1.842   9.414  19.045  0.00  0.00    +0.000 A 
ATOM     13  C   UNL     1       2.308   8.741  17.889  0.00  0.00    +0.000 A 
ATOM     14  C   UNL     1       2.483   7.349  17.862  0.00  0.00    +0.000 A 
ATOM     15  C   UNL     1       2.190   6.586  18.983  0.00  0.00    +0.000 A 
ATOM     16  C   UNL     1       1.756   7.247  20.147  0.00  0.00    +0.000 A 
ATOM     17  C   UNL     1       1.581   8.642  20.177  0.00  0.00    +0.000 A 
BRANCH  15  18
ATOM     18  O   UNL     1       2.256   5.225  19.087  0.00  0.00    +0.000 OA
ATOM     19  C   UNL     1       2.069   4.456  17.901  0.00  0.00    +0.000 C 
ENDBRANCH  15  18
ENDBRANCH   9  12
BRANCH   2  20
ATOM     20  O   UNL     1      -2.621  15.187  20.360  0.00  0.00    +0.000 OA
ATOM     21  H   UNL     1      -3.096  15.500  19.573  0.00  0.00    +0.000 HD
ENDBRANCH   2  20
BRANCH   4  22
ATOM     22  O   UNL     1       1.611  15.835  18.538  0.00  0.00    +0.000 OA
ATOM     23  H   UNL     1       1.179  16.481  17.961  0.00  0.00    +0.000 HD
ENDBRANCH   4  22
BRANCH   1  24
ATOM     24  C   UNL     1      -2.399  12.234  20.535  0.00  0.00    +0.000 C 
BRANCH  24  25
ATOM     25  C   UNL     1      -3.568  12.186  19.511  0.00  0.00    +0.000 A 
ATOM     26  C   UNL     1      -4.843  12.619  19.910  0.00  0.00    +0.000 A 
ATOM     27  C   UNL     1      -5.933  12.560  19.040  0.00  0.00    +0.000 A 
ATOM     28  C   UNL     1      -5.781  12.066  17.740  0.00  0.00    +0.000 A 
ATOM     29  C   UNL     1      -4.532  11.641  17.299  0.00  0.00    +0.000 A 
ATOM     30  C   UNL     1      -3.439  11.709  18.186  0.00  0.00    +0.000 A 
BRANCH  28  31
ATOM     31  O   UNL     1      -6.886  12.022  16.934  0.00  0.00    +0.000 OA
ATOM     32  H   UNL     1      -7.639  12.426  17.399  0.00  0.00    +0.000 HD
ENDBRANCH  28  31
BRANCH  29  33
ATOM     33  O   UNL     1      -4.198  11.131  16.068  0.00  0.00    +0.000 OA
ATOM     34  C   UNL     1      -2.985  10.390  15.947  0.00  0.00    +0.000 C 
ENDBRANCH  29  33
ENDBRANCH  24  25
BRANCH  24  36
ATOM     35  C   UNL     1      -2.404  12.081  23.091  0.00  0.00    +0.000 C 
ATOM     36  C   UNL     1      -2.850  12.620  21.948  0.00  0.00    +0.000 C 
ENDBRANCH  24  36
ENDBRANCH   1  24
TORSDOF 9
ENDMDL
