MODEL 1
REMARK VINA RESULT:      -8.0      0.000      0.000
REMARK  Name = 
REMARK  8 active torsions:
REMARK  status: ('A' for Active; 'I' for Inactive)
REMARK    1  A    between atoms: C_1  and  C_2
REMARK    2  A    between atoms: C_8  and  O_9
REMARK    3  A    between atoms: O_9  and  C_10
REMARK    4  A    between atoms: C_10  and  C_11
REMARK    5  A    between atoms: N_13  and  C_14
REMARK    6  A    between atoms: C_14  and  N_16
REMARK    7  A    between atoms: N_16  and  C_17
REMARK    8  A    between atoms: C_22  and  N_23
REMARK                            x       y       z     vdW  Elec       q    Type
REMARK                         _______ _______ _______ _____ _____    ______ ____
ROOT
ATOM      1  C   UNL     1       2.278   7.345  19.919  0.00  0.00    +0.000 C 
ATOM      2  S   UNL     1       2.125   8.242  18.513  0.00  0.00    +0.000 S 
ENDROOT
BRANCH   1   5
ATOM      3  C   UNL     1       1.174   8.988  21.474  0.00  0.00    +0.000 C 
ATOM      4  O   UNL     1       1.594   9.785  22.317  0.00  0.00    +0.000 OA
ATOM      5  N   UNL     1       1.899   7.836  21.187  0.00  0.00    +0.000 N 
ATOM      6  H   UNL     1       2.700   7.823  21.805  0.00  0.00    +0.000 HD
BRANCH   3   7
ATOM      7  C   UNL     1      -0.165   9.140  20.749  0.00  0.00    +0.000 C 
BRANCH   7   8
ATOM      8  O   UNL     1      -0.156  10.272  19.906  0.00  0.00    +0.000 OA
BRANCH   8  16
ATOM      9  C   UNL     1      -2.060  12.570  20.976  0.00  0.00    +0.000 C 
ATOM     10  C   UNL     1      -2.168  11.767  19.711  0.00  0.00    +0.000 A 
ATOM     11  C   UNL     1      -3.261  12.082  18.870  0.00  0.00    +0.000 A 
ATOM     12  C   UNL     1      -3.494  11.391  17.683  0.00  0.00    +0.000 A 
ATOM     13 CL   UNL     1      -4.814  11.838  16.676  0.00  0.00    +0.000 Cl
ATOM     14  C   UNL     1      -2.660  10.350  17.313  0.00  0.00    +0.000 A 
ATOM     15  C   UNL     1      -1.574  10.029  18.127  0.00  0.00    +0.000 A 
ATOM     16  C   UNL     1      -1.302  10.732  19.317  0.00  0.00    +0.000 A 
ENDBRANCH   8  16
ENDBRANCH   7   8
ENDBRANCH   3   7
ENDBRANCH   1   5
BRANCH   1  17
ATOM     17  N   UNL     1       2.886   6.091  20.078  0.00  0.00    +0.000 N 
ATOM     18  H   UNL     1       3.868   6.095  20.313  0.00  0.00    +0.000 HD
BRANCH  17  19
ATOM     19  C   UNL     1       2.398   4.812  19.697  0.00  0.00    +0.000 A 
ATOM     20  C   UNL     1       1.222   4.316  20.293  0.00  0.00    +0.000 A 
ATOM     21  C   UNL     1       0.630   3.129  19.877  0.00  0.00    +0.000 A 
ATOM     22  C   UNL     1       1.238   2.391  18.882  0.00  0.00    +0.000 A 
ATOM     23  C   UNL     1       2.460   2.819  18.357  0.00  0.00    +0.000 A 
ATOM     24  C   UNL     1       3.106   4.014  18.755  0.00  0.00    +0.000 A 
BRANCH  24  25
ATOM     25  N   UNL     1       4.324   4.327  18.165  0.00  0.00    +0.000 N 
ATOM     26  C   UNL     1       5.616   4.437  18.855  0.00  0.00    +0.000 C 
ATOM     27  C   UNL     1       6.372   5.698  18.398  0.00  0.00    +0.000 C 
ATOM     28  O   UNL     1       6.504   5.761  16.970  0.00  0.00    +0.000 OA
ATOM     29  C   UNL     1       5.205   5.772  16.361  0.00  0.00    +0.000 C 
ATOM     30  C   UNL     1       4.429   4.488  16.696  0.00  0.00    +0.000 C 
ENDBRANCH  24  25
ENDBRANCH  17  19
ENDBRANCH   1  17
TORSDOF 7
ENDMDL
MODEL 2
REMARK VINA RESULT:      -8.0      1.692      2.529
REMARK  Name = 
REMARK  8 active torsions:
REMARK  status: ('A' for Active; 'I' for Inactive)
REMARK    1  A    between atoms: C_1  and  C_2
REMARK    2  A    between atoms: C_8  and  O_9
REMARK    3  A    between atoms: O_9  and  C_10
REMARK    4  A    between atoms: C_10  and  C_11
REMARK    5  A    between atoms: N_13  and  C_14
REMARK    6  A    between atoms: C_14  and  N_16
REMARK    7  A    between atoms: N_16  and  C_17
REMARK    8  A    between atoms: C_22  and  N_23
REMARK                            x       y       z     vdW  Elec       q    Type
REMARK                         _______ _______ _______ _____ _____    ______ ____
ROOT
ATOM      1  C   UNL     1       2.222   7.437  19.822  0.00  0.00    +0.000 C 
ATOM      2  S   UNL     1       1.960   8.475  18.535  0.00  0.00    +0.000 S 
ENDROOT
BRANCH   1   5
ATOM      3  C   UNL     1       1.278   8.906  21.635  0.00  0.00    +0.000 C 
ATOM      4  O   UNL     1       1.722   9.349  22.697  0.00  0.00    +0.000 OA
ATOM      5  N   UNL     1       1.760   7.703  21.129  0.00  0.00    +0.000 N 
ATOM      6  H   UNL     1       2.423   7.339  21.801  0.00  0.00    +0.000 HD
BRANCH   3   7
ATOM      7  C   UNL     1       0.147   9.567  20.842  0.00  0.00    +0.000 C 
BRANCH   7   8
ATOM      8  O   UNL     1       0.095  10.953  21.099  0.00  0.00    +0.000 OA
BRANCH   8  16
ATOM      9  C   UNL     1      -1.756  12.387  18.961  0.00  0.00    +0.000 C 
ATOM     10  C   UNL     1      -1.979  12.210  20.436  0.00  0.00    +0.000 A 
ATOM     11  C   UNL     1      -3.185  12.744  20.947  0.00  0.00    +0.000 A 
ATOM     12  C   UNL     1      -3.499  12.676  22.303  0.00  0.00    +0.000 A 
ATOM     13 CL   UNL     1      -4.995  13.307  22.869  0.00  0.00    +0.000 Cl
ATOM     14  C   UNL     1      -2.609  12.097  23.191  0.00  0.00    +0.000 A 
ATOM     15  C   UNL     1      -1.418  11.560  22.704  0.00  0.00    +0.000 A 
ATOM     16  C   UNL     1      -1.092  11.591  21.333  0.00  0.00    +0.000 A 
ENDBRANCH   8  16
ENDBRANCH   7   8
ENDBRANCH   3   7
ENDBRANCH   1   5
BRANCH   1  17
ATOM     17  N   UNL     1       3.003   6.271  19.843  0.00  0.00    +0.000 N 
ATOM     18  H   UNL     1       3.944   6.368  20.193  0.00  0.00    +0.000 HD
BRANCH  17  19
ATOM     19  C   UNL     1       2.760   5.028  19.198  0.00  0.00    +0.000 A 
ATOM     20  C   UNL     1       1.645   4.258  19.579  0.00  0.00    +0.000 A 
ATOM     21  C   UNL     1       1.289   3.095  18.905  0.00  0.00    +0.000 A 
ATOM     22  C   UNL     1       2.078   2.658  17.862  0.00  0.00    +0.000 A 
ATOM     23  C   UNL     1       3.246   3.356  17.542  0.00  0.00    +0.000 A 
ATOM     24  C   UNL     1       3.654   4.538  18.205  0.00  0.00    +0.000 A 
BRANCH  24  25
ATOM     25  N   UNL     1       4.842   5.136  17.802  0.00  0.00    +0.000 N 
ATOM     26  C   UNL     1       5.013   6.026  16.646  0.00  0.00    +0.000 C 
ATOM     27  C   UNL     1       6.269   5.642  15.844  0.00  0.00    +0.000 C 
ATOM     28  O   UNL     1       7.441   5.582  16.670  0.00  0.00    +0.000 OA
ATOM     29  C   UNL     1       7.257   4.607  17.708  0.00  0.00    +0.000 C 
ATOM     30  C   UNL     1       6.073   4.985  18.613  0.00  0.00    +0.000 C 
ENDBRANCH  24  25
ENDBRANCH  17  19
ENDBRANCH   1  17
TORSDOF 7
ENDMDL
MODEL 3
REMARK VINA RESULT:      -7.8      0.962      1.349
REMARK  Name = 
REMARK  8 active torsions:
REMARK  status: ('A' for Active; 'I' for Inactive)
REMARK    1  A    between atoms: C_1  and  C_2
REMARK    2  A    between atoms: C_8  and  O_9
REMARK    3  A    between atoms: O_9  and  C_10
REMARK    4  A    between atoms: C_10  and  C_11
REMARK    5  A    between atoms: N_13  and  C_14
REMARK    6  A    between atoms: C_14  and  N_16
REMARK    7  A    between atoms: N_16  and  C_17
REMARK    8  A    between atoms: C_22  and  N_23
REMARK                            x       y       z     vdW  Elec       q    Type
REMARK                         _______ _______ _______ _____ _____    ______ ____
ROOT
ATOM      1  C   UNL     1       1.804   8.043  19.634  0.00  0.00    +0.000 C 
ATOM      2  S   UNL     1       1.950   8.766  18.131  0.00  0.00    +0.000 S 
ENDROOT
BRANCH   1   5
ATOM      3  C   UNL     1       0.943   9.784  21.235  0.00  0.00    +0.000 C 
ATOM      4  O   UNL     1       0.921   9.882  22.464  0.00  0.00    +0.000 OA
ATOM      5  N   UNL     1       0.939   8.528  20.638  0.00  0.00    +0.000 N 
ATOM      6  H   UNL     1       0.867   7.843  21.380  0.00  0.00    +0.000 HD
BRANCH   3   7
ATOM      7  C   UNL     1       0.901  10.983  20.283  0.00  0.00    +0.000 C 
BRANCH   7   8
ATOM      8  O   UNL     1      -0.251  11.765  20.508  0.00  0.00    +0.000 OA
BRANCH   8  16
ATOM      9  C   UNL     1      -3.158  12.884  21.101  0.00  0.00    +0.000 C 
ATOM     10  C   UNL     1      -2.654  12.163  19.883  0.00  0.00    +0.000 A 
ATOM     11  C   UNL     1      -3.597  11.963  18.848  0.00  0.00    +0.000 A 
ATOM     12  C   UNL     1      -3.267  11.282  17.679  0.00  0.00    +0.000 A 
ATOM     13 CL   UNL     1      -4.439  11.098  16.434  0.00  0.00    +0.000 Cl
ATOM     14  C   UNL     1      -1.996  10.758  17.518  0.00  0.00    +0.000 A 
ATOM     15  C   UNL     1      -1.051  10.950  18.526  0.00  0.00    +0.000 A 
ATOM     16  C   UNL     1      -1.353  11.661  19.704  0.00  0.00    +0.000 A 
ENDBRANCH   8  16
ENDBRANCH   7   8
ENDBRANCH   3   7
ENDBRANCH   1   5
BRANCH   1  17
ATOM     17  N   UNL     1       2.562   6.984  20.158  0.00  0.00    +0.000 N 
ATOM     18  H   UNL     1       3.439   7.231  20.590  0.00  0.00    +0.000 HD
BRANCH  17  19
ATOM     19  C   UNL     1       2.410   5.589  19.934  0.00  0.00    +0.000 A 
ATOM     20  C   UNL     1       1.379   4.891  20.593  0.00  0.00    +0.000 A 
ATOM     21  C   UNL     1       1.106   3.555  20.325  0.00  0.00    +0.000 A 
ATOM     22  C   UNL     1       1.898   2.878  19.421  0.00  0.00    +0.000 A 
ATOM     23  C   UNL     1       2.989   3.529  18.839  0.00  0.00    +0.000 A 
ATOM     24  C   UNL     1       3.312   4.885  19.088  0.00  0.00    +0.000 A 
BRANCH  24  25
ATOM     25  N   UNL     1       4.430   5.417  18.457  0.00  0.00    +0.000 N 
ATOM     26  C   UNL     1       4.431   6.189  17.207  0.00  0.00    +0.000 C 
ATOM     27  C   UNL     1       5.550   5.703  16.268  0.00  0.00    +0.000 C 
ATOM     28  O   UNL     1       6.832   5.698  16.912  0.00  0.00    +0.000 OA
ATOM     29  C   UNL     1       6.800   4.831  18.056  0.00  0.00    +0.000 C 
ATOM     30  C   UNL     1       5.768   5.319  19.086  0.00  0.00    +0.000 C 
ENDBRANCH  24  25
ENDBRANCH  17  19
ENDBRANCH   1  17
TORSDOF 7
ENDMDL
MODEL 4
REMARK VINA RESULT:      -7.7      2.272      2.847
REMARK  Name = 
REMARK  8 active torsions:
REMARK  status: ('A' for Active; 'I' for Inactive)
REMARK    1  A    between atoms: C_1  and  C_2
REMARK    2  A    between atoms: C_8  and  O_9
REMARK    3  A    between atoms: O_9  and  C_10
REMARK    4  A    between atoms: C_10  and  C_11
REMARK    5  A    between atoms: N_13  and  C_14
REMARK    6  A    between atoms: C_14  and  N_16
REMARK    7  A    between atoms: N_16  and  C_17
REMARK    8  A    between atoms: C_22  and  N_23
REMARK                            x       y       z     vdW  Elec       q    Type
REMARK                         _______ _______ _______ _____ _____    ______ ____
ROOT
ATOM      1  C   UNL     1       2.221   7.471  19.726  0.00  0.00    +0.000 C 
ATOM      2  S   UNL     1       1.957   8.514  18.443  0.00  0.00    +0.000 S 
ENDROOT
BRANCH   1   5
ATOM      3  C   UNL     1       1.139   8.879  21.509  0.00  0.00    +0.000 C 
ATOM      4  O   UNL     1       1.539   9.392  22.557  0.00  0.00    +0.000 OA
ATOM      5  N   UNL     1       1.739   7.721  21.029  0.00  0.00    +0.000 N 
ATOM      6  H   UNL     1       2.439   7.443  21.705  0.00  0.00    +0.000 HD
BRANCH   3   7
ATOM      7  C   UNL     1      -0.058   9.401  20.708  0.00  0.00    +0.000 C 
BRANCH   7   8
ATOM      8  O   UNL     1      -0.319  10.753  21.015  0.00  0.00    +0.000 OA
BRANCH   8  16
ATOM      9  C   UNL     1      -1.536  11.745  18.261  0.00  0.00    +0.000 C 
ATOM     10  C   UNL     1      -0.358  12.284  19.021  0.00  0.00    +0.000 A 
ATOM     11  C   UNL     1       0.297  13.396  18.441  0.00  0.00    +0.000 A 
ATOM     12  C   UNL     1       1.422  13.971  19.028  0.00  0.00    +0.000 A 
ATOM     13 CL   UNL     1       2.159  15.346  18.304  0.00  0.00    +0.000 Cl
ATOM     14  C   UNL     1       1.941  13.440  20.196  0.00  0.00    +0.000 A 
ATOM     15  C   UNL     1       1.305  12.348  20.786  0.00  0.00    +0.000 A 
ATOM     16  C   UNL     1       0.149  11.767  20.226  0.00  0.00    +0.000 A 
ENDBRANCH   8  16
ENDBRANCH   7   8
ENDBRANCH   3   7
ENDBRANCH   1   5
BRANCH   1  17
ATOM     17  N   UNL     1       3.020   6.317  19.748  0.00  0.00    +0.000 N 
ATOM     18  H   UNL     1       3.968   6.435  20.072  0.00  0.00    +0.000 HD
BRANCH  17  19
ATOM     19  C   UNL     1       2.781   5.060  19.131  0.00  0.00    +0.000 A 
ATOM     20  C   UNL     1       1.659   4.302  19.517  0.00  0.00    +0.000 A 
ATOM     21  C   UNL     1       1.307   3.124  18.868  0.00  0.00    +0.000 A 
ATOM     22  C   UNL     1       2.106   2.659  17.845  0.00  0.00    +0.000 A 
ATOM     23  C   UNL     1       3.279   3.346  17.521  0.00  0.00    +0.000 A 
ATOM     24  C   UNL     1       3.684   4.543  18.160  0.00  0.00    +0.000 A 
BRANCH  24  25
ATOM     25  N   UNL     1       4.878   5.128  17.756  0.00  0.00    +0.000 N 
ATOM     26  C   UNL     1       5.046   6.070  16.642  0.00  0.00    +0.000 C 
ATOM     27  C   UNL     1       6.270   5.692  15.788  0.00  0.00    +0.000 C 
ATOM     28  O   UNL     1       7.460   5.559  16.579  0.00  0.00    +0.000 OA
ATOM     29  C   UNL     1       7.274   4.538  17.571  0.00  0.00    +0.000 C 
ATOM     30  C   UNL     1       6.124   4.903  18.525  0.00  0.00    +0.000 C 
ENDBRANCH  24  25
ENDBRANCH  17  19
ENDBRANCH   1  17
TORSDOF 7
ENDMDL
MODEL 5
REMARK VINA RESULT:      -7.7      2.345      3.878
REMARK  Name = 
REMARK  8 active torsions:
REMARK  status: ('A' for Active; 'I' for Inactive)
REMARK    1  A    between atoms: C_1  and  C_2
REMARK    2  A    between atoms: C_8  and  O_9
REMARK    3  A    between atoms: O_9  and  C_10
REMARK    4  A    between atoms: C_10  and  C_11
REMARK    5  A    between atoms: N_13  and  C_14
REMARK    6  A    between atoms: C_14  and  N_16
REMARK    7  A    between atoms: N_16  and  C_17
REMARK    8  A    between atoms: C_22  and  N_23
REMARK                            x       y       z     vdW  Elec       q    Type
REMARK                         _______ _______ _______ _____ _____    ______ ____
ROOT
ATOM      1  C   UNL     1       2.421   7.479  19.208  0.00  0.00    +0.000 C 
ATOM      2  S   UNL     1       2.014   8.583  18.015  0.00  0.00    +0.000 S 
ENDROOT
BRANCH   1   5
ATOM      3  C   UNL     1       1.306   8.580  21.178  0.00  0.00    +0.000 C 
ATOM      4  O   UNL     1       1.651   8.810  22.340  0.00  0.00    +0.000 OA
ATOM      5  N   UNL     1       1.843   7.494  20.496  0.00  0.00    +0.000 N 
ATOM      6  H   UNL     1       2.449   7.004  21.141  0.00  0.00    +0.000 HD
BRANCH   3   7
ATOM      7  C   UNL     1       0.242   9.387  20.429  0.00  0.00    +0.000 C 
BRANCH   7   8
ATOM      8  O   UNL     1       0.289  10.748  20.798  0.00  0.00    +0.000 OA
BRANCH   8  16
ATOM      9  C   UNL     1      -1.615  12.496  18.962  0.00  0.00    +0.000 C 
ATOM     10  C   UNL     1      -1.744  12.179  20.425  0.00  0.00    +0.000 A 
ATOM     11  C   UNL     1      -2.875  12.722  21.079  0.00  0.00    +0.000 A 
ATOM     12  C   UNL     1      -3.096  12.530  22.441  0.00  0.00    +0.000 A 
ATOM     13 CL   UNL     1      -4.507  13.179  23.180  0.00  0.00    +0.000 Cl
ATOM     14  C   UNL     1      -2.184  11.814  23.196  0.00  0.00    +0.000 A 
ATOM     15  C   UNL     1      -1.065  11.266  22.567  0.00  0.00    +0.000 A 
ATOM     16  C   UNL     1      -0.836  11.422  21.186  0.00  0.00    +0.000 A 
ENDBRANCH   8  16
ENDBRANCH   7   8
ENDBRANCH   3   7
ENDBRANCH   1   5
BRANCH   1  17
ATOM     17  N   UNL     1       3.429   6.504  19.171  0.00  0.00    +0.000 N 
ATOM     18  H   UNL     1       4.014   6.432  19.991  0.00  0.00    +0.000 HD
BRANCH  17  19
ATOM     19  C   UNL     1       3.927   5.783  18.052  0.00  0.00    +0.000 A 
ATOM     20  C   UNL     1       4.675   6.461  17.070  0.00  0.00    +0.000 A 
ATOM     21  C   UNL     1       5.287   5.790  16.018  0.00  0.00    +0.000 A 
ATOM     22  C   UNL     1       5.119   4.426  15.906  0.00  0.00    +0.000 A 
ATOM     23  C   UNL     1       4.293   3.757  16.813  0.00  0.00    +0.000 A 
ATOM     24  C   UNL     1       3.641   4.398  17.894  0.00  0.00    +0.000 A 
BRANCH  24  25
ATOM     25  N   UNL     1       2.837   3.626  18.723  0.00  0.00    +0.000 N 
ATOM     26  C   UNL     1       1.368   3.601  18.725  0.00  0.00    +0.000 C 
ATOM     27  C   UNL     1       0.824   3.659  20.164  0.00  0.00    +0.000 C 
ATOM     28  O   UNL     1       1.392   2.639  20.998  0.00  0.00    +0.000 OA
ATOM     29  C   UNL     1       2.819   2.791  21.052  0.00  0.00    +0.000 C 
ATOM     30  C   UNL     1       3.441   2.643  19.654  0.00  0.00    +0.000 C 
ENDBRANCH  24  25
ENDBRANCH  17  19
ENDBRANCH   1  17
TORSDOF 7
ENDMDL
MODEL 6
REMARK VINA RESULT:      -7.7      2.018      2.475
REMARK  Name = 
REMARK  8 active torsions:
REMARK  status: ('A' for Active; 'I' for Inactive)
REMARK    1  A    between atoms: C_1  and  C_2
REMARK    2  A    between atoms: C_8  and  O_9
REMARK    3  A    between atoms: O_9  and  C_10
REMARK    4  A    between atoms: C_10  and  C_11
REMARK    5  A    between atoms: N_13  and  C_14
REMARK    6  A    between atoms: C_14  and  N_16
REMARK    7  A    between atoms: N_16  and  C_17
REMARK    8  A    between atoms: C_22  and  N_23
REMARK                            x       y       z     vdW  Elec       q    Type
REMARK                         _______ _______ _______ _____ _____    ______ ____
ROOT
ATOM      1  C   UNL     1       2.192   7.286  19.877  0.00  0.00    +0.000 C 
ATOM      2  S   UNL     1       2.208   8.236  18.498  0.00  0.00    +0.000 S 
ENDROOT
BRANCH   1   5
ATOM      3  C   UNL     1       1.108   8.967  21.404  0.00  0.00    +0.000 C 
ATOM      4  O   UNL     1       1.462   9.540  22.438  0.00  0.00    +0.000 OA
ATOM      5  N   UNL     1       1.621   7.712  21.095  0.00  0.00    +0.000 N 
ATOM      6  H   UNL     1       2.220   7.435  21.862  0.00  0.00    +0.000 HD
BRANCH   3   7
ATOM      7  C   UNL     1       0.056   9.522  20.440  0.00  0.00    +0.000 C 
BRANCH   7   8
ATOM      8  O   UNL     1      -0.416  10.778  20.877  0.00  0.00    +0.000 OA
BRANCH   8  16
ATOM      9  C   UNL     1      -1.904  11.840  18.287  0.00  0.00    +0.000 C 
ATOM     10  C   UNL     1      -0.781  12.474  19.057  0.00  0.00    +0.000 A 
ATOM     11  C   UNL     1      -0.328  13.724  18.574  0.00  0.00    +0.000 A 
ATOM     12  C   UNL     1       0.728  14.403  19.178  0.00  0.00    +0.000 A 
ATOM     13 CL   UNL     1       1.216  15.938  18.575  0.00  0.00    +0.000 Cl
ATOM     14  C   UNL     1       1.378  13.845  20.265  0.00  0.00    +0.000 A 
ATOM     15  C   UNL     1       0.941  12.616  20.759  0.00  0.00    +0.000 A 
ATOM     16  C   UNL     1      -0.143  11.925  20.182  0.00  0.00    +0.000 A 
ENDBRANCH   8  16
ENDBRANCH   7   8
ENDBRANCH   3   7
ENDBRANCH   1   5
BRANCH   1  17
ATOM     17  N   UNL     1       2.817   6.045  20.075  0.00  0.00    +0.000 N 
ATOM     18  H   UNL     1       3.768   6.070  20.411  0.00  0.00    +0.000 HD
BRANCH  17  19
ATOM     19  C   UNL     1       2.407   4.763  19.620  0.00  0.00    +0.000 A 
ATOM     20  C   UNL     1       1.249   4.174  20.163  0.00  0.00    +0.000 A 
ATOM     21  C   UNL     1       0.732   2.979  19.675  0.00  0.00    +0.000 A 
ATOM     22  C   UNL     1       1.400   2.326  18.660  0.00  0.00    +0.000 A 
ATOM     23  C   UNL     1       2.607   2.846  18.184  0.00  0.00    +0.000 A 
ATOM     24  C   UNL     1       3.177   4.053  18.656  0.00  0.00    +0.000 A 
BRANCH  24  25
ATOM     25  N   UNL     1       4.388   4.461  18.111  0.00  0.00    +0.000 N 
ATOM     26  C   UNL     1       5.701   4.381  18.764  0.00  0.00    +0.000 C 
ATOM     27  C   UNL     1       6.484   5.693  18.576  0.00  0.00    +0.000 C 
ATOM     28  O   UNL     1       6.579   6.072  17.195  0.00  0.00    +0.000 OA
ATOM     29  C   UNL     1       5.264   6.252  16.648  0.00  0.00    +0.000 C 
ATOM     30  C   UNL     1       4.458   4.945  16.712  0.00  0.00    +0.000 C 
ENDBRANCH  24  25
ENDBRANCH  17  19
ENDBRANCH   1  17
TORSDOF 7
ENDMDL
MODEL 7
REMARK VINA RESULT:      -7.6      1.224      1.564
REMARK  Name = 
REMARK  8 active torsions:
REMARK  status: ('A' for Active; 'I' for Inactive)
REMARK    1  A    between atoms: C_1  and  C_2
REMARK    2  A    between atoms: C_8  and  O_9
REMARK    3  A    between atoms: O_9  and  C_10
REMARK    4  A    between atoms: C_10  and  C_11
REMARK    5  A    between atoms: N_13  and  C_14
REMARK    6  A    between atoms: C_14  and  N_16
REMARK    7  A    between atoms: N_16  and  C_17
REMARK    8  A    between atoms: C_22  and  N_23
REMARK                            x       y       z     vdW  Elec       q    Type
REMARK                         _______ _______ _______ _____ _____    ______ ____
ROOT
ATOM      1  C   UNL     1       2.175   7.383  19.618  0.00  0.00    +0.000 C 
ATOM      2  S   UNL     1       2.219   8.169  18.140  0.00  0.00    +0.000 S 
ENDROOT
BRANCH   1   5
ATOM      3  C   UNL     1       1.233   8.961  21.336  0.00  0.00    +0.000 C 
ATOM      4  O   UNL     1       1.216   8.975  22.570  0.00  0.00    +0.000 OA
ATOM      5  N   UNL     1       1.293   7.750  20.656  0.00  0.00    +0.000 N 
ATOM      6  H   UNL     1       1.267   7.014  21.350  0.00  0.00    +0.000 HD
BRANCH   3   7
ATOM      7  C   UNL     1       1.115  10.217  20.468  0.00  0.00    +0.000 C 
BRANCH   7   8
ATOM      8  O   UNL     1      -0.209  10.704  20.464  0.00  0.00    +0.000 OA
BRANCH   8  16
ATOM      9  C   UNL     1      -0.565  13.515  19.040  0.00  0.00    +0.000 C 
ATOM     10  C   UNL     1      -1.036  12.161  18.589  0.00  0.00    +0.000 A 
ATOM     11  C   UNL     1      -1.725  12.126  17.354  0.00  0.00    +0.000 A 
ATOM     12  C   UNL     1      -2.241  10.940  16.837  0.00  0.00    +0.000 A 
ATOM     13 CL   UNL     1      -3.037  10.943  15.313  0.00  0.00    +0.000 Cl
ATOM     14  C   UNL     1      -2.110   9.760  17.549  0.00  0.00    +0.000 A 
ATOM     15  C   UNL     1      -1.429   9.775  18.767  0.00  0.00    +0.000 A 
ATOM     16  C   UNL     1      -0.873  10.957  19.294  0.00  0.00    +0.000 A 
ENDBRANCH   8  16
ENDBRANCH   7   8
ENDBRANCH   3   7
ENDBRANCH   1   5
BRANCH   1  17
ATOM     17  N   UNL     1       3.039   6.381  20.085  0.00  0.00    +0.000 N 
ATOM     18  H   UNL     1       3.890   6.693  20.528  0.00  0.00    +0.000 HD
BRANCH  17  19
ATOM     19  C   UNL     1       3.028   4.990  19.791  0.00  0.00    +0.000 A 
ATOM     20  C   UNL     1       2.094   4.155  20.435  0.00  0.00    +0.000 A 
ATOM     21  C   UNL     1       1.954   2.813  20.102  0.00  0.00    +0.000 A 
ATOM     22  C   UNL     1       2.787   2.271  19.145  0.00  0.00    +0.000 A 
ATOM     23  C   UNL     1       3.788   3.062  18.575  0.00  0.00    +0.000 A 
ATOM     24  C   UNL     1       3.975   4.430  18.889  0.00  0.00    +0.000 A 
BRANCH  24  25
ATOM     25  N   UNL     1       5.012   5.108  18.261  0.00  0.00    +0.000 N 
ATOM     26  C   UNL     1       4.930   5.816  16.977  0.00  0.00    +0.000 C 
ATOM     27  C   UNL     1       6.143   5.479  16.091  0.00  0.00    +0.000 C 
ATOM     28  O   UNL     1       7.388   5.709  16.767  0.00  0.00    +0.000 OA
ATOM     29  C   UNL     1       7.457   4.898  17.950  0.00  0.00    +0.000 C 
ATOM     30  C   UNL     1       6.327   5.255  18.929  0.00  0.00    +0.000 C 
ENDBRANCH  24  25
ENDBRANCH  17  19
ENDBRANCH   1  17
TORSDOF 7
ENDMDL
MODEL 8
REMARK VINA RESULT:      -7.6      1.425      1.579
REMARK  Name = 
REMARK  8 active torsions:
REMARK  status: ('A' for Active; 'I' for Inactive)
REMARK    1  A    between atoms: C_1  and  C_2
REMARK    2  A    between atoms: C_8  and  O_9
REMARK    3  A    between atoms: O_9  and  C_10
REMARK    4  A    between atoms: C_10  and  C_11
REMARK    5  A    between atoms: N_13  and  C_14
REMARK    6  A    between atoms: C_14  and  N_16
REMARK    7  A    between atoms: N_16  and  C_17
REMARK    8  A    between atoms: C_22  and  N_23
REMARK                            x       y       z     vdW  Elec       q    Type
REMARK                         _______ _______ _______ _____ _____    ______ ____
ROOT
ATOM      1  C   UNL     1       1.989   7.313  20.360  0.00  0.00    +0.000 C 
ATOM      2  S   UNL     1       0.769   7.849  21.376  0.00  0.00    +0.000 S 
ENDROOT
BRANCH   1   5
ATOM      3  C   UNL     1       1.681   8.929  18.456  0.00  0.00    +0.000 C 
ATOM      4  O   UNL     1       1.666   8.815  17.228  0.00  0.00    +0.000 OA
ATOM      5  N   UNL     1       2.418   8.038  19.229  0.00  0.00    +0.000 N 
ATOM      6  H   UNL     1       2.897   7.414  18.591  0.00  0.00    +0.000 HD
BRANCH   3   7
ATOM      7  C   UNL     1       0.983  10.062  19.215  0.00  0.00    +0.000 C 
BRANCH   7   8
ATOM      8  O   UNL     1       0.299  10.917  18.326  0.00  0.00    +0.000 OA
BRANCH   8  16
ATOM      9  C   UNL     1      -1.384  12.957  20.075  0.00  0.00    +0.000 C 
ATOM     10  C   UNL     1      -1.870  11.943  19.078  0.00  0.00    +0.000 A 
ATOM     11  C   UNL     1      -3.269  11.894  18.877  0.00  0.00    +0.000 A 
ATOM     12  C   UNL     1      -3.852  10.979  18.003  0.00  0.00    +0.000 A 
ATOM     13 CL   UNL     1      -5.555  10.985  17.765  0.00  0.00    +0.000 Cl
ATOM     14  C   UNL     1      -3.060  10.069  17.325  0.00  0.00    +0.000 A 
ATOM     15  C   UNL     1      -1.677  10.106  17.506  0.00  0.00    +0.000 A 
ATOM     16  C   UNL     1      -1.063  11.042  18.362  0.00  0.00    +0.000 A 
ENDBRANCH   8  16
ENDBRANCH   7   8
ENDBRANCH   3   7
ENDBRANCH   1   5
BRANCH   1  17
ATOM     17  N   UNL     1       2.652   6.077  20.389  0.00  0.00    +0.000 N 
ATOM     18  H   UNL     1       3.621   6.094  20.669  0.00  0.00    +0.000 HD
BRANCH  17  19
ATOM     19  C   UNL     1       2.244   4.837  19.827  0.00  0.00    +0.000 A 
ATOM     20  C   UNL     1       1.096   4.195  20.328  0.00  0.00    +0.000 A 
ATOM     21  C   UNL     1       0.580   3.045  19.742  0.00  0.00    +0.000 A 
ATOM     22  C   UNL     1       1.239   2.489  18.665  0.00  0.00    +0.000 A 
ATOM     23  C   UNL     1       2.437   3.056  18.224  0.00  0.00    +0.000 A 
ATOM     24  C   UNL     1       3.006   4.221  18.795  0.00  0.00    +0.000 A 
BRANCH  24  25
ATOM     25  N   UNL     1       4.208   4.683  18.274  0.00  0.00    +0.000 N 
ATOM     26  C   UNL     1       5.551   4.325  18.748  0.00  0.00    +0.000 C 
ATOM     27  C   UNL     1       6.439   5.576  18.866  0.00  0.00    +0.000 C 
ATOM     28  O   UNL     1       6.471   6.334  17.647  0.00  0.00    +0.000 OA
ATOM     29  C   UNL     1       5.143   6.757  17.302  0.00  0.00    +0.000 C 
ATOM     30  C   UNL     1       4.223   5.548  17.070  0.00  0.00    +0.000 C 
ENDBRANCH  24  25
ENDBRANCH  17  19
ENDBRANCH   1  17
TORSDOF 7
ENDMDL
MODEL 9
REMARK VINA RESULT:      -7.6      3.094      3.532
REMARK  Name = 
REMARK  8 active torsions:
REMARK  status: ('A' for Active; 'I' for Inactive)
REMARK    1  A    between atoms: C_1  and  C_2
REMARK    2  A    between atoms: C_8  and  O_9
REMARK    3  A    between atoms: O_9  and  C_10
REMARK    4  A    between atoms: C_10  and  C_11
REMARK    5  A    between atoms: N_13  and  C_14
REMARK    6  A    between atoms: C_14  and  N_16
REMARK    7  A    between atoms: N_16  and  C_17
REMARK    8  A    between atoms: C_22  and  N_23
REMARK                            x       y       z     vdW  Elec       q    Type
REMARK                         _______ _______ _______ _____ _____    ______ ____
ROOT
ATOM      1  C   UNL     1       1.734   8.056  19.822  0.00  0.00    +0.000 C 
ATOM      2  S   UNL     1       1.772   8.880  18.364  0.00  0.00    +0.000 S 
ENDROOT
BRANCH   1   5
ATOM      3  C   UNL     1       0.950   9.703  21.555  0.00  0.00    +0.000 C 
ATOM      4  O   UNL     1       1.036   9.761  22.784  0.00  0.00    +0.000 OA
ATOM      5  N   UNL     1       0.944   8.468  20.916  0.00  0.00    +0.000 N 
ATOM      6  H   UNL     1       0.970   7.758  21.636  0.00  0.00    +0.000 HD
BRANCH   3   7
ATOM      7  C   UNL     1       0.770  10.929  20.655  0.00  0.00    +0.000 C 
BRANCH   7   8
ATOM      8  O   UNL     1       1.482  12.036  21.163  0.00  0.00    +0.000 OA
BRANCH   8  16
ATOM      9  C   UNL     1       1.640  15.099  21.968  0.00  0.00    +0.000 C 
ATOM     10  C   UNL     1       1.976  14.449  20.656  0.00  0.00    +0.000 A 
ATOM     11  C   UNL     1       2.440  15.314  19.637  0.00  0.00    +0.000 A 
ATOM     12  C   UNL     1       2.756  14.844  18.365  0.00  0.00    +0.000 A 
ATOM     13 CL   UNL     1       3.352  15.931  17.173  0.00  0.00    +0.000 Cl
ATOM     14  C   UNL     1       2.595  13.503  18.063  0.00  0.00    +0.000 A 
ATOM     15  C   UNL     1       2.145  12.633  19.057  0.00  0.00    +0.000 A 
ATOM     16  C   UNL     1       1.847  13.081  20.359  0.00  0.00    +0.000 A 
ENDBRANCH   8  16
ENDBRANCH   7   8
ENDBRANCH   3   7
ENDBRANCH   1   5
BRANCH   1  17
ATOM     17  N   UNL     1       2.526   6.966  20.216  0.00  0.00    +0.000 N 
ATOM     18  H   UNL     1       3.436   7.186  20.591  0.00  0.00    +0.000 HD
BRANCH  17  19
ATOM     19  C   UNL     1       2.351   5.588  19.918  0.00  0.00    +0.000 A 
ATOM     20  C   UNL     1       1.307   4.874  20.537  0.00  0.00    +0.000 A 
ATOM     21  C   UNL     1       1.011   3.559  20.198  0.00  0.00    +0.000 A 
ATOM     22  C   UNL     1       1.794   2.918  19.260  0.00  0.00    +0.000 A 
ATOM     23  C   UNL     1       2.898   3.580  18.716  0.00  0.00    +0.000 A 
ATOM     24  C   UNL     1       3.244   4.915  19.038  0.00  0.00    +0.000 A 
BRANCH  24  25
ATOM     25  N   UNL     1       4.371   5.460  18.437  0.00  0.00    +0.000 N 
ATOM     26  C   UNL     1       4.387   6.321  17.247  0.00  0.00    +0.000 C 
ATOM     27  C   UNL     1       5.485   5.875  16.265  0.00  0.00    +0.000 C 
ATOM     28  O   UNL     1       6.771   5.787  16.897  0.00  0.00    +0.000 OA
ATOM     29  C   UNL     1       6.721   4.840  17.975  0.00  0.00    +0.000 C 
ATOM     30  C   UNL     1       5.710   5.279  19.046  0.00  0.00    +0.000 C 
ENDBRANCH  24  25
ENDBRANCH  17  19
ENDBRANCH   1  17
TORSDOF 7
ENDMDL
