MODEL 1
REMARK VINA RESULT:      -7.8      0.000      0.000
REMARK  Name = 
REMARK  3 active torsions:
REMARK  status: ('A' for Active; 'I' for Inactive)
REMARK    1  A    between atoms: C_1  and  C_2
REMARK    2  A    between atoms: N_10  and  C_11
REMARK    3  A    between atoms: C_23  and  C_24
REMARK                            x       y       z     vdW  Elec       q    Type
REMARK                         _______ _______ _______ _____ _____    ______ ____
ROOT
ATOM      1  C   UNL     1       4.916   4.075  16.553  0.00  0.00    +0.000 C 
ATOM      2  C   UNL     1       4.033   4.653  17.625  0.00  0.00    +0.000 A 
ATOM      3  C   UNL     1       3.785   6.045  17.624  0.00  0.00    +0.000 A 
ATOM      4  C   UNL     1       2.976   6.596  18.629  0.00  0.00    +0.000 A 
ATOM      5  N   UNL     1       2.541   7.893  18.822  0.00  0.00    +0.000 NA
ATOM      6  C   UNL     1       1.849   7.858  19.937  0.00  0.00    +0.000 A 
ATOM      7  N   UNL     1       1.107   8.791  20.558  0.00  0.00    +0.000 N 
ATOM      8  C   UNL     1       0.514   9.892  19.773  0.00  0.00    +0.000 C 
ATOM      9  C   UNL     1      -0.760  10.397  20.510  0.00  0.00    +0.000 C 
ATOM     10  N   UNL     1      -0.385  10.759  21.892  0.00  0.00    +0.000 N 
ATOM     11  C   UNL     1       0.178   9.637  22.657  0.00  0.00    +0.000 C 
ATOM     12  C   UNL     1       1.465   9.181  21.938  0.00  0.00    +0.000 C 
ATOM     13  N   UNL     1       1.801   6.589  20.444  0.00  0.00    +0.000 N 
ATOM     14  C   UNL     1       2.480   5.754  19.613  0.00  0.00    +0.000 A 
ATOM     15  C   UNL     1       2.677   4.379  19.638  0.00  0.00    +0.000 A 
ATOM     16  C   UNL     1       3.455   3.824  18.613  0.00  0.00    +0.000 A 
ATOM     17  C   UNL     1       3.644   2.330  18.595  0.00  0.00    +0.000 C 
ATOM     18  H   UNL     1       1.260   6.325  21.251  0.00  0.00    +0.000 HD
ENDROOT
BRANCH  10  19
ATOM     19  C   UNL     1      -1.033  11.794  22.531  0.00  0.00    +0.000 A 
ATOM     20  N   UNL     1      -2.189  11.502  23.178  0.00  0.00    +0.000 NA
ATOM     21  C   UNL     1      -2.881  12.511  23.757  0.00  0.00    +0.000 A 
ATOM     22  C   UNL     1      -2.482  13.834  23.734  0.00  0.00    +0.000 A 
ATOM     23  C   UNL     1      -1.309  14.145  23.066  0.00  0.00    +0.000 A 
ATOM     24  C   UNL     1      -0.582  13.128  22.448  0.00  0.00    +0.000 A 
ATOM     25 CL   UNL     1       0.773  13.631  21.489  0.00  0.00    +0.000 Cl
ENDBRANCH  10  19
TORSDOF 1
ENDMDL
MODEL 2
REMARK VINA RESULT:      -7.1      0.904      1.072
REMARK  Name = 
REMARK  3 active torsions:
REMARK  status: ('A' for Active; 'I' for Inactive)
REMARK    1  A    between atoms: C_1  and  C_2
REMARK    2  A    between atoms: N_10  and  C_11
REMARK    3  A    between atoms: C_23  and  C_24
REMARK                            x       y       z     vdW  Elec       q    Type
REMARK                         _______ _______ _______ _____ _____    ______ ____
ROOT
ATOM      1  C   UNL     1       4.100   3.213  17.858  0.00  0.00    +0.000 C 
ATOM      2  C   UNL     1       3.189   4.041  18.723  0.00  0.00    +0.000 A 
ATOM      3  C   UNL     1       3.298   5.449  18.675  0.00  0.00    +0.000 A 
ATOM      4  C   UNL     1       2.465   6.229  19.490  0.00  0.00    +0.000 A 
ATOM      5  N   UNL     1       2.334   7.600  19.593  0.00  0.00    +0.000 NA
ATOM      6  C   UNL     1       1.443   7.788  20.538  0.00  0.00    +0.000 A 
ATOM      7  N   UNL     1       0.845   8.903  20.993  0.00  0.00    +0.000 N 
ATOM      8  C   UNL     1       0.715  10.075  20.105  0.00  0.00    +0.000 C 
ATOM      9  C   UNL     1      -0.516  10.909  20.562  0.00  0.00    +0.000 C 
ATOM     10  N   UNL     1      -0.353  11.236  21.993  0.00  0.00    +0.000 N 
ATOM     11  C   UNL     1      -0.252  10.050  22.855  0.00  0.00    +0.000 C 
ATOM     12  C   UNL     1       1.001   9.261  22.419  0.00  0.00    +0.000 C 
ATOM     13  N   UNL     1       0.981   6.596  21.021  0.00  0.00    +0.000 N 
ATOM     14  C   UNL     1       1.587   5.581  20.347  0.00  0.00    +0.000 A 
ATOM     15  C   UNL     1       1.428   4.202  20.409  0.00  0.00    +0.000 A 
ATOM     16  C   UNL     1       2.236   3.426  19.567  0.00  0.00    +0.000 A 
ATOM     17  C   UNL     1       2.048   1.932  19.584  0.00  0.00    +0.000 C 
ATOM     18  H   UNL     1       0.239   6.510  21.696  0.00  0.00    +0.000 HD
ENDROOT
BRANCH  10  19
ATOM     19  C   UNL     1      -0.840  12.428  22.485  0.00  0.00    +0.000 A 
ATOM     20  N   UNL     1      -2.003  12.386  23.183  0.00  0.00    +0.000 NA
ATOM     21  C   UNL     1      -2.539  13.548  23.621  0.00  0.00    +0.000 A 
ATOM     22  C   UNL     1      -1.973  14.790  23.403  0.00  0.00    +0.000 A 
ATOM     23  C   UNL     1      -0.791  14.846  22.682  0.00  0.00    +0.000 A 
ATOM     24  C   UNL     1      -0.223  13.665  22.206  0.00  0.00    +0.000 A 
ATOM     25 CL   UNL     1       1.154  13.844  21.167  0.00  0.00    +0.000 Cl
ENDBRANCH  10  19
TORSDOF 1
ENDMDL
MODEL 3
REMARK VINA RESULT:      -6.9      1.404      1.410
REMARK  Name = 
REMARK  3 active torsions:
REMARK  status: ('A' for Active; 'I' for Inactive)
REMARK    1  A    between atoms: C_1  and  C_2
REMARK    2  A    between atoms: N_10  and  C_11
REMARK    3  A    between atoms: C_23  and  C_24
REMARK                            x       y       z     vdW  Elec       q    Type
REMARK                         _______ _______ _______ _____ _____    ______ ____
ROOT
ATOM      1  C   UNL     1       5.108   4.087  17.079  0.00  0.00    +0.000 C 
ATOM      2  C   UNL     1       4.200   4.856  18.001  0.00  0.00    +0.000 A 
ATOM      3  C   UNL     1       3.788   6.154  17.625  0.00  0.00    +0.000 A 
ATOM      4  C   UNL     1       2.956   6.885  18.486  0.00  0.00    +0.000 A 
ATOM      5  N   UNL     1       2.377   8.130  18.334  0.00  0.00    +0.000 NA
ATOM      6  C   UNL     1       1.734   8.345  19.458  0.00  0.00    +0.000 A 
ATOM      7  N   UNL     1       0.908   9.336  19.839  0.00  0.00    +0.000 N 
ATOM      8  C   UNL     1       0.161  10.096  18.818  0.00  0.00    +0.000 C 
ATOM      9  C   UNL     1      -1.137  10.657  19.468  0.00  0.00    +0.000 C 
ATOM     10  N   UNL     1      -0.759  11.438  20.662  0.00  0.00    +0.000 N 
ATOM     11  C   UNL     1      -0.039  10.649  21.672  0.00  0.00    +0.000 C 
ATOM     12  C   UNL     1       1.267  10.142  21.025  0.00  0.00    +0.000 C 
ATOM     13  N   UNL     1       1.856   7.279  20.305  0.00  0.00    +0.000 N 
ATOM     14  C   UNL     1       2.600   6.315  19.699  0.00  0.00    +0.000 A 
ATOM     15  C   UNL     1       2.960   5.034  20.098  0.00  0.00    +0.000 A 
ATOM     16  C   UNL     1       3.761   4.291  19.221  0.00  0.00    +0.000 A 
ATOM     17  C   UNL     1       4.125   2.883  19.612  0.00  0.00    +0.000 C 
ATOM     18  H   UNL     1       1.379   7.204  21.189  0.00  0.00    +0.000 HD
ENDROOT
BRANCH  10  19
ATOM     19  C   UNL     1      -1.502  12.540  21.026  0.00  0.00    +0.000 A 
ATOM     20  N   UNL     1      -2.434  12.372  21.998  0.00  0.00    +0.000 NA
ATOM     21  C   UNL     1      -3.223  13.421  22.328  0.00  0.00    +0.000 A 
ATOM     22  C   UNL     1      -3.142  14.666  21.734  0.00  0.00    +0.000 A 
ATOM     23  C   UNL     1      -2.202  14.845  20.732  0.00  0.00    +0.000 A 
ATOM     24  C   UNL     1      -1.384  13.779  20.361  0.00  0.00    +0.000 A 
ATOM     25 CL   UNL     1      -0.363  14.042  18.983  0.00  0.00    +0.000 Cl
ENDBRANCH  10  19
TORSDOF 1
ENDMDL
MODEL 4
REMARK VINA RESULT:      -6.8      1.759      2.810
REMARK  Name = 
REMARK  3 active torsions:
REMARK  status: ('A' for Active; 'I' for Inactive)
REMARK    1  A    between atoms: C_1  and  C_2
REMARK    2  A    between atoms: N_10  and  C_11
REMARK    3  A    between atoms: C_23  and  C_24
REMARK                            x       y       z     vdW  Elec       q    Type
REMARK                         _______ _______ _______ _____ _____    ______ ____
ROOT
ATOM      1  C   UNL     1       5.230   2.869  16.357  0.00  0.00    +0.000 C 
ATOM      2  C   UNL     1       4.856   4.287  16.694  0.00  0.00    +0.000 A 
ATOM      3  C   UNL     1       3.702   4.519  17.476  0.00  0.00    +0.000 A 
ATOM      4  C   UNL     1       3.336   5.838  17.781  0.00  0.00    +0.000 A 
ATOM      5  N   UNL     1       2.304   6.328  18.558  0.00  0.00    +0.000 NA
ATOM      6  C   UNL     1       2.399   7.634  18.467  0.00  0.00    +0.000 A 
ATOM      7  N   UNL     1       1.735   8.624  19.089  0.00  0.00    +0.000 N 
ATOM      8  C   UNL     1       1.126   8.375  20.410  0.00  0.00    +0.000 C 
ATOM      9  C   UNL     1       1.035   9.727  21.176  0.00  0.00    +0.000 C 
ATOM     10  N   UNL     1       0.303  10.692  20.333  0.00  0.00    +0.000 N 
ATOM     11  C   UNL     1       0.947  10.939  19.035  0.00  0.00    +0.000 C 
ATOM     12  C   UNL     1       0.984   9.599  18.270  0.00  0.00    +0.000 C 
ATOM     13  N   UNL     1       3.464   7.995  17.689  0.00  0.00    +0.000 N 
ATOM     14  C   UNL     1       4.104   6.872  17.266  0.00  0.00    +0.000 A 
ATOM     15  C   UNL     1       5.259   6.690  16.515  0.00  0.00    +0.000 A 
ATOM     16  C   UNL     1       5.644   5.370  16.243  0.00  0.00    +0.000 A 
ATOM     17  C   UNL     1       6.917   5.148  15.469  0.00  0.00    +0.000 C 
ATOM     18  H   UNL     1       3.764   8.946  17.550  0.00  0.00    +0.000 HD
ENDROOT
BRANCH  10  19
ATOM     19  C   UNL     1      -0.493  11.652  20.920  0.00  0.00    +0.000 A 
ATOM     20  N   UNL     1      -0.144  12.081  22.159  0.00  0.00    +0.000 NA
ATOM     21  C   UNL     1      -0.944  12.973  22.787  0.00  0.00    +0.000 A 
ATOM     22  C   UNL     1      -2.108  13.483  22.243  0.00  0.00    +0.000 A 
ATOM     23  C   UNL     1      -2.481  13.043  20.983  0.00  0.00    +0.000 A 
ATOM     24  C   UNL     1      -1.682  12.113  20.318  0.00  0.00    +0.000 A 
ATOM     25 CL   UNL     1      -2.316  11.489  18.829  0.00  0.00    +0.000 Cl
ENDBRANCH  10  19
TORSDOF 1
ENDMDL
MODEL 5
REMARK VINA RESULT:      -6.7      1.751      1.945
REMARK  Name = 
REMARK  3 active torsions:
REMARK  status: ('A' for Active; 'I' for Inactive)
REMARK    1  A    between atoms: C_1  and  C_2
REMARK    2  A    between atoms: N_10  and  C_11
REMARK    3  A    between atoms: C_23  and  C_24
REMARK                            x       y       z     vdW  Elec       q    Type
REMARK                         _______ _______ _______ _____ _____    ______ ____
ROOT
ATOM      1  C   UNL     1       5.170   5.539  16.542  0.00  0.00    +0.000 C 
ATOM      2  C   UNL     1       4.171   6.128  17.501  0.00  0.00    +0.000 A 
ATOM      3  C   UNL     1       3.674   7.428  17.254  0.00  0.00    +0.000 A 
ATOM      4  C   UNL     1       2.756   7.992  18.151  0.00  0.00    +0.000 A 
ATOM      5  N   UNL     1       2.088   9.201  18.113  0.00  0.00    +0.000 NA
ATOM      6  C   UNL     1       1.388   9.238  19.223  0.00  0.00    +0.000 A 
ATOM      7  N   UNL     1       0.474  10.116  19.673  0.00  0.00    +0.000 N 
ATOM      8  C   UNL     1      -0.289  10.933  18.709  0.00  0.00    +0.000 C 
ATOM      9  C   UNL     1      -1.651  11.319  19.357  0.00  0.00    +0.000 C 
ATOM     10  N   UNL     1      -1.381  11.983  20.648  0.00  0.00    +0.000 N 
ATOM     11  C   UNL     1      -0.642  11.137  21.595  0.00  0.00    +0.000 C 
ATOM     12  C   UNL     1       0.723  10.804  20.958  0.00  0.00    +0.000 C 
ATOM     13  N   UNL     1       1.559   8.094  19.949  0.00  0.00    +0.000 N 
ATOM     14  C   UNL     1       2.398   7.262  19.275  0.00  0.00    +0.000 A 
ATOM     15  C   UNL     1       2.840   5.973  19.544  0.00  0.00    +0.000 A 
ATOM     16  C   UNL     1       3.730   5.396  18.627  0.00  0.00    +0.000 A 
ATOM     17  C   UNL     1       4.186   3.983  18.875  0.00  0.00    +0.000 C 
ATOM     18  H   UNL     1       1.055   7.882  20.795  0.00  0.00    +0.000 HD
ENDROOT
BRANCH  10  19
ATOM     19  C   UNL     1      -2.221  12.979  21.097  0.00  0.00    +0.000 A 
ATOM     20  N   UNL     1      -3.285  12.606  21.852  0.00  0.00    +0.000 NA
ATOM     21  C   UNL     1      -4.162  13.555  22.251  0.00  0.00    +0.000 A 
ATOM     22  C   UNL     1      -4.045  14.896  21.937  0.00  0.00    +0.000 A 
ATOM     23  C   UNL     1      -2.969  15.287  21.156  0.00  0.00    +0.000 A 
ATOM     24  C   UNL     1      -2.056  14.328  20.719  0.00  0.00    +0.000 A 
ATOM     25 CL   UNL     1      -0.845  14.878  19.605  0.00  0.00    +0.000 Cl
ENDBRANCH  10  19
TORSDOF 1
ENDMDL
MODEL 6
REMARK VINA RESULT:      -6.7      1.902      2.819
REMARK  Name = 
REMARK  3 active torsions:
REMARK  status: ('A' for Active; 'I' for Inactive)
REMARK    1  A    between atoms: C_1  and  C_2
REMARK    2  A    between atoms: N_10  and  C_11
REMARK    3  A    between atoms: C_23  and  C_24
REMARK                            x       y       z     vdW  Elec       q    Type
REMARK                         _______ _______ _______ _____ _____    ______ ____
ROOT
ATOM      1  C   UNL     1       4.324   3.120  19.359  0.00  0.00    +0.000 C 
ATOM      2  C   UNL     1       3.877   4.516  19.017  0.00  0.00    +0.000 A 
ATOM      3  C   UNL     1       3.012   5.191  19.907  0.00  0.00    +0.000 A 
ATOM      4  C   UNL     1       2.576   6.486  19.589  0.00  0.00    +0.000 A 
ATOM      5  N   UNL     1       1.786   7.369  20.299  0.00  0.00    +0.000 NA
ATOM      6  C   UNL     1       1.660   8.417  19.518  0.00  0.00    +0.000 A 
ATOM      7  N   UNL     1       1.093   9.619  19.721  0.00  0.00    +0.000 N 
ATOM      8  C   UNL     1       0.978  10.148  21.094  0.00  0.00    +0.000 C 
ATOM      9  C   UNL     1       0.944  11.702  21.025  0.00  0.00    +0.000 C 
ATOM     10  N   UNL     1      -0.149  12.104  20.118  0.00  0.00    +0.000 N 
ATOM     11  C   UNL     1       0.006  11.584  18.752  0.00  0.00    +0.000 C 
ATOM     12  C   UNL     1      -0.011  10.043  18.834  0.00  0.00    +0.000 C 
ATOM     13  N   UNL     1       2.358   8.249  18.355  0.00  0.00    +0.000 N 
ATOM     14  C   UNL     1       2.984   7.042  18.385  0.00  0.00    +0.000 A 
ATOM     15  C   UNL     1       3.854   6.426  17.493  0.00  0.00    +0.000 A 
ATOM     16  C   UNL     1       4.317   5.147  17.831  0.00  0.00    +0.000 A 
ATOM     17  C   UNL     1       5.296   4.479  16.901  0.00  0.00    +0.000 C 
ATOM     18  H   UNL     1       2.459   8.960  17.650  0.00  0.00    +0.000 HD
ENDROOT
BRANCH  10  19
ATOM     19  C   UNL     1      -0.846  13.269  20.355  0.00  0.00    +0.000 A 
ATOM     20  N   UNL     1      -0.445  14.383  19.691  0.00  0.00    +0.000 NA
ATOM     21  C   UNL     1      -1.068  15.555  19.953  0.00  0.00    +0.000 A 
ATOM     22  C   UNL     1      -2.099  15.695  20.864  0.00  0.00    +0.000 A 
ATOM     23  C   UNL     1      -2.508  14.566  21.556  0.00  0.00    +0.000 A 
ATOM     24  C   UNL     1      -1.875  13.347  21.316  0.00  0.00    +0.000 A 
ATOM     25 CL   UNL     1      -2.331  12.032  22.351  0.00  0.00    +0.000 Cl
ENDBRANCH  10  19
TORSDOF 1
ENDMDL
MODEL 7
REMARK VINA RESULT:      -6.6      1.592      1.665
REMARK  Name = 
REMARK  3 active torsions:
REMARK  status: ('A' for Active; 'I' for Inactive)
REMARK    1  A    between atoms: C_1  and  C_2
REMARK    2  A    between atoms: N_10  and  C_11
REMARK    3  A    between atoms: C_23  and  C_24
REMARK                            x       y       z     vdW  Elec       q    Type
REMARK                         _______ _______ _______ _____ _____    ______ ____
ROOT
ATOM      1  C   UNL     1       5.634   3.708  16.252  0.00  0.00    +0.000 C 
ATOM      2  C   UNL     1       4.555   4.399  17.042  0.00  0.00    +0.000 A 
ATOM      3  C   UNL     1       4.476   5.809  16.997  0.00  0.00    +0.000 A 
ATOM      4  C   UNL     1       3.485   6.464  17.742  0.00  0.00    +0.000 A 
ATOM      5  N   UNL     1       3.163   7.804  17.829  0.00  0.00    +0.000 NA
ATOM      6  C   UNL     1       2.184   7.863  18.702  0.00  0.00    +0.000 A 
ATOM      7  N   UNL     1       1.407   8.884  19.105  0.00  0.00    +0.000 N 
ATOM      8  C   UNL     1       1.189  10.034  18.205  0.00  0.00    +0.000 C 
ATOM      9  C   UNL     1      -0.176  10.691  18.563  0.00  0.00    +0.000 C 
ATOM     10  N   UNL     1      -0.169  11.027  20.000  0.00  0.00    +0.000 N 
ATOM     11  C   UNL     1       0.025   9.860  20.872  0.00  0.00    +0.000 C 
ATOM     12  C   UNL     1       1.403   9.251  20.537  0.00  0.00    +0.000 C 
ATOM     13  N   UNL     1       1.852   6.616  19.152  0.00  0.00    +0.000 N 
ATOM     14  C   UNL     1       2.639   5.697  18.531  0.00  0.00    +0.000 A 
ATOM     15  C   UNL     1       2.664   4.309  18.585  0.00  0.00    +0.000 A 
ATOM     16  C   UNL     1       3.632   3.655  17.811  0.00  0.00    +0.000 A 
ATOM     17  C   UNL     1       3.648   2.149  17.820  0.00  0.00    +0.000 C 
ATOM     18  H   UNL     1       1.078   6.426  19.768  0.00  0.00    +0.000 HD
ENDROOT
BRANCH  10  19
ATOM     19  C   UNL     1      -0.849  12.138  20.449  0.00  0.00    +0.000 A 
ATOM     20  N   UNL     1      -2.196  12.152  20.289  0.00  0.00    +0.000 NA
ATOM     21  C   UNL     1      -2.882  13.258  20.660  0.00  0.00    +0.000 A 
ATOM     22  C   UNL     1      -2.295  14.388  21.198  0.00  0.00    +0.000 A 
ATOM     23  C   UNL     1      -0.918  14.389  21.355  0.00  0.00    +0.000 A 
ATOM     24  C   UNL     1      -0.183  13.268  20.969  0.00  0.00    +0.000 A 
ATOM     25 CL   UNL     1       1.543  13.426  21.036  0.00  0.00    +0.000 Cl
ENDBRANCH  10  19
TORSDOF 1
ENDMDL
MODEL 8
REMARK VINA RESULT:      -6.6      2.677      9.084
REMARK  Name = 
REMARK  3 active torsions:
REMARK  status: ('A' for Active; 'I' for Inactive)
REMARK    1  A    between atoms: C_1  and  C_2
REMARK    2  A    between atoms: N_10  and  C_11
REMARK    3  A    between atoms: C_23  and  C_24
REMARK                            x       y       z     vdW  Elec       q    Type
REMARK                         _______ _______ _______ _____ _____    ______ ____
ROOT
ATOM      1  C   UNL     1      -3.407  13.738  21.098  0.00  0.00    +0.000 C 
ATOM      2  C   UNL     1      -2.243  12.786  21.137  0.00  0.00    +0.000 A 
ATOM      3  C   UNL     1      -1.979  11.986  20.002  0.00  0.00    +0.000 A 
ATOM      4  C   UNL     1      -0.905  11.084  20.035  0.00  0.00    +0.000 A 
ATOM      5  N   UNL     1      -0.409  10.241  19.059  0.00  0.00    +0.000 NA
ATOM      6  C   UNL     1       0.574   9.591  19.638  0.00  0.00    +0.000 A 
ATOM      7  N   UNL     1       1.480   8.725  19.153  0.00  0.00    +0.000 N 
ATOM      8  C   UNL     1       1.843   8.775  17.723  0.00  0.00    +0.000 C 
ATOM      9  C   UNL     1       3.285   8.212  17.557  0.00  0.00    +0.000 C 
ATOM     10  N   UNL     1       3.330   6.864  18.157  0.00  0.00    +0.000 N 
ATOM     11  C   UNL     1       2.989   6.849  19.587  0.00  0.00    +0.000 C 
ATOM     12  C   UNL     1       1.541   7.364  19.726  0.00  0.00    +0.000 C 
ATOM     13  N   UNL     1       0.741  10.005  20.930  0.00  0.00    +0.000 N 
ATOM     14  C   UNL     1      -0.164  10.983  21.203  0.00  0.00    +0.000 A 
ATOM     15  C   UNL     1      -0.371  11.766  22.331  0.00  0.00    +0.000 A 
ATOM     16  C   UNL     1      -1.421  12.693  22.284  0.00  0.00    +0.000 A 
ATOM     17  C   UNL     1      -1.635  13.584  23.479  0.00  0.00    +0.000 C 
ATOM     18  H   UNL     1       1.486   9.691  21.531  0.00  0.00    +0.000 HD
ENDROOT
BRANCH  10  19
ATOM     19  C   UNL     1       4.153   5.899  17.618  0.00  0.00    +0.000 A 
ATOM     20  N   UNL     1       5.413   6.272  17.279  0.00  0.00    +0.000 NA
ATOM     21  C   UNL     1       6.221   5.363  16.686  0.00  0.00    +0.000 A 
ATOM     22  C   UNL     1       5.844   4.064  16.400  0.00  0.00    +0.000 A 
ATOM     23  C   UNL     1       4.556   3.676  16.731  0.00  0.00    +0.000 A 
ATOM     24  C   UNL     1       3.696   4.596  17.330  0.00  0.00    +0.000 A 
ATOM     25 CL   UNL     1       2.054   4.079  17.546  0.00  0.00    +0.000 Cl
ENDBRANCH  10  19
TORSDOF 1
ENDMDL
MODEL 9
REMARK VINA RESULT:      -6.6      1.501      1.611
REMARK  Name = 
REMARK  3 active torsions:
REMARK  status: ('A' for Active; 'I' for Inactive)
REMARK    1  A    between atoms: C_1  and  C_2
REMARK    2  A    between atoms: N_10  and  C_11
REMARK    3  A    between atoms: C_23  and  C_24
REMARK                            x       y       z     vdW  Elec       q    Type
REMARK                         _______ _______ _______ _____ _____    ______ ____
ROOT
ATOM      1  C   UNL     1       5.631   3.777  16.144  0.00  0.00    +0.000 C 
ATOM      2  C   UNL     1       4.570   4.378  17.026  0.00  0.00    +0.000 A 
ATOM      3  C   UNL     1       4.460   5.785  17.095  0.00  0.00    +0.000 A 
ATOM      4  C   UNL     1       3.485   6.356  17.927  0.00  0.00    +0.000 A 
ATOM      5  N   UNL     1       3.139   7.677  18.132  0.00  0.00    +0.000 NA
ATOM      6  C   UNL     1       2.195   7.645  19.043  0.00  0.00    +0.000 A 
ATOM      7  N   UNL     1       1.414   8.613  19.555  0.00  0.00    +0.000 N 
ATOM      8  C   UNL     1       1.136   9.823  18.758  0.00  0.00    +0.000 C 
ATOM      9  C   UNL     1      -0.227  10.417  19.217  0.00  0.00    +0.000 C 
ATOM     10  N   UNL     1      -0.169  10.641  20.676  0.00  0.00    +0.000 N 
ATOM     11  C   UNL     1       0.084   9.414  21.445  0.00  0.00    +0.000 C 
ATOM     12  C   UNL     1       1.459   8.866  21.011  0.00  0.00    +0.000 C 
ATOM     13  N   UNL     1       1.907   6.359  19.406  0.00  0.00    +0.000 N 
ATOM     14  C   UNL     1       2.688   5.510  18.685  0.00  0.00    +0.000 A 
ATOM     15  C   UNL     1       2.745   4.123  18.629  0.00  0.00    +0.000 A 
ATOM     16  C   UNL     1       3.694   3.555  17.769  0.00  0.00    +0.000 A 
ATOM     17  C   UNL     1       3.742   2.053  17.659  0.00  0.00    +0.000 C 
ATOM     18  H   UNL     1       1.163   6.104  20.035  0.00  0.00    +0.000 HD
ENDROOT
BRANCH  10  19
ATOM     19  C   UNL     1      -0.854  11.697  21.236  0.00  0.00    +0.000 A 
ATOM     20  N   UNL     1      -0.468  12.106  22.471  0.00  0.00    +0.000 NA
ATOM     21  C   UNL     1      -1.165  13.097  23.074  0.00  0.00    +0.000 A 
ATOM     22  C   UNL     1      -2.257  13.728  22.508  0.00  0.00    +0.000 A 
ATOM     23  C   UNL     1      -2.667  13.310  21.253  0.00  0.00    +0.000 A 
ATOM     24  C   UNL     1      -1.976  12.282  20.613  0.00  0.00    +0.000 A 
ATOM     25 CL   UNL     1      -2.665  11.706  19.129  0.00  0.00    +0.000 Cl
ENDBRANCH  10  19
TORSDOF 1
ENDMDL
