MODEL 1
REMARK VINA RESULT:      -6.7      0.000      0.000
REMARK  Name = 
REMARK  11 active torsions:
REMARK  status: ('A' for Active; 'I' for Inactive)
REMARK    1  A    between atoms: C_1  and  C_2
REMARK    2  A    between atoms: C_10  and  C_11
REMARK    3  A    between atoms: C_17  and  C_18
REMARK    4  A    between atoms: C_23  and  C_24
REMARK    5  A    between atoms: C_24  and  O_25
REMARK    6  A    between atoms: C_24  and  C_30
REMARK    7  A    between atoms: O_25  and  C_26
REMARK    8  A    between atoms: C_26  and  C_27
REMARK    9  A    between atoms: C_26  and  C_28
REMARK   10  A    between atoms: C_26  and  C_29
REMARK   11  A    between atoms: C_30  and  O_32
REMARK                            x       y       z     vdW  Elec       q    Type
REMARK                         _______ _______ _______ _____ _____    ______ ____
ROOT
ATOM      1  C   UNL     1       1.056   9.563  18.071  0.00  0.00    +0.000 C 
ATOM      2  C   UNL     1      -0.183  10.344  18.424  0.00  0.00    +0.000 A 
ATOM      3  N   UNL     1      -1.136  10.144  17.494  0.00  0.00    +0.000 NA
ATOM      4  C   UNL     1      -2.319  10.715  17.612  0.00  0.00    +0.000 A 
ATOM      5  C   UNL     1      -3.191  10.501  16.551  0.00  0.00    +0.000 A 
ATOM      6  C   UNL     1      -4.448  11.077  16.512  0.00  0.00    +0.000 A 
ATOM      7  C   UNL     1      -4.890  11.772  17.618  0.00  0.00    +0.000 A 
ATOM      8  C   UNL     1      -4.051  11.908  18.732  0.00  0.00    +0.000 A 
ATOM      9  C   UNL     1      -2.684  11.518  18.708  0.00  0.00    +0.000 A 
ATOM     10  C   UNL     1      -1.659  11.873  19.676  0.00  0.00    +0.000 A 
ATOM     11  C   UNL     1      -0.370  11.177  19.561  0.00  0.00    +0.000 A 
ENDROOT
BRANCH  10  12
ATOM     12  C   UNL     1      -1.974  12.938  20.748  0.00  0.00    +0.000 A 
ATOM     13  C   UNL     1      -2.654  12.520  21.908  0.00  0.00    +0.000 A 
ATOM     14  C   UNL     1      -2.886  13.353  23.000  0.00  0.00    +0.000 A 
ATOM     15  F   UNL     1      -3.381  12.810  24.123  0.00  0.00    +0.000 F 
ATOM     16  C   UNL     1      -2.625  14.708  22.938  0.00  0.00    +0.000 A 
ATOM     17  C   UNL     1      -2.046  15.237  21.782  0.00  0.00    +0.000 A 
ATOM     18  C   UNL     1      -1.680  14.361  20.689  0.00  0.00    +0.000 A 
ATOM     19  C   UNL     1      -0.914  15.019  19.547  0.00  0.00    +0.000 C 
ATOM     20  C   UNL     1      -1.884  16.746  21.703  0.00  0.00    +0.000 C 
ATOM     21  C   UNL     1      -2.079  17.447  23.039  0.00  0.00    +0.000 C 
ATOM     22  C   UNL     1      -3.240  16.811  23.768  0.00  0.00    +0.000 C 
ATOM     23  O   UNL     1      -2.962  15.441  24.045  0.00  0.00    +0.000 OA
ENDBRANCH  10  12
BRANCH  11  24
ATOM     24  C   UNL     1       0.794  11.275  20.596  0.00  0.00    +0.000 C 
BRANCH  24  25
ATOM     25  C   UNL     1       1.627  12.575  20.451  0.00  0.00    +0.000 C 
ATOM     26  O   UNL     1       2.285  12.914  19.481  0.00  0.00    +0.000 OA
BRANCH  25  27
ATOM     27  O   UNL     1       1.610  13.379  21.569  0.00  0.00    +0.000 OA
ATOM     28  H   UNL     1       0.738  13.769  21.775  0.00  0.00    +0.000 HD
ENDBRANCH  25  27
ENDBRANCH  24  25
BRANCH  24  29
ATOM     29  O   UNL     1       0.312  10.889  21.882  0.00  0.00    +0.000 OA
BRANCH  29  30
ATOM     30  C   UNL     1       0.359   9.500  22.279  0.00  0.00    +0.000 C 
ATOM     31  C   UNL     1       1.761   8.902  22.114  0.00  0.00    +0.000 C 
ATOM     32  C   UNL     1       0.015   9.495  23.779  0.00  0.00    +0.000 C 
ATOM     33  C   UNL     1      -0.661   8.579  21.586  0.00  0.00    +0.000 C 
ENDBRANCH  29  30
ENDBRANCH  24  29
ENDBRANCH  11  24
TORSDOF 6
ENDMDL
MODEL 2
REMARK VINA RESULT:      -6.5      1.232      1.941
REMARK  Name = 
REMARK  11 active torsions:
REMARK  status: ('A' for Active; 'I' for Inactive)
REMARK    1  A    between atoms: C_1  and  C_2
REMARK    2  A    between atoms: C_10  and  C_11
REMARK    3  A    between atoms: C_17  and  C_18
REMARK    4  A    between atoms: C_23  and  C_24
REMARK    5  A    between atoms: C_24  and  O_25
REMARK    6  A    between atoms: C_24  and  C_30
REMARK    7  A    between atoms: O_25  and  C_26
REMARK    8  A    between atoms: C_26  and  C_27
REMARK    9  A    between atoms: C_26  and  C_28
REMARK   10  A    between atoms: C_26  and  C_29
REMARK   11  A    between atoms: C_30  and  O_32
REMARK                            x       y       z     vdW  Elec       q    Type
REMARK                         _______ _______ _______ _____ _____    ______ ____
ROOT
ATOM      1  C   UNL     1       0.937   9.479  18.250  0.00  0.00    +0.000 C 
ATOM      2  C   UNL     1      -0.243  10.355  18.585  0.00  0.00    +0.000 A 
ATOM      3  N   UNL     1      -1.245  10.134  17.712  0.00  0.00    +0.000 NA
ATOM      4  C   UNL     1      -2.389  10.779  17.827  0.00  0.00    +0.000 A 
ATOM      5  C   UNL     1      -3.316  10.528  16.822  0.00  0.00    +0.000 A 
ATOM      6  C   UNL     1      -4.542  11.169  16.784  0.00  0.00    +0.000 A 
ATOM      7  C   UNL     1      -4.898  11.976  17.844  0.00  0.00    +0.000 A 
ATOM      8  C   UNL     1      -4.006  12.154  18.910  0.00  0.00    +0.000 A 
ATOM      9  C   UNL     1      -2.663  11.687  18.866  0.00  0.00    +0.000 A 
ATOM     10  C   UNL     1      -1.580  12.061  19.760  0.00  0.00    +0.000 A 
ATOM     11  C   UNL     1      -0.336  11.286  19.654  0.00  0.00    +0.000 A 
ENDROOT
BRANCH  10  12
ATOM     12  C   UNL     1      -1.792  13.226  20.751  0.00  0.00    +0.000 A 
ATOM     13  C   UNL     1      -1.511  14.530  20.300  0.00  0.00    +0.000 A 
ATOM     14  C   UNL     1      -1.779  15.672  21.051  0.00  0.00    +0.000 A 
ATOM     15  F   UNL     1      -1.641  16.870  20.460  0.00  0.00    +0.000 F 
ATOM     16  C   UNL     1      -2.168  15.588  22.372  0.00  0.00    +0.000 A 
ATOM     17  C   UNL     1      -2.370  14.329  22.944  0.00  0.00    +0.000 A 
ATOM     18  C   UNL     1      -2.222  13.136  22.137  0.00  0.00    +0.000 A 
ATOM     19  C   UNL     1      -2.619  11.830  22.817  0.00  0.00    +0.000 C 
ATOM     20  C   UNL     1      -2.682  14.272  24.430  0.00  0.00    +0.000 C 
ATOM     21  C   UNL     1      -3.052  15.623  25.024  0.00  0.00    +0.000 C 
ATOM     22  C   UNL     1      -2.147  16.685  24.443  0.00  0.00    +0.000 C 
ATOM     23  O   UNL     1      -2.331  16.777  23.033  0.00  0.00    +0.000 OA
ENDBRANCH  10  12
BRANCH  11  24
ATOM     24  C   UNL     1       0.875  11.402  20.631  0.00  0.00    +0.000 C 
BRANCH  24  25
ATOM     25  C   UNL     1       1.651  12.737  20.479  0.00  0.00    +0.000 C 
ATOM     26  O   UNL     1       2.090  13.431  21.381  0.00  0.00    +0.000 OA
BRANCH  25  27
ATOM     27  O   UNL     1       1.808  13.148  19.174  0.00  0.00    +0.000 OA
ATOM     28  H   UNL     1       2.713  13.437  18.946  0.00  0.00    +0.000 HD
ENDBRANCH  25  27
ENDBRANCH  24  25
BRANCH  24  29
ATOM     29  O   UNL     1       0.474  10.967  21.929  0.00  0.00    +0.000 OA
BRANCH  29  30
ATOM     30  C   UNL     1       0.455   9.555  22.238  0.00  0.00    +0.000 C 
ATOM     31  C   UNL     1       1.787   8.874  21.903  0.00  0.00    +0.000 C 
ATOM     32  C   UNL     1       0.253   9.475  23.762  0.00  0.00    +0.000 C 
ATOM     33  C   UNL     1      -0.691   8.753  21.595  0.00  0.00    +0.000 C 
ENDBRANCH  29  30
ENDBRANCH  24  29
ENDBRANCH  11  24
TORSDOF 6
ENDMDL
MODEL 3
REMARK VINA RESULT:      -6.4      1.287      2.624
REMARK  Name = 
REMARK  11 active torsions:
REMARK  status: ('A' for Active; 'I' for Inactive)
REMARK    1  A    between atoms: C_1  and  C_2
REMARK    2  A    between atoms: C_10  and  C_11
REMARK    3  A    between atoms: C_17  and  C_18
REMARK    4  A    between atoms: C_23  and  C_24
REMARK    5  A    between atoms: C_24  and  O_25
REMARK    6  A    between atoms: C_24  and  C_30
REMARK    7  A    between atoms: O_25  and  C_26
REMARK    8  A    between atoms: C_26  and  C_27
REMARK    9  A    between atoms: C_26  and  C_28
REMARK   10  A    between atoms: C_26  and  C_29
REMARK   11  A    between atoms: C_30  and  O_32
REMARK                            x       y       z     vdW  Elec       q    Type
REMARK                         _______ _______ _______ _____ _____    ______ ____
ROOT
ATOM      1  C   UNL     1       0.215  10.325  18.511  0.00  0.00    +0.000 C 
ATOM      2  C   UNL     1      -1.039  11.041  18.941  0.00  0.00    +0.000 A 
ATOM      3  N   UNL     1      -1.983  10.935  17.985  0.00  0.00    +0.000 NA
ATOM      4  C   UNL     1      -3.175  11.471  18.157  0.00  0.00    +0.000 A 
ATOM      5  C   UNL     1      -4.036  11.367  17.071  0.00  0.00    +0.000 A 
ATOM      6  C   UNL     1      -5.302  11.924  17.086  0.00  0.00    +0.000 A 
ATOM      7  C   UNL     1      -5.763  12.481  18.261  0.00  0.00    +0.000 A 
ATOM      8  C   UNL     1      -4.935  12.500  19.391  0.00  0.00    +0.000 A 
ATOM      9  C   UNL     1      -3.561  12.137  19.335  0.00  0.00    +0.000 A 
ATOM     10  C   UNL     1      -2.549  12.393  20.346  0.00  0.00    +0.000 A 
ATOM     11  C   UNL     1      -1.248  11.734  20.164  0.00  0.00    +0.000 A 
ENDROOT
BRANCH  10  12
ATOM     12  C   UNL     1      -2.889  13.323  21.531  0.00  0.00    +0.000 A 
ATOM     13  C   UNL     1      -3.373  12.729  22.713  0.00  0.00    +0.000 A 
ATOM     14  C   UNL     1      -3.596  13.441  23.889  0.00  0.00    +0.000 A 
ATOM     15  F   UNL     1      -3.885  12.754  25.005  0.00  0.00    +0.000 F 
ATOM     16  C   UNL     1      -3.534  14.820  23.917  0.00  0.00    +0.000 A 
ATOM     17  C   UNL     1      -3.165  15.509  22.758  0.00  0.00    +0.000 A 
ATOM     18  C   UNL     1      -2.803  14.774  21.564  0.00  0.00    +0.000 A 
ATOM     19  C   UNL     1      -2.267  15.616  20.412  0.00  0.00    +0.000 C 
ATOM     20  C   UNL     1      -3.223  17.027  22.792  0.00  0.00    +0.000 C 
ATOM     21  C   UNL     1      -3.366  17.596  24.196  0.00  0.00    +0.000 C 
ATOM     22  C   UNL     1      -4.340  16.747  24.979  0.00  0.00    +0.000 C 
ATOM     23  O   UNL     1      -3.846  15.417  25.110  0.00  0.00    +0.000 OA
ENDBRANCH  10  12
BRANCH  11  24
ATOM     24  C   UNL     1      -0.093  11.730  21.214  0.00  0.00    +0.000 C 
BRANCH  24  25
ATOM     25  C   UNL     1      -0.071  10.448  22.086  0.00  0.00    +0.000 C 
ATOM     26  O   UNL     1       0.202   9.319  21.715  0.00  0.00    +0.000 OA
BRANCH  25  27
ATOM     27  O   UNL     1      -0.433  10.658  23.399  0.00  0.00    +0.000 OA
ATOM     28  H   UNL     1      -1.227  11.214  23.517  0.00  0.00    +0.000 HD
ENDBRANCH  25  27
ENDBRANCH  24  25
BRANCH  24  29
ATOM     29  O   UNL     1       1.109  12.177  20.590  0.00  0.00    +0.000 OA
BRANCH  29  30
ATOM     30  C   UNL     1       1.503  13.563  20.699  0.00  0.00    +0.000 C 
ATOM     31  C   UNL     1       3.023  13.722  20.813  0.00  0.00    +0.000 C 
ATOM     32  C   UNL     1       1.056  14.217  19.379  0.00  0.00    +0.000 C 
ATOM     33  C   UNL     1       0.831  14.354  21.836  0.00  0.00    +0.000 C 
ENDBRANCH  29  30
ENDBRANCH  24  29
ENDBRANCH  11  24
TORSDOF 6
ENDMDL
MODEL 4
REMARK VINA RESULT:      -6.4      2.550      4.358
REMARK  Name = 
REMARK  11 active torsions:
REMARK  status: ('A' for Active; 'I' for Inactive)
REMARK    1  A    between atoms: C_1  and  C_2
REMARK    2  A    between atoms: C_10  and  C_11
REMARK    3  A    between atoms: C_17  and  C_18
REMARK    4  A    between atoms: C_23  and  C_24
REMARK    5  A    between atoms: C_24  and  O_25
REMARK    6  A    between atoms: C_24  and  C_30
REMARK    7  A    between atoms: O_25  and  C_26
REMARK    8  A    between atoms: C_26  and  C_27
REMARK    9  A    between atoms: C_26  and  C_28
REMARK   10  A    between atoms: C_26  and  C_29
REMARK   11  A    between atoms: C_30  and  O_32
REMARK                            x       y       z     vdW  Elec       q    Type
REMARK                         _______ _______ _______ _____ _____    ______ ____
ROOT
ATOM      1  C   UNL     1       2.017  11.312  18.128  0.00  0.00    +0.000 C 
ATOM      2  C   UNL     1       1.050  12.291  18.742  0.00  0.00    +0.000 A 
ATOM      3  N   UNL     1       1.538  13.543  18.649  0.00  0.00    +0.000 NA
ATOM      4  C   UNL     1       0.846  14.568  19.103  0.00  0.00    +0.000 A 
ATOM      5  C   UNL     1       1.486  15.799  19.027  0.00  0.00    +0.000 A 
ATOM      6  C   UNL     1       0.903  16.957  19.510  0.00  0.00    +0.000 A 
ATOM      7  C   UNL     1      -0.400  16.902  19.957  0.00  0.00    +0.000 A 
ATOM      8  C   UNL     1      -1.086  15.681  19.945  0.00  0.00    +0.000 A 
ATOM      9  C   UNL     1      -0.439  14.446  19.664  0.00  0.00    +0.000 A 
ATOM     10  C   UNL     1      -0.963  13.112  19.906  0.00  0.00    +0.000 A 
ATOM     11  C   UNL     1      -0.205  11.990  19.336  0.00  0.00    +0.000 A 
ENDROOT
BRANCH  10  12
ATOM     12  C   UNL     1      -2.258  12.951  20.731  0.00  0.00    +0.000 A 
ATOM     13  C   UNL     1      -3.482  12.934  20.035  0.00  0.00    +0.000 A 
ATOM     14  C   UNL     1      -4.705  12.672  20.647  0.00  0.00    +0.000 A 
ATOM     15  F   UNL     1      -5.784  12.502  19.867  0.00  0.00    +0.000 F 
ATOM     16  C   UNL     1      -4.819  12.594  22.020  0.00  0.00    +0.000 A 
ATOM     17  C   UNL     1      -3.669  12.707  22.807  0.00  0.00    +0.000 A 
ATOM     18  C   UNL     1      -2.373  12.850  22.177  0.00  0.00    +0.000 A 
ATOM     19  C   UNL     1      -1.177  12.805  23.120  0.00  0.00    +0.000 C 
ATOM     20  C   UNL     1      -3.848  12.736  24.315  0.00  0.00    +0.000 C 
ATOM     21  C   UNL     1      -5.236  12.310  24.770  0.00  0.00    +0.000 C 
ATOM     22  C   UNL     1      -6.267  12.903  23.837  0.00  0.00    +0.000 C 
ATOM     23  O   UNL     1      -6.083  12.406  22.514  0.00  0.00    +0.000 OA
ENDBRANCH  10  12
BRANCH  11  24
ATOM     24  C   UNL     1      -0.683  10.504  19.324  0.00  0.00    +0.000 C 
BRANCH  24  25
ATOM     25  C   UNL     1      -1.602  10.172  18.120  0.00  0.00    +0.000 C 
ATOM     26  O   UNL     1      -2.820  10.246  18.090  0.00  0.00    +0.000 OA
BRANCH  25  27
ATOM     27  O   UNL     1      -0.927   9.725  17.006  0.00  0.00    +0.000 OA
ATOM     28  H   UNL     1      -0.662  10.430  16.382  0.00  0.00    +0.000 HD
ENDBRANCH  25  27
ENDBRANCH  24  25
BRANCH  24  29
ATOM     29  O   UNL     1       0.423   9.654  19.619  0.00  0.00    +0.000 OA
BRANCH  29  30
ATOM     30  C   UNL     1       0.581   9.116  20.952  0.00  0.00    +0.000 C 
ATOM     31  C   UNL     1      -0.736   8.563  21.508  0.00  0.00    +0.000 C 
ATOM     32  C   UNL     1       1.563   7.941  20.802  0.00  0.00    +0.000 C 
ATOM     33  C   UNL     1       1.193  10.079  21.985  0.00  0.00    +0.000 C 
ENDBRANCH  29  30
ENDBRANCH  24  29
ENDBRANCH  11  24
TORSDOF 6
ENDMDL
MODEL 5
REMARK VINA RESULT:      -6.4      2.389      4.602
REMARK  Name = 
REMARK  11 active torsions:
REMARK  status: ('A' for Active; 'I' for Inactive)
REMARK    1  A    between atoms: C_1  and  C_2
REMARK    2  A    between atoms: C_10  and  C_11
REMARK    3  A    between atoms: C_17  and  C_18
REMARK    4  A    between atoms: C_23  and  C_24
REMARK    5  A    between atoms: C_24  and  O_25
REMARK    6  A    between atoms: C_24  and  C_30
REMARK    7  A    between atoms: O_25  and  C_26
REMARK    8  A    between atoms: C_26  and  C_27
REMARK    9  A    between atoms: C_26  and  C_28
REMARK   10  A    between atoms: C_26  and  C_29
REMARK   11  A    between atoms: C_30  and  O_32
REMARK                            x       y       z     vdW  Elec       q    Type
REMARK                         _______ _______ _______ _____ _____    ______ ____
ROOT
ATOM      1  C   UNL     1       2.185  11.790  18.283  0.00  0.00    +0.000 C 
ATOM      2  C   UNL     1       1.128  12.704  18.848  0.00  0.00    +0.000 A 
ATOM      3  N   UNL     1       1.496  13.990  18.689  0.00  0.00    +0.000 NA
ATOM      4  C   UNL     1       0.708  14.967  19.092  0.00  0.00    +0.000 A 
ATOM      5  C   UNL     1       1.228  16.248  18.949  0.00  0.00    +0.000 A 
ATOM      6  C   UNL     1       0.538  17.368  19.374  0.00  0.00    +0.000 A 
ATOM      7  C   UNL     1      -0.756  17.213  19.828  0.00  0.00    +0.000 A 
ATOM      8  C   UNL     1      -1.323  15.933  19.882  0.00  0.00    +0.000 A 
ATOM      9  C   UNL     1      -0.560  14.752  19.663  0.00  0.00    +0.000 A 
ATOM     10  C   UNL     1      -0.955  13.389  19.975  0.00  0.00    +0.000 A 
ATOM     11  C   UNL     1      -0.093  12.316  19.461  0.00  0.00    +0.000 A 
ENDROOT
BRANCH  10  12
ATOM     12  C   UNL     1      -2.230  13.149  20.813  0.00  0.00    +0.000 A 
ATOM     13  C   UNL     1      -3.448  12.992  20.123  0.00  0.00    +0.000 A 
ATOM     14  C   UNL     1      -4.642  12.648  20.751  0.00  0.00    +0.000 A 
ATOM     15  F   UNL     1      -5.702  12.348  19.984  0.00  0.00    +0.000 F 
ATOM     16  C   UNL     1      -4.748  12.620  22.127  0.00  0.00    +0.000 A 
ATOM     17  C   UNL     1      -3.613  12.870  22.903  0.00  0.00    +0.000 A 
ATOM     18  C   UNL     1      -2.335  13.101  22.262  0.00  0.00    +0.000 A 
ATOM     19  C   UNL     1      -1.139  13.204  23.201  0.00  0.00    +0.000 C 
ATOM     20  C   UNL     1      -3.793  12.949  24.410  0.00  0.00    +0.000 C 
ATOM     21  C   UNL     1      -5.137  12.420  24.888  0.00  0.00    +0.000 C 
ATOM     22  C   UNL     1      -6.217  12.876  23.935  0.00  0.00    +0.000 C 
ATOM     23  O   UNL     1      -5.990  12.341  22.634  0.00  0.00    +0.000 OA
ENDBRANCH  10  12
BRANCH  11  24
ATOM     24  C   UNL     1      -0.427  10.793  19.529  0.00  0.00    +0.000 C 
BRANCH  24  25
ATOM     25  C   UNL     1       0.125  10.106  20.805  0.00  0.00    +0.000 C 
ATOM     26  O   UNL     1      -0.179   9.004  21.229  0.00  0.00    +0.000 OA
BRANCH  25  27
ATOM     27  O   UNL     1       1.025  10.875  21.510  0.00  0.00    +0.000 OA
ATOM     28  H   UNL     1       1.146  11.780  21.161  0.00  0.00    +0.000 HD
ENDBRANCH  25  27
ENDBRANCH  24  25
BRANCH  24  29
ATOM     29  O   UNL     1      -1.790  10.594  19.158  0.00  0.00    +0.000 OA
BRANCH  29  30
ATOM     30  C   UNL     1      -2.126  10.312  17.780  0.00  0.00    +0.000 C 
ATOM     31  C   UNL     1      -2.282  11.592  16.952  0.00  0.00    +0.000 C 
ATOM     32  C   UNL     1      -0.924   9.530  17.221  0.00  0.00    +0.000 C 
ATOM     33  C   UNL     1      -3.368   9.428  17.571  0.00  0.00    +0.000 C 
ENDBRANCH  29  30
ENDBRANCH  24  29
ENDBRANCH  11  24
TORSDOF 6
ENDMDL
MODEL 6
REMARK VINA RESULT:      -6.1      1.682      2.446
REMARK  Name = 
REMARK  11 active torsions:
REMARK  status: ('A' for Active; 'I' for Inactive)
REMARK    1  A    between atoms: C_1  and  C_2
REMARK    2  A    between atoms: C_10  and  C_11
REMARK    3  A    between atoms: C_17  and  C_18
REMARK    4  A    between atoms: C_23  and  C_24
REMARK    5  A    between atoms: C_24  and  O_25
REMARK    6  A    between atoms: C_24  and  C_30
REMARK    7  A    between atoms: O_25  and  C_26
REMARK    8  A    between atoms: C_26  and  C_27
REMARK    9  A    between atoms: C_26  and  C_28
REMARK   10  A    between atoms: C_26  and  C_29
REMARK   11  A    between atoms: C_30  and  O_32
REMARK                            x       y       z     vdW  Elec       q    Type
REMARK                         _______ _______ _______ _____ _____    ______ ____
ROOT
ATOM      1  C   UNL     1      -1.215   9.653  17.638  0.00  0.00    +0.000 C 
ATOM      2  C   UNL     1      -2.050  10.683  18.352  0.00  0.00    +0.000 A 
ATOM      3  N   UNL     1      -3.285  10.729  17.817  0.00  0.00    +0.000 NA
ATOM      4  C   UNL     1      -4.197  11.549  18.302  0.00  0.00    +0.000 A 
ATOM      5  C   UNL     1      -5.406  11.567  17.617  0.00  0.00    +0.000 A 
ATOM      6  C   UNL     1      -6.439  12.412  17.981  0.00  0.00    +0.000 A 
ATOM      7  C   UNL     1      -6.306  13.158  19.133  0.00  0.00    +0.000 A 
ATOM      8  C   UNL     1      -5.126  13.071  19.883  0.00  0.00    +0.000 A 
ATOM      9  C   UNL     1      -3.973  12.383  19.413  0.00  0.00    +0.000 A 
ATOM     10  C   UNL     1      -2.626  12.470  19.951  0.00  0.00    +0.000 A 
ATOM     11  C   UNL     1      -1.644  11.505  19.438  0.00  0.00    +0.000 A 
ENDROOT
BRANCH  10  12
ATOM     12  C   UNL     1      -2.307  13.549  21.009  0.00  0.00    +0.000 A 
ATOM     13  C   UNL     1      -1.738  14.757  20.563  0.00  0.00    +0.000 A 
ATOM     14  C   UNL     1      -1.520  15.852  21.395  0.00  0.00    +0.000 A 
ATOM     15  F   UNL     1      -1.141  17.012  20.836  0.00  0.00    +0.000 F 
ATOM     16  C   UNL     1      -1.679  15.758  22.763  0.00  0.00    +0.000 A 
ATOM     17  C   UNL     1      -2.141  14.559  23.314  0.00  0.00    +0.000 A 
ATOM     18  C   UNL     1      -2.495  13.454  22.448  0.00  0.00    +0.000 A 
ATOM     19  C   UNL     1      -3.134  12.256  23.140  0.00  0.00    +0.000 C 
ATOM     20  C   UNL     1      -2.190  14.453  24.829  0.00  0.00    +0.000 C 
ATOM     21  C   UNL     1      -2.035  15.792  25.535  0.00  0.00    +0.000 C 
ATOM     22  C   UNL     1      -0.973  16.604  24.831  0.00  0.00    +0.000 C 
ATOM     23  O   UNL     1      -1.366  16.877  23.488  0.00  0.00    +0.000 OA
ENDBRANCH  10  12
BRANCH  11  24
ATOM     24  C   UNL     1      -0.203  11.309  20.005  0.00  0.00    +0.000 C 
BRANCH  24  25
ATOM     25  C   UNL     1       0.796  12.386  19.508  0.00  0.00    +0.000 C 
ATOM     26  O   UNL     1       1.479  13.122  20.200  0.00  0.00    +0.000 OA
BRANCH  25  27
ATOM     27  O   UNL     1       0.858  12.501  18.136  0.00  0.00    +0.000 OA
ATOM     28  H   UNL     1       1.224  11.719  17.680  0.00  0.00    +0.000 HD
ENDBRANCH  25  27
ENDBRANCH  24  25
BRANCH  24  29
ATOM     29  O   UNL     1      -0.283  11.015  21.399  0.00  0.00    +0.000 OA
BRANCH  29  30
ATOM     30  C   UNL     1       0.101   9.708  21.880  0.00  0.00    +0.000 C 
ATOM     31  C   UNL     1       1.608   9.464  21.744  0.00  0.00    +0.000 C 
ATOM     32  C   UNL     1      -0.245   9.709  23.380  0.00  0.00    +0.000 C 
ATOM     33  C   UNL     1      -0.655   8.523  21.251  0.00  0.00    +0.000 C 
ENDBRANCH  29  30
ENDBRANCH  24  29
ENDBRANCH  11  24
TORSDOF 6
ENDMDL
MODEL 7
REMARK VINA RESULT:      -6.1      1.500      3.054
REMARK  Name = 
REMARK  11 active torsions:
REMARK  status: ('A' for Active; 'I' for Inactive)
REMARK    1  A    between atoms: C_1  and  C_2
REMARK    2  A    between atoms: C_10  and  C_11
REMARK    3  A    between atoms: C_17  and  C_18
REMARK    4  A    between atoms: C_23  and  C_24
REMARK    5  A    between atoms: C_24  and  O_25
REMARK    6  A    between atoms: C_24  and  C_30
REMARK    7  A    between atoms: O_25  and  C_26
REMARK    8  A    between atoms: C_26  and  C_27
REMARK    9  A    between atoms: C_26  and  C_28
REMARK   10  A    between atoms: C_26  and  C_29
REMARK   11  A    between atoms: C_30  and  O_32
REMARK                            x       y       z     vdW  Elec       q    Type
REMARK                         _______ _______ _______ _____ _____    ______ ____
ROOT
ATOM      1  C   UNL     1       0.770   9.663  18.592  0.00  0.00    +0.000 C 
ATOM      2  C   UNL     1      -0.458  10.502  18.831  0.00  0.00    +0.000 A 
ATOM      3  N   UNL     1      -1.384  10.246  17.888  0.00  0.00    +0.000 NA
ATOM      4  C   UNL     1      -2.554  10.854  17.913  0.00  0.00    +0.000 A 
ATOM      5  C   UNL     1      -3.394  10.570  16.843  0.00  0.00    +0.000 A 
ATOM      6  C   UNL     1      -4.633  11.172  16.708  0.00  0.00    +0.000 A 
ATOM      7  C   UNL     1      -5.093  11.971  17.734  0.00  0.00    +0.000 A 
ATOM      8  C   UNL     1      -4.289  12.183  18.862  0.00  0.00    +0.000 A 
ATOM      9  C   UNL     1      -2.933  11.758  18.922  0.00  0.00    +0.000 A 
ATOM     10  C   UNL     1      -1.932  12.170  19.892  0.00  0.00    +0.000 A 
ATOM     11  C   UNL     1      -0.660  11.434  19.885  0.00  0.00    +0.000 A 
ENDROOT
BRANCH  10  12
ATOM     12  C   UNL     1      -2.254  13.332  20.857  0.00  0.00    +0.000 A 
ATOM     13  C   UNL     1      -2.254  14.639  20.332  0.00  0.00    +0.000 A 
ATOM     14  C   UNL     1      -2.649  15.756  21.064  0.00  0.00    +0.000 A 
ATOM     15  F   UNL     1      -2.784  16.925  20.419  0.00  0.00    +0.000 F 
ATOM     16  C   UNL     1      -2.890  15.677  22.421  0.00  0.00    +0.000 A 
ATOM     17  C   UNL     1      -2.810  14.434  23.056  0.00  0.00    +0.000 A 
ATOM     18  C   UNL     1      -2.528  13.243  22.282  0.00  0.00    +0.000 A 
ATOM     19  C   UNL     1      -2.619  11.927  23.045  0.00  0.00    +0.000 C 
ATOM     20  C   UNL     1      -2.964  14.404  24.567  0.00  0.00    +0.000 C 
ATOM     21  C   UNL     1      -3.512  15.700  25.146  0.00  0.00    +0.000 C 
ATOM     22  C   UNL     1      -2.870  16.870  24.438  0.00  0.00    +0.000 C 
ATOM     23  O   UNL     1      -3.200  16.853  23.051  0.00  0.00    +0.000 OA
ENDBRANCH  10  12
BRANCH  11  24
ATOM     24  C   UNL     1       0.470  11.593  20.949  0.00  0.00    +0.000 C 
BRANCH  24  25
ATOM     25  C   UNL     1       0.673  10.321  21.812  0.00  0.00    +0.000 C 
ATOM     26  O   UNL     1       1.711   9.957  22.341  0.00  0.00    +0.000 OA
BRANCH  25  27
ATOM     27  O   UNL     1      -0.457   9.544  21.940  0.00  0.00    +0.000 OA
ATOM     28  H   UNL     1      -0.394   8.664  21.518  0.00  0.00    +0.000 HD
ENDBRANCH  25  27
ENDBRANCH  24  25
BRANCH  24  29
ATOM     29  O   UNL     1       1.599  12.220  20.344  0.00  0.00    +0.000 OA
BRANCH  29  30
ATOM     30  C   UNL     1       1.732  13.659  20.389  0.00  0.00    +0.000 C 
ATOM     31  C   UNL     1       1.106  14.255  21.655  0.00  0.00    +0.000 C 
ATOM     32  C   UNL     1       3.247  13.926  20.438  0.00  0.00    +0.000 C 
ATOM     33  C   UNL     1       1.187  14.410  19.161  0.00  0.00    +0.000 C 
ENDBRANCH  29  30
ENDBRANCH  24  29
ENDBRANCH  11  24
TORSDOF 6
ENDMDL
MODEL 8
REMARK VINA RESULT:      -6.0      1.784      3.281
REMARK  Name = 
REMARK  11 active torsions:
REMARK  status: ('A' for Active; 'I' for Inactive)
REMARK    1  A    between atoms: C_1  and  C_2
REMARK    2  A    between atoms: C_10  and  C_11
REMARK    3  A    between atoms: C_17  and  C_18
REMARK    4  A    between atoms: C_23  and  C_24
REMARK    5  A    between atoms: C_24  and  O_25
REMARK    6  A    between atoms: C_24  and  C_30
REMARK    7  A    between atoms: O_25  and  C_26
REMARK    8  A    between atoms: C_26  and  C_27
REMARK    9  A    between atoms: C_26  and  C_28
REMARK   10  A    between atoms: C_26  and  C_29
REMARK   11  A    between atoms: C_30  and  O_32
REMARK                            x       y       z     vdW  Elec       q    Type
REMARK                         _______ _______ _______ _____ _____    ______ ____
ROOT
ATOM      1  C   UNL     1      -0.784   9.920  17.976  0.00  0.00    +0.000 C 
ATOM      2  C   UNL     1      -1.797  10.861  18.576  0.00  0.00    +0.000 A 
ATOM      3  N   UNL     1      -2.969  10.758  17.919  0.00  0.00    +0.000 NA
ATOM      4  C   UNL     1      -4.011  11.477  18.289  0.00  0.00    +0.000 A 
ATOM      5  C   UNL     1      -5.138  11.347  17.488  0.00  0.00    +0.000 A 
ATOM      6  C   UNL     1      -6.290  12.076  17.723  0.00  0.00    +0.000 A 
ATOM      7  C   UNL     1      -6.358  12.851  18.862  0.00  0.00    +0.000 A 
ATOM      8  C   UNL     1      -5.259  12.909  19.728  0.00  0.00    +0.000 A 
ATOM      9  C   UNL     1      -3.995  12.349  19.394  0.00  0.00    +0.000 A 
ATOM     10  C   UNL     1      -2.727  12.596  20.060  0.00  0.00    +0.000 A 
ATOM     11  C   UNL     1      -1.598  11.740  19.674  0.00  0.00    +0.000 A 
ENDROOT
BRANCH  10  12
ATOM     12  C   UNL     1      -2.640  13.722  21.114  0.00  0.00    +0.000 A 
ATOM     13  C   UNL     1      -2.271  15.007  20.673  0.00  0.00    +0.000 A 
ATOM     14  C   UNL     1      -2.277  16.129  21.498  0.00  0.00    +0.000 A 
ATOM     15  F   UNL     1      -2.083  17.333  20.937  0.00  0.00    +0.000 F 
ATOM     16  C   UNL     1      -2.469  16.018  22.860  0.00  0.00    +0.000 A 
ATOM     17  C   UNL     1      -2.737  14.761  23.410  0.00  0.00    +0.000 A 
ATOM     18  C   UNL     1      -2.862  13.605  22.547  0.00  0.00    +0.000 A 
ATOM     19  C   UNL     1      -3.310  12.320  23.231  0.00  0.00    +0.000 C 
ATOM     20  C   UNL     1      -2.824  14.658  24.924  0.00  0.00    +0.000 C 
ATOM     21  C   UNL     1      -2.928  16.008  25.618  0.00  0.00    +0.000 C 
ATOM     22  C   UNL     1      -1.997  16.987  24.941  0.00  0.00    +0.000 C 
ATOM     23  O   UNL     1      -2.380  17.179  23.582  0.00  0.00    +0.000 OA
ENDBRANCH  10  12
BRANCH  11  24
ATOM     24  C   UNL     1      -0.209  11.718  20.387  0.00  0.00    +0.000 C 
BRANCH  24  25
ATOM     25  C   UNL     1      -0.110  10.630  21.488  0.00  0.00    +0.000 C 
ATOM     26  O   UNL     1      -0.069   9.422  21.317  0.00  0.00    +0.000 OA
BRANCH  25  27
ATOM     27  O   UNL     1      -0.098  11.131  22.771  0.00  0.00    +0.000 OA
ATOM     28  H   UNL     1       0.540  10.697  23.370  0.00  0.00    +0.000 HD
ENDBRANCH  25  27
ENDBRANCH  24  25
BRANCH  24  29
ATOM     29  O   UNL     1       0.822  11.823  19.407  0.00  0.00    +0.000 OA
BRANCH  29  30
ATOM     30  C   UNL     1       1.574  13.051  19.285  0.00  0.00    +0.000 C 
ATOM     31  C   UNL     1       2.326  13.396  20.576  0.00  0.00    +0.000 C 
ATOM     32  C   UNL     1       2.618  12.781  18.187  0.00  0.00    +0.000 C 
ATOM     33  C   UNL     1       0.765  14.280  18.836  0.00  0.00    +0.000 C 
ENDBRANCH  29  30
ENDBRANCH  24  29
ENDBRANCH  11  24
TORSDOF 6
ENDMDL
MODEL 9
REMARK VINA RESULT:      -6.0      2.078      3.605
REMARK  Name = 
REMARK  11 active torsions:
REMARK  status: ('A' for Active; 'I' for Inactive)
REMARK    1  A    between atoms: C_1  and  C_2
REMARK    2  A    between atoms: C_10  and  C_11
REMARK    3  A    between atoms: C_17  and  C_18
REMARK    4  A    between atoms: C_23  and  C_24
REMARK    5  A    between atoms: C_24  and  O_25
REMARK    6  A    between atoms: C_24  and  C_30
REMARK    7  A    between atoms: O_25  and  C_26
REMARK    8  A    between atoms: C_26  and  C_27
REMARK    9  A    between atoms: C_26  and  C_28
REMARK   10  A    between atoms: C_26  and  C_29
REMARK   11  A    between atoms: C_30  and  O_32
REMARK                            x       y       z     vdW  Elec       q    Type
REMARK                         _______ _______ _______ _____ _____    ______ ____
ROOT
ATOM      1  C   UNL     1      -1.604  10.219  17.426  0.00  0.00    +0.000 C 
ATOM      2  C   UNL     1      -2.531  11.047  18.278  0.00  0.00    +0.000 A 
ATOM      3  N   UNL     1      -3.807  10.859  17.889  0.00  0.00    +0.000 NA
ATOM      4  C   UNL     1      -4.795  11.470  18.513  0.00  0.00    +0.000 A 
ATOM      5  C   UNL     1      -6.058  11.264  17.971  0.00  0.00    +0.000 A 
ATOM      6  C   UNL     1      -7.184  11.879  18.488  0.00  0.00    +0.000 A 
ATOM      7  C   UNL     1      -7.060  12.610  19.651  0.00  0.00    +0.000 A 
ATOM      8  C   UNL     1      -5.805  12.740  20.258  0.00  0.00    +0.000 A 
ATOM      9  C   UNL     1      -4.605  12.306  19.628  0.00  0.00    +0.000 A 
ATOM     10  C   UNL     1      -3.245  12.646  20.013  0.00  0.00    +0.000 A 
ATOM     11  C   UNL     1      -2.164  11.907  19.348  0.00  0.00    +0.000 A 
ENDROOT
BRANCH  10  12
ATOM     12  C   UNL     1      -3.017  13.742  21.077  0.00  0.00    +0.000 A 
ATOM     13  C   UNL     1      -3.149  15.085  20.674  0.00  0.00    +0.000 A 
ATOM     14  C   UNL     1      -3.092  16.157  21.561  0.00  0.00    +0.000 A 
ATOM     15  F   UNL     1      -3.407  17.379  21.103  0.00  0.00    +0.000 F 
ATOM     16  C   UNL     1      -2.714  15.982  22.877  0.00  0.00    +0.000 A 
ATOM     17  C   UNL     1      -2.458  14.691  23.346  0.00  0.00    +0.000 A 
ATOM     18  C   UNL     1      -2.639  13.553  22.469  0.00  0.00    +0.000 A 
ATOM     19  C   UNL     1      -2.485  12.186  23.125  0.00  0.00    +0.000 C 
ATOM     20  C   UNL     1      -1.930  14.548  24.763  0.00  0.00    +0.000 C 
ATOM     21  C   UNL     1      -2.064  15.818  25.590  0.00  0.00    +0.000 C 
ATOM     22  C   UNL     1      -1.713  17.010  24.730  0.00  0.00    +0.000 C 
ATOM     23  O   UNL     1      -2.622  17.118  23.637  0.00  0.00    +0.000 OA
ENDBRANCH  10  12
BRANCH  11  24
ATOM     24  C   UNL     1      -0.655  11.987  19.738  0.00  0.00    +0.000 C 
BRANCH  24  25
ATOM     25  C   UNL     1      -0.052  10.610  20.119  0.00  0.00    +0.000 C 
ATOM     26  O   UNL     1      -0.508   9.812  20.922  0.00  0.00    +0.000 OA
BRANCH  25  27
ATOM     27  O   UNL     1       1.132  10.320  19.477  0.00  0.00    +0.000 OA
ATOM     28  H   UNL     1       1.250  10.773  18.619  0.00  0.00    +0.000 HD
ENDBRANCH  25  27
ENDBRANCH  24  25
BRANCH  24  29
ATOM     29  O   UNL     1       0.027  12.818  18.801  0.00  0.00    +0.000 OA
BRANCH  29  30
ATOM     30  C   UNL     1       0.595  14.075  19.236  0.00  0.00    +0.000 C 
ATOM     31  C   UNL     1       0.684  14.168  20.763  0.00  0.00    +0.000 C 
ATOM     32  C   UNL     1       2.029  14.088  18.677  0.00  0.00    +0.000 C 
ATOM     33  C   UNL     1      -0.103  15.336  18.698  0.00  0.00    +0.000 C 
ENDBRANCH  29  30
ENDBRANCH  24  29
ENDBRANCH  11  24
TORSDOF 6
ENDMDL
