MODEL 1
REMARK VINA RESULT:      -7.7      0.000      0.000
REMARK  Name = 
REMARK  7 active torsions:
REMARK  status: ('A' for Active; 'I' for Inactive)
REMARK    1  A    between atoms: C_1  and  C_2
REMARK    2  A    between atoms: C_2  and  C_3
REMARK    3  A    between atoms: C_7  and  C_8
REMARK    4  A    between atoms: C_9  and  O_10
REMARK    5  A    between atoms: O_10  and  C_11
REMARK    6  A    between atoms: C_11  and  C_13
REMARK    7  A    between atoms: C_13  and  N_14
REMARK                            x       y       z     vdW  Elec       q    Type
REMARK                         _______ _______ _______ _____ _____    ______ ____
ROOT
ATOM      1  O   UNL     1       5.069   5.387  19.439  0.00  0.00    +0.000 OA
ENDROOT
BRANCH   1  10
ATOM      2  C   UNL     1       1.014   2.362  19.504  0.00  0.00    +0.000 C 
ATOM      3  C   UNL     1       2.147   3.154  18.821  0.00  0.00    +0.000 C 
ATOM      4  C   UNL     1       2.454   2.405  17.507  0.00  0.00    +0.000 C 
ATOM      5  C   UNL     1       1.821   4.658  18.640  0.00  0.00    +0.000 C 
ATOM      6  C   UNL     1       1.733   5.194  20.091  0.00  0.00    +0.000 C 
ATOM      7  C   UNL     1       2.778   4.349  20.839  0.00  0.00    +0.000 C 
ATOM      8  C   UNL     1       3.395   3.493  19.705  0.00  0.00    +0.000 C 
ATOM      9  C   UNL     1       4.185   2.306  20.222  0.00  0.00    +0.000 C 
ATOM     10  C   UNL     1       4.226   4.436  18.772  0.00  0.00    +0.000 C 
ATOM     11  C   UNL     1       3.120   5.237  18.043  0.00  0.00    +0.000 C 
ENDBRANCH   1  10
BRANCH   1  12
ATOM     12  C   UNL     1       6.416   5.179  19.290  0.00  0.00    +0.000 C 
ATOM     13  O   UNL     1       7.248   5.386  20.158  0.00  0.00    +0.000 OA
BRANCH  12  14
ATOM     14  C   UNL     1       6.675   4.446  17.970  0.00  0.00    +0.000 C 
BRANCH  14  15
ATOM     15  N   UNL     1       7.422   5.198  16.940  0.00  0.00    +0.000 NA
ATOM     16  C   UNL     1       6.999   4.747  15.587  0.00  0.00    +0.000 C 
ATOM     17  C   UNL     1       5.575   5.201  15.165  0.00  0.00    +0.000 C 
ATOM     18  N   UNL     1       5.357   6.646  15.305  0.00  0.00    +0.000 NA
ATOM     19  C   UNL     1       5.783   7.120  16.629  0.00  0.00    +0.000 C 
ATOM     20  C   UNL     1       7.213   6.660  16.994  0.00  0.00    +0.000 C 
ATOM     21  H   UNL     1       4.374   6.865  15.160  0.00  0.00    +0.000 HD
ENDBRANCH  14  15
ENDBRANCH  12  14
ENDBRANCH   1  12
TORSDOF 4
ENDMDL
MODEL 2
REMARK VINA RESULT:      -7.7      0.813      1.151
REMARK  Name = 
REMARK  7 active torsions:
REMARK  status: ('A' for Active; 'I' for Inactive)
REMARK    1  A    between atoms: C_1  and  C_2
REMARK    2  A    between atoms: C_2  and  C_3
REMARK    3  A    between atoms: C_7  and  C_8
REMARK    4  A    between atoms: C_9  and  O_10
REMARK    5  A    between atoms: O_10  and  C_11
REMARK    6  A    between atoms: C_11  and  C_13
REMARK    7  A    between atoms: C_13  and  N_14
REMARK                            x       y       z     vdW  Elec       q    Type
REMARK                         _______ _______ _______ _____ _____    ______ ____
ROOT
ATOM      1  O   UNL     1       5.421   3.988  19.722  0.00  0.00    +0.000 OA
ENDROOT
BRANCH   1  10
ATOM      2  C   UNL     1       0.520   2.846  19.201  0.00  0.00    +0.000 C 
ATOM      3  C   UNL     1       1.785   3.691  18.950  0.00  0.00    +0.000 C 
ATOM      4  C   UNL     1       1.588   4.347  17.567  0.00  0.00    +0.000 C 
ATOM      5  C   UNL     1       2.091   4.690  20.095  0.00  0.00    +0.000 C 
ATOM      6  C   UNL     1       2.414   3.778  21.304  0.00  0.00    +0.000 C 
ATOM      7  C   UNL     1       3.100   2.564  20.653  0.00  0.00    +0.000 C 
ATOM      8  C   UNL     1       3.161   2.971  19.160  0.00  0.00    +0.000 C 
ATOM      9  C   UNL     1       3.445   1.801  18.239  0.00  0.00    +0.000 C 
ATOM     10  C   UNL     1       4.185   4.146  19.011  0.00  0.00    +0.000 C 
ATOM     11  C   UNL     1       3.428   5.327  19.665  0.00  0.00    +0.000 C 
ENDBRANCH   1  10
BRANCH   1  12
ATOM     12  C   UNL     1       6.466   4.739  19.249  0.00  0.00    +0.000 C 
ATOM     13  O   UNL     1       7.186   5.437  19.945  0.00  0.00    +0.000 OA
BRANCH  12  14
ATOM     14  C   UNL     1       6.721   4.391  17.780  0.00  0.00    +0.000 C 
BRANCH  14  15
ATOM     15  N   UNL     1       7.348   5.446  16.957  0.00  0.00    +0.000 NA
ATOM     16  C   UNL     1       7.174   5.124  15.515  0.00  0.00    +0.000 C 
ATOM     17  C   UNL     1       5.726   5.295  14.980  0.00  0.00    +0.000 C 
ATOM     18  N   UNL     1       5.144   6.610  15.276  0.00  0.00    +0.000 NA
ATOM     19  C   UNL     1       5.318   6.959  16.693  0.00  0.00    +0.000 C 
ATOM     20  C   UNL     1       6.778   6.793  17.172  0.00  0.00    +0.000 C 
ATOM     21  H   UNL     1       4.154   6.615  15.039  0.00  0.00    +0.000 HD
ENDBRANCH  14  15
ENDBRANCH  12  14
ENDBRANCH   1  12
TORSDOF 4
ENDMDL
MODEL 3
REMARK VINA RESULT:      -7.1      0.800      1.919
REMARK  Name = 
REMARK  7 active torsions:
REMARK  status: ('A' for Active; 'I' for Inactive)
REMARK    1  A    between atoms: C_1  and  C_2
REMARK    2  A    between atoms: C_2  and  C_3
REMARK    3  A    between atoms: C_7  and  C_8
REMARK    4  A    between atoms: C_9  and  O_10
REMARK    5  A    between atoms: O_10  and  C_11
REMARK    6  A    between atoms: C_11  and  C_13
REMARK    7  A    between atoms: C_13  and  N_14
REMARK                            x       y       z     vdW  Elec       q    Type
REMARK                         _______ _______ _______ _____ _____    ______ ____
ROOT
ATOM      1  O   UNL     1       4.856   5.082  18.743  0.00  0.00    +0.000 OA
ENDROOT
BRANCH   1  10
ATOM      2  C   UNL     1       0.452   2.923  19.987  0.00  0.00    +0.000 C 
ATOM      3  C   UNL     1       1.974   3.145  20.103  0.00  0.00    +0.000 C 
ATOM      4  C   UNL     1       2.341   2.803  21.562  0.00  0.00    +0.000 C 
ATOM      5  C   UNL     1       2.789   2.369  19.038  0.00  0.00    +0.000 C 
ATOM      6  C   UNL     1       2.358   3.017  17.698  0.00  0.00    +0.000 C 
ATOM      7  C   UNL     1       2.118   4.487  18.083  0.00  0.00    +0.000 C 
ATOM      8  C   UNL     1       2.523   4.516  19.578  0.00  0.00    +0.000 C 
ATOM      9  C   UNL     1       2.025   5.752  20.302  0.00  0.00    +0.000 C 
ATOM     10  C   UNL     1       4.073   4.319  19.672  0.00  0.00    +0.000 C 
ATOM     11  C   UNL     1       4.239   2.827  19.293  0.00  0.00    +0.000 C 
ENDBRANCH   1  10
BRANCH   1  12
ATOM     12  C   UNL     1       6.211   5.024  18.936  0.00  0.00    +0.000 C 
ATOM     13  O   UNL     1       6.771   5.271  19.993  0.00  0.00    +0.000 OA
BRANCH  12  14
ATOM     14  C   UNL     1       6.874   4.393  17.708  0.00  0.00    +0.000 C 
BRANCH  14  15
ATOM     15  N   UNL     1       7.509   5.327  16.755  0.00  0.00    +0.000 NA
ATOM     16  C   UNL     1       7.117   4.966  15.366  0.00  0.00    +0.000 C 
ATOM     17  C   UNL     1       5.643   5.289  15.001  0.00  0.00    +0.000 C 
ATOM     18  N   UNL     1       5.260   6.677  15.288  0.00  0.00    +0.000 NA
ATOM     19  C   UNL     1       5.652   7.063  16.651  0.00  0.00    +0.000 C 
ATOM     20  C   UNL     1       7.131   6.741  16.958  0.00  0.00    +0.000 C 
ATOM     21  H   UNL     1       4.255   6.792  15.172  0.00  0.00    +0.000 HD
ENDBRANCH  14  15
ENDBRANCH  12  14
ENDBRANCH   1  12
TORSDOF 4
ENDMDL
MODEL 4
REMARK VINA RESULT:      -6.8      1.911      3.071
REMARK  Name = 
REMARK  7 active torsions:
REMARK  status: ('A' for Active; 'I' for Inactive)
REMARK    1  A    between atoms: C_1  and  C_2
REMARK    2  A    between atoms: C_2  and  C_3
REMARK    3  A    between atoms: C_7  and  C_8
REMARK    4  A    between atoms: C_9  and  O_10
REMARK    5  A    between atoms: O_10  and  C_11
REMARK    6  A    between atoms: C_11  and  C_13
REMARK    7  A    between atoms: C_13  and  N_14
REMARK                            x       y       z     vdW  Elec       q    Type
REMARK                         _______ _______ _______ _____ _____    ______ ____
ROOT
ATOM      1  O   UNL     1       3.575   4.039  16.888  0.00  0.00    +0.000 OA
ENDROOT
BRANCH   1  10
ATOM      2  C   UNL     1       1.687   2.847  21.428  0.00  0.00    +0.000 C 
ATOM      3  C   UNL     1       2.689   2.723  20.263  0.00  0.00    +0.000 C 
ATOM      4  C   UNL     1       4.012   2.239  20.893  0.00  0.00    +0.000 C 
ATOM      5  C   UNL     1       2.170   1.837  19.102  0.00  0.00    +0.000 C 
ATOM      6  C   UNL     1       0.959   2.627  18.547  0.00  0.00    +0.000 C 
ATOM      7  C   UNL     1       1.377   4.093  18.746  0.00  0.00    +0.000 C 
ATOM      8  C   UNL     1       2.813   3.961  19.311  0.00  0.00    +0.000 C 
ATOM      9  C   UNL     1       3.318   5.241  19.950  0.00  0.00    +0.000 C 
ATOM     10  C   UNL     1       3.743   3.423  18.173  0.00  0.00    +0.000 C 
ATOM     11  C   UNL     1       3.283   1.951  18.040  0.00  0.00    +0.000 C 
ENDBRANCH   1  10
BRANCH   1  12
ATOM     12  C   UNL     1       4.738   4.350  16.233  0.00  0.00    +0.000 C 
ATOM     13  O   UNL     1       4.969   4.077  15.066  0.00  0.00    +0.000 OA
BRANCH  12  14
ATOM     14  C   UNL     1       5.587   5.273  17.112  0.00  0.00    +0.000 C 
BRANCH  14  15
ATOM     15  N   UNL     1       7.048   5.229  16.888  0.00  0.00    +0.000 NA
ATOM     16  C   UNL     1       7.549   6.598  16.593  0.00  0.00    +0.000 C 
ATOM     17  C   UNL     1       7.568   7.560  17.812  0.00  0.00    +0.000 C 
ATOM     18  N   UNL     1       8.266   7.009  18.981  0.00  0.00    +0.000 NA
ATOM     19  C   UNL     1       7.799   5.649  19.282  0.00  0.00    +0.000 C 
ATOM     20  C   UNL     1       7.818   4.725  18.044  0.00  0.00    +0.000 C 
ATOM     21  H   UNL     1       8.120   7.611  19.788  0.00  0.00    +0.000 HD
ENDBRANCH  14  15
ENDBRANCH  12  14
ENDBRANCH   1  12
TORSDOF 4
ENDMDL
MODEL 5
REMARK VINA RESULT:      -6.8      1.108      1.497
REMARK  Name = 
REMARK  7 active torsions:
REMARK  status: ('A' for Active; 'I' for Inactive)
REMARK    1  A    between atoms: C_1  and  C_2
REMARK    2  A    between atoms: C_2  and  C_3
REMARK    3  A    between atoms: C_7  and  C_8
REMARK    4  A    between atoms: C_9  and  O_10
REMARK    5  A    between atoms: O_10  and  C_11
REMARK    6  A    between atoms: C_11  and  C_13
REMARK    7  A    between atoms: C_13  and  N_14
REMARK                            x       y       z     vdW  Elec       q    Type
REMARK                         _______ _______ _______ _____ _____    ______ ____
ROOT
ATOM      1  O   UNL     1       5.256   4.376  19.932  0.00  0.00    +0.000 OA
ENDROOT
BRANCH   1  10
ATOM      2  C   UNL     1       0.593   2.583  19.132  0.00  0.00    +0.000 C 
ATOM      3  C   UNL     1       1.724   3.623  19.002  0.00  0.00    +0.000 C 
ATOM      4  C   UNL     1       1.465   4.365  17.674  0.00  0.00    +0.000 C 
ATOM      5  C   UNL     1       1.850   4.547  20.239  0.00  0.00    +0.000 C 
ATOM      6  C   UNL     1       2.276   3.586  21.377  0.00  0.00    +0.000 C 
ATOM      7  C   UNL     1       3.150   2.550  20.650  0.00  0.00    +0.000 C 
ATOM      8  C   UNL     1       3.186   3.095  19.201  0.00  0.00    +0.000 C 
ATOM      9  C   UNL     1       3.663   2.067  18.193  0.00  0.00    +0.000 C 
ATOM     10  C   UNL     1       4.027   4.415  19.192  0.00  0.00    +0.000 C 
ATOM     11  C   UNL     1       3.088   5.410  19.916  0.00  0.00    +0.000 C 
ENDBRANCH   1  10
BRANCH   1  12
ATOM     12  C   UNL     1       6.228   5.238  19.495  0.00  0.00    +0.000 C 
ATOM     13  O   UNL     1       7.321   5.372  20.022  0.00  0.00    +0.000 OA
BRANCH  12  14
ATOM     14  C   UNL     1       5.820   5.823  18.140  0.00  0.00    +0.000 C 
BRANCH  14  15
ATOM     15  N   UNL     1       6.853   5.808  17.083  0.00  0.00    +0.000 NA
ATOM     16  C   UNL     1       7.138   4.404  16.682  0.00  0.00    +0.000 C 
ATOM     17  C   UNL     1       6.011   3.721  15.861  0.00  0.00    +0.000 C 
ATOM     18  N   UNL     1       5.583   4.501  14.693  0.00  0.00    +0.000 NA
ATOM     19  C   UNL     1       5.311   5.898  15.062  0.00  0.00    +0.000 C 
ATOM     20  C   UNL     1       6.469   6.540  15.858  0.00  0.00    +0.000 C 
ATOM     21  H   UNL     1       4.750   4.085  14.282  0.00  0.00    +0.000 HD
ENDBRANCH  14  15
ENDBRANCH  12  14
ENDBRANCH   1  12
TORSDOF 4
ENDMDL
MODEL 6
REMARK VINA RESULT:      -6.7      1.783      2.896
REMARK  Name = 
REMARK  7 active torsions:
REMARK  status: ('A' for Active; 'I' for Inactive)
REMARK    1  A    between atoms: C_1  and  C_2
REMARK    2  A    between atoms: C_2  and  C_3
REMARK    3  A    between atoms: C_7  and  C_8
REMARK    4  A    between atoms: C_9  and  O_10
REMARK    5  A    between atoms: O_10  and  C_11
REMARK    6  A    between atoms: C_11  and  C_13
REMARK    7  A    between atoms: C_13  and  N_14
REMARK                            x       y       z     vdW  Elec       q    Type
REMARK                         _______ _______ _______ _____ _____    ______ ____
ROOT
ATOM      1  O   UNL     1       2.628   5.256  17.751  0.00  0.00    +0.000 OA
ENDROOT
BRANCH   1  10
ATOM      2  C   UNL     1       1.811   2.089  21.612  0.00  0.00    +0.000 C 
ATOM      3  C   UNL     1       2.622   2.664  20.433  0.00  0.00    +0.000 C 
ATOM      4  C   UNL     1       4.104   2.391  20.765  0.00  0.00    +0.000 C 
ATOM      5  C   UNL     1       2.164   2.124  19.055  0.00  0.00    +0.000 C 
ATOM      6  C   UNL     1       0.725   2.676  18.900  0.00  0.00    +0.000 C 
ATOM      7  C   UNL     1       0.797   4.039  19.610  0.00  0.00    +0.000 C 
ATOM      8  C   UNL     1       2.290   4.135  20.007  0.00  0.00    +0.000 C 
ATOM      9  C   UNL     1       2.558   5.204  21.050  0.00  0.00    +0.000 C 
ATOM     10  C   UNL     1       3.137   4.311  18.703  0.00  0.00    +0.000 C 
ATOM     11  C   UNL     1       3.037   2.908  18.055  0.00  0.00    +0.000 C 
ENDBRANCH   1  10
BRANCH   1  12
ATOM     12  C   UNL     1       3.257   6.473  17.743  0.00  0.00    +0.000 C 
ATOM     13  O   UNL     1       2.681   7.549  17.702  0.00  0.00    +0.000 OA
BRANCH  12  14
ATOM     14  C   UNL     1       4.751   6.277  18.019  0.00  0.00    +0.000 C 
BRANCH  14  15
ATOM     15  N   UNL     1       5.668   6.581  16.900  0.00  0.00    +0.000 NA
ATOM     16  C   UNL     1       7.063   6.244  17.292  0.00  0.00    +0.000 C 
ATOM     17  C   UNL     1       7.364   4.723  17.382  0.00  0.00    +0.000 C 
ATOM     18  N   UNL     1       6.987   3.980  16.173  0.00  0.00    +0.000 NA
ATOM     19  C   UNL     1       5.616   4.309  15.756  0.00  0.00    +0.000 C 
ATOM     20  C   UNL     1       5.373   5.832  15.661  0.00  0.00    +0.000 C 
ATOM     21  H   UNL     1       7.065   2.979  16.341  0.00  0.00    +0.000 HD
ENDBRANCH  14  15
ENDBRANCH  12  14
ENDBRANCH   1  12
TORSDOF 4
ENDMDL
MODEL 7
REMARK VINA RESULT:      -6.7      2.449      5.624
REMARK  Name = 
REMARK  7 active torsions:
REMARK  status: ('A' for Active; 'I' for Inactive)
REMARK    1  A    between atoms: C_1  and  C_2
REMARK    2  A    between atoms: C_2  and  C_3
REMARK    3  A    between atoms: C_7  and  C_8
REMARK    4  A    between atoms: C_9  and  O_10
REMARK    5  A    between atoms: O_10  and  C_11
REMARK    6  A    between atoms: C_11  and  C_13
REMARK    7  A    between atoms: C_13  and  N_14
REMARK                            x       y       z     vdW  Elec       q    Type
REMARK                         _______ _______ _______ _____ _____    ______ ____
ROOT
ATOM      1  O   UNL     1       4.427   6.167  18.861  0.00  0.00    +0.000 OA
ENDROOT
BRANCH   1  10
ATOM      2  C   UNL     1       7.654   5.355  15.049  0.00  0.00    +0.000 C 
ATOM      3  C   UNL     1       6.594   4.934  16.088  0.00  0.00    +0.000 C 
ATOM      4  C   UNL     1       5.853   3.728  15.472  0.00  0.00    +0.000 C 
ATOM      5  C   UNL     1       7.187   4.671  17.495  0.00  0.00    +0.000 C 
ATOM      6  C   UNL     1       7.704   6.061  17.944  0.00  0.00    +0.000 C 
ATOM      7  C   UNL     1       6.693   7.031  17.310  0.00  0.00    +0.000 C 
ATOM      8  C   UNL     1       5.673   6.071  16.648  0.00  0.00    +0.000 C 
ATOM      9  C   UNL     1       4.781   6.762  15.635  0.00  0.00    +0.000 C 
ATOM     10  C   UNL     1       4.879   5.338  17.780  0.00  0.00    +0.000 C 
ATOM     11  C   UNL     1       5.944   4.373  18.358  0.00  0.00    +0.000 C 
ENDBRANCH   1  10
BRANCH   1  12
ATOM     12  C   UNL     1       3.071   6.361  18.920  0.00  0.00    +0.000 C 
ATOM     13  O   UNL     1       2.531   7.454  18.965  0.00  0.00    +0.000 OA
BRANCH  12  14
ATOM     14  C   UNL     1       2.355   5.026  18.694  0.00  0.00    +0.000 C 
BRANCH  14  15
ATOM     15  N   UNL     1       2.142   4.186  19.891  0.00  0.00    +0.000 NA
ATOM     16  C   UNL     1       0.809   3.532  19.812  0.00  0.00    +0.000 C 
ATOM     17  C   UNL     1       0.703   2.397  18.757  0.00  0.00    +0.000 C 
ATOM     18  N   UNL     1       1.756   1.381  18.884  0.00  0.00    +0.000 NA
ATOM     19  C   UNL     1       3.083   2.005  18.981  0.00  0.00    +0.000 C 
ATOM     20  C   UNL     1       3.143   3.112  20.057  0.00  0.00    +0.000 C 
ATOM     21  H   UNL     1       1.729   0.750  18.085  0.00  0.00    +0.000 HD
ENDBRANCH  14  15
ENDBRANCH  12  14
ENDBRANCH   1  12
TORSDOF 4
ENDMDL
MODEL 8
REMARK VINA RESULT:      -6.6      1.284      1.581
REMARK  Name = 
REMARK  7 active torsions:
REMARK  status: ('A' for Active; 'I' for Inactive)
REMARK    1  A    between atoms: C_1  and  C_2
REMARK    2  A    between atoms: C_2  and  C_3
REMARK    3  A    between atoms: C_7  and  C_8
REMARK    4  A    between atoms: C_9  and  O_10
REMARK    5  A    between atoms: O_10  and  C_11
REMARK    6  A    between atoms: C_11  and  C_13
REMARK    7  A    between atoms: C_13  and  N_14
REMARK                            x       y       z     vdW  Elec       q    Type
REMARK                         _______ _______ _______ _____ _____    ______ ____
ROOT
ATOM      1  O   UNL     1       4.746   4.907  20.039  0.00  0.00    +0.000 OA
ENDROOT
BRANCH   1  10
ATOM      2  C   UNL     1       0.514   2.269  19.187  0.00  0.00    +0.000 C 
ATOM      3  C   UNL     1       1.465   3.469  19.003  0.00  0.00    +0.000 C 
ATOM      4  C   UNL     1       1.188   4.016  17.587  0.00  0.00    +0.000 C 
ATOM      5  C   UNL     1       1.345   4.523  20.132  0.00  0.00    +0.000 C 
ATOM      6  C   UNL     1       1.837   3.770  21.394  0.00  0.00    +0.000 C 
ATOM      7  C   UNL     1       2.921   2.830  20.840  0.00  0.00    +0.000 C 
ATOM      8  C   UNL     1       2.975   3.223  19.343  0.00  0.00    +0.000 C 
ATOM      9  C   UNL     1       3.689   2.194  18.487  0.00  0.00    +0.000 C 
ATOM     10  C   UNL     1       3.587   4.659  19.231  0.00  0.00    +0.000 C 
ATOM     11  C   UNL     1       2.445   5.547  19.784  0.00  0.00    +0.000 C 
ENDBRANCH   1  10
BRANCH   1  12
ATOM     12  C   UNL     1       5.869   5.282  19.349  0.00  0.00    +0.000 C 
ATOM     13  O   UNL     1       6.987   5.356  19.834  0.00  0.00    +0.000 OA
BRANCH  12  14
ATOM     14  C   UNL     1       5.545   5.367  17.854  0.00  0.00    +0.000 C 
BRANCH  14  15
ATOM     15  N   UNL     1       5.966   4.218  17.026  0.00  0.00    +0.000 NA
ATOM     16  C   UNL     1       5.093   4.120  15.826  0.00  0.00    +0.000 C 
ATOM     17  C   UNL     1       5.327   5.224  14.760  0.00  0.00    +0.000 C 
ATOM     18  N   UNL     1       6.731   5.355  14.351  0.00  0.00    +0.000 NA
ATOM     19  C   UNL     1       7.617   5.437  15.521  0.00  0.00    +0.000 C 
ATOM     20  C   UNL     1       7.360   4.306  16.542  0.00  0.00    +0.000 C 
ATOM     21  H   UNL     1       6.849   6.182  13.770  0.00  0.00    +0.000 HD
ENDBRANCH  14  15
ENDBRANCH  12  14
ENDBRANCH   1  12
TORSDOF 4
ENDMDL
MODEL 9
REMARK VINA RESULT:      -6.6      1.349      2.367
REMARK  Name = 
REMARK  7 active torsions:
REMARK  status: ('A' for Active; 'I' for Inactive)
REMARK    1  A    between atoms: C_1  and  C_2
REMARK    2  A    between atoms: C_2  and  C_3
REMARK    3  A    between atoms: C_7  and  C_8
REMARK    4  A    between atoms: C_9  and  O_10
REMARK    5  A    between atoms: O_10  and  C_11
REMARK    6  A    between atoms: C_11  and  C_13
REMARK    7  A    between atoms: C_13  and  N_14
REMARK                            x       y       z     vdW  Elec       q    Type
REMARK                         _______ _______ _______ _____ _____    ______ ____
ROOT
ATOM      1  O   UNL     1       3.617   6.132  18.609  0.00  0.00    +0.000 OA
ENDROOT
BRANCH   1  10
ATOM      2  C   UNL     1       1.807   1.643  20.084  0.00  0.00    +0.000 C 
ATOM      3  C   UNL     1       2.160   2.727  19.045  0.00  0.00    +0.000 C 
ATOM      4  C   UNL     1       2.431   1.975  17.725  0.00  0.00    +0.000 C 
ATOM      5  C   UNL     1       1.091   3.843  18.939  0.00  0.00    +0.000 C 
ATOM      6  C   UNL     1       1.143   4.538  20.323  0.00  0.00    +0.000 C 
ATOM      7  C   UNL     1       2.628   4.431  20.711  0.00  0.00    +0.000 C 
ATOM      8  C   UNL     1       3.257   3.765  19.462  0.00  0.00    +0.000 C 
ATOM      9  C   UNL     1       4.639   3.200  19.726  0.00  0.00    +0.000 C 
ATOM     10  C   UNL     1       3.218   4.793  18.282  0.00  0.00    +0.000 C 
ATOM     11  C   UNL     1       1.710   4.836  17.934  0.00  0.00    +0.000 C 
ENDBRANCH   1  10
BRANCH   1  12
ATOM     12  C   UNL     1       3.977   6.911  17.540  0.00  0.00    +0.000 C 
ATOM     13  O   UNL     1       3.854   8.125  17.497  0.00  0.00    +0.000 OA
BRANCH  12  14
ATOM     14  C   UNL     1       4.749   6.061  16.527  0.00  0.00    +0.000 C 
BRANCH  14  15
ATOM     15  N   UNL     1       6.136   6.486  16.239  0.00  0.00    +0.000 NA
ATOM     16  C   UNL     1       6.915   6.540  17.506  0.00  0.00    +0.000 C 
ATOM     17  C   UNL     1       7.259   5.154  18.117  0.00  0.00    +0.000 C 
ATOM     18  N   UNL     1       7.905   4.240  17.167  0.00  0.00    +0.000 NA
ATOM     19  C   UNL     1       7.161   4.182  15.900  0.00  0.00    +0.000 C 
ATOM     20  C   UNL     1       6.861   5.583  15.322  0.00  0.00    +0.000 C 
ATOM     21  H   UNL     1       7.971   3.308  17.571  0.00  0.00    +0.000 HD
ENDBRANCH  14  15
ENDBRANCH  12  14
ENDBRANCH   1  12
TORSDOF 4
ENDMDL
