MODEL 1
REMARK VINA RESULT:      -8.9      0.000      0.000
REMARK  Name = 
REMARK  9 active torsions:
REMARK  status: ('A' for Active; 'I' for Inactive)
REMARK    1  A    between atoms: C_1  and  C_2
REMARK    2  A    between atoms: C_2  and  O_3
REMARK    3  A    between atoms: O_3  and  C_4
REMARK    4  A    between atoms: C_9  and  C_10
REMARK    5  A    between atoms: C_10  and  N_11
REMARK    6  A    between atoms: C_12  and  C_14
REMARK    7  A    between atoms: N_18  and  S_19
REMARK    8  A    between atoms: S_19  and  C_22
REMARK    9  A    between atoms: N_29  and  C_30
REMARK                            x       y       z     vdW  Elec       q    Type
REMARK                         _______ _______ _______ _____ _____    ______ ____
ROOT
ATOM      1  C   UNL     1       7.372   5.924  18.753  0.00  0.00    +0.000 C 
ATOM      2  C   UNL     1       7.905   4.820  17.826  0.00  0.00    +0.000 C 
ATOM      3  C   UNL     1       6.955   4.586  16.652  0.00  0.00    +0.000 C 
ATOM      4  C   UNL     1       5.512   4.330  17.099  0.00  0.00    +0.000 C 
ATOM      5  N   UNL     1       5.042   5.389  18.053  0.00  0.00    +0.000 NA
ATOM      6  C   UNL     1       5.977   5.528  19.213  0.00  0.00    +0.000 C 
ENDROOT
BRANCH   1   8
ATOM      7  N   UNL     1       8.425   8.179  18.646  0.00  0.00    +0.000 N 
ATOM      8  C   UNL     1       7.522   7.303  18.091  0.00  0.00    +0.000 C 
ATOM      9  O   UNL     1       6.900   7.569  17.062  0.00  0.00    +0.000 OA
ATOM     10  H   UNL     1       8.734   8.035  19.598  0.00  0.00    +0.000 HD
BRANCH   7  11
ATOM     11  C   UNL     1       8.639   9.517  18.121  0.00  0.00    +0.000 C 
BRANCH  11  17
ATOM     12  C   UNL     1      10.117  11.502  18.797  0.00  0.00    +0.000 A 
ATOM     13  C   UNL     1      10.519  12.426  19.774  0.00  0.00    +0.000 A 
ATOM     14  C   UNL     1      10.149  12.263  21.107  0.00  0.00    +0.000 A 
ATOM     15  C   UNL     1       9.338  11.198  21.471  0.00  0.00    +0.000 A 
ATOM     16  C   UNL     1       8.863  10.325  20.494  0.00  0.00    +0.000 A 
ATOM     17  C   UNL     1       9.235  10.462  19.144  0.00  0.00    +0.000 A 
BRANCH  12  18
ATOM     18  O   UNL     1      10.547  11.560  17.494  0.00  0.00    +0.000 OA
BRANCH  18  20
ATOM     19  C   UNL     1      11.495  13.521  16.473  0.00  0.00    +0.000 C 
ATOM     20  C   UNL     1      11.773  12.271  17.285  0.00  0.00    +0.000 C 
ENDBRANCH  18  20
ENDBRANCH  12  18
ENDBRANCH  11  17
ENDBRANCH   7  11
ENDBRANCH   1   8
BRANCH   5  21
ATOM     21  S   UNL     1       3.407   5.191  18.610  0.00  0.00    +0.000 S 
ATOM     22  O   UNL     1       2.658   4.550  17.551  0.00  0.00    +0.000 OA
ATOM     23  O   UNL     1       3.481   4.601  19.942  0.00  0.00    +0.000 OA
BRANCH  21  24
ATOM     24  C   UNL     1       2.818   6.846  18.832  0.00  0.00    +0.000 A 
ATOM     25  C   UNL     1       2.905   7.786  17.797  0.00  0.00    +0.000 A 
ATOM     26  C   UNL     1       2.236   9.012  17.896  0.00  0.00    +0.000 A 
ATOM     27  C   UNL     1       1.429   9.211  19.029  0.00  0.00    +0.000 A 
ATOM     28  C   UNL     1       1.463   8.331  20.119  0.00  0.00    +0.000 A 
ATOM     29  C   UNL     1       0.580   8.814  21.112  0.00  0.00    +0.000 A 
ATOM     30  C   UNL     1      -0.199   9.752  20.489  0.00  0.00    +0.000 A 
ATOM     31  N   UNL     1       0.506  10.174  19.386  0.00  0.00    +0.000 N 
ATOM     32  C   UNL     1       0.283  11.482  18.820  0.00  0.00    +0.000 C 
ATOM     33  C   UNL     1       2.245   7.167  20.059  0.00  0.00    +0.000 A 
ENDBRANCH  21  24
ENDBRANCH   5  21
TORSDOF 7
ENDMDL
MODEL 2
REMARK VINA RESULT:      -8.6      1.288      1.440
REMARK  Name = 
REMARK  9 active torsions:
REMARK  status: ('A' for Active; 'I' for Inactive)
REMARK    1  A    between atoms: C_1  and  C_2
REMARK    2  A    between atoms: C_2  and  O_3
REMARK    3  A    between atoms: O_3  and  C_4
REMARK    4  A    between atoms: C_9  and  C_10
REMARK    5  A    between atoms: C_10  and  N_11
REMARK    6  A    between atoms: C_12  and  C_14
REMARK    7  A    between atoms: N_18  and  S_19
REMARK    8  A    between atoms: S_19  and  C_22
REMARK    9  A    between atoms: N_29  and  C_30
REMARK                            x       y       z     vdW  Elec       q    Type
REMARK                         _______ _______ _______ _____ _____    ______ ____
ROOT
ATOM      1  C   UNL     1       7.284   5.997  18.507  0.00  0.00    +0.000 C 
ATOM      2  C   UNL     1       7.800   4.832  17.649  0.00  0.00    +0.000 C 
ATOM      3  C   UNL     1       6.798   4.477  16.550  0.00  0.00    +0.000 C 
ATOM      4  C   UNL     1       5.387   4.226  17.093  0.00  0.00    +0.000 C 
ATOM      5  N   UNL     1       4.937   5.350  17.979  0.00  0.00    +0.000 NA
ATOM      6  C   UNL     1       5.925   5.609  19.072  0.00  0.00    +0.000 C 
ENDROOT
BRANCH   1   8
ATOM      7  N   UNL     1       8.098   8.340  18.277  0.00  0.00    +0.000 N 
ATOM      8  C   UNL     1       7.361   7.318  17.726  0.00  0.00    +0.000 C 
ATOM      9  O   UNL     1       6.834   7.416  16.617  0.00  0.00    +0.000 OA
ATOM     10  H   UNL     1       8.311   8.320  19.266  0.00  0.00    +0.000 HD
BRANCH   7  11
ATOM     11  C   UNL     1       8.227   9.641  17.642  0.00  0.00    +0.000 C 
BRANCH  11  17
ATOM     12  C   UNL     1       8.731  12.045  18.381  0.00  0.00    +0.000 A 
ATOM     13  C   UNL     1       9.294  12.924  19.319  0.00  0.00    +0.000 A 
ATOM     14  C   UNL     1      10.134  12.452  20.326  0.00  0.00    +0.000 A 
ATOM     15  C   UNL     1      10.387  11.092  20.429  0.00  0.00    +0.000 A 
ATOM     16  C   UNL     1       9.763  10.204  19.555  0.00  0.00    +0.000 A 
ATOM     17  C   UNL     1       8.922  10.659  18.522  0.00  0.00    +0.000 A 
BRANCH  12  18
ATOM     18  O   UNL     1       7.988  12.476  17.309  0.00  0.00    +0.000 OA
BRANCH  18  20
ATOM     19  C   UNL     1       6.276  14.123  17.689  0.00  0.00    +0.000 C 
ATOM     20  C   UNL     1       7.716  13.882  17.278  0.00  0.00    +0.000 C 
ENDBRANCH  18  20
ENDBRANCH  12  18
ENDBRANCH  11  17
ENDBRANCH   7  11
ENDBRANCH   1   8
BRANCH   5  21
ATOM     21  S   UNL     1       3.339   5.160  18.637  0.00  0.00    +0.000 S 
ATOM     22  O   UNL     1       2.527   4.503  17.634  0.00  0.00    +0.000 OA
ATOM     23  O   UNL     1       3.494   4.591  19.970  0.00  0.00    +0.000 OA
BRANCH  21  24
ATOM     24  C   UNL     1       2.763   6.819  18.868  0.00  0.00    +0.000 A 
ATOM     25  C   UNL     1       2.856   7.764  17.838  0.00  0.00    +0.000 A 
ATOM     26  C   UNL     1       2.198   8.995  17.946  0.00  0.00    +0.000 A 
ATOM     27  C   UNL     1       1.393   9.194  19.080  0.00  0.00    +0.000 A 
ATOM     28  C   UNL     1       1.421   8.308  20.165  0.00  0.00    +0.000 A 
ATOM     29  C   UNL     1       0.542   8.792  21.161  0.00  0.00    +0.000 A 
ATOM     30  C   UNL     1      -0.229   9.740  20.545  0.00  0.00    +0.000 A 
ATOM     31  N   UNL     1       0.478  10.162  19.443  0.00  0.00    +0.000 N 
ATOM     32  C   UNL     1       0.265  11.475  18.885  0.00  0.00    +0.000 C 
ATOM     33  C   UNL     1       2.194   7.137  20.098  0.00  0.00    +0.000 A 
ENDBRANCH  21  24
ENDBRANCH   5  21
TORSDOF 7
ENDMDL
MODEL 3
REMARK VINA RESULT:      -8.4      1.074      2.165
REMARK  Name = 
REMARK  9 active torsions:
REMARK  status: ('A' for Active; 'I' for Inactive)
REMARK    1  A    between atoms: C_1  and  C_2
REMARK    2  A    between atoms: C_2  and  O_3
REMARK    3  A    between atoms: O_3  and  C_4
REMARK    4  A    between atoms: C_9  and  C_10
REMARK    5  A    between atoms: C_10  and  N_11
REMARK    6  A    between atoms: C_12  and  C_14
REMARK    7  A    between atoms: N_18  and  S_19
REMARK    8  A    between atoms: S_19  and  C_22
REMARK    9  A    between atoms: N_29  and  C_30
REMARK                            x       y       z     vdW  Elec       q    Type
REMARK                         _______ _______ _______ _____ _____    ______ ____
ROOT
ATOM      1  C   UNL     1       7.429   6.425  18.251  0.00  0.00    +0.000 C 
ATOM      2  C   UNL     1       7.840   5.469  17.121  0.00  0.00    +0.000 C 
ATOM      3  C   UNL     1       6.731   5.351  16.075  0.00  0.00    +0.000 C 
ATOM      4  C   UNL     1       5.375   4.985  16.688  0.00  0.00    +0.000 C 
ATOM      5  N   UNL     1       5.031   5.894  17.831  0.00  0.00    +0.000 NA
ATOM      6  C   UNL     1       6.125   5.920  18.852  0.00  0.00    +0.000 C 
ENDROOT
BRANCH   1   8
ATOM      7  N   UNL     1       8.272   8.762  18.429  0.00  0.00    +0.000 N 
ATOM      8  C   UNL     1       7.452   7.881  17.762  0.00  0.00    +0.000 C 
ATOM      9  O   UNL     1       6.808   8.213  16.766  0.00  0.00    +0.000 OA
ATOM     10  H   UNL     1       8.593   8.533  19.360  0.00  0.00    +0.000 HD
BRANCH   7  11
ATOM     11  C   UNL     1       8.363  10.168  18.071  0.00  0.00    +0.000 C 
BRANCH  11  17
ATOM     12  C   UNL     1       9.784  11.186  19.948  0.00  0.00    +0.000 A 
ATOM     13  C   UNL     1      11.026  11.664  20.395  0.00  0.00    +0.000 A 
ATOM     14  C   UNL     1      12.067  11.896  19.498  0.00  0.00    +0.000 A 
ATOM     15  C   UNL     1      11.890  11.613  18.151  0.00  0.00    +0.000 A 
ATOM     16  C   UNL     1      10.690  11.058  17.713  0.00  0.00    +0.000 A 
ATOM     17  C   UNL     1       9.620  10.828  18.598  0.00  0.00    +0.000 A 
BRANCH  12  18
ATOM     18  O   UNL     1       8.697  11.048  20.777  0.00  0.00    +0.000 OA
BRANCH  18  20
ATOM     19  C   UNL     1       8.103  11.489  23.066  0.00  0.00    +0.000 C 
ATOM     20  C   UNL     1       8.525  12.094  21.741  0.00  0.00    +0.000 C 
ENDBRANCH  18  20
ENDBRANCH  12  18
ENDBRANCH  11  17
ENDBRANCH   7  11
ENDBRANCH   1   8
BRANCH   5  21
ATOM     21  S   UNL     1       3.501   5.564  18.587  0.00  0.00    +0.000 S 
ATOM     22  O   UNL     1       2.704   4.802  17.649  0.00  0.00    +0.000 OA
ATOM     23  O   UNL     1       3.789   5.049  19.920  0.00  0.00    +0.000 OA
BRANCH  21  24
ATOM     24  C   UNL     1       2.774   7.162  18.817  0.00  0.00    +0.000 A 
ATOM     25  C   UNL     1       2.759   8.102  17.779  0.00  0.00    +0.000 A 
ATOM     26  C   UNL     1       1.988   9.266  17.890  0.00  0.00    +0.000 A 
ATOM     27  C   UNL     1       1.188   9.398  19.037  0.00  0.00    +0.000 A 
ATOM     28  C   UNL     1       1.320   8.528  20.128  0.00  0.00    +0.000 A 
ATOM     29  C   UNL     1       0.416   8.935  21.136  0.00  0.00    +0.000 A 
ATOM     30  C   UNL     1      -0.453   9.800  20.527  0.00  0.00    +0.000 A 
ATOM     31  N   UNL     1       0.192  10.278  19.410  0.00  0.00    +0.000 N 
ATOM     32  C   UNL     1      -0.155  11.559  18.846  0.00  0.00    +0.000 C 
ATOM     33  C   UNL     1       2.199   7.436  20.054  0.00  0.00    +0.000 A 
ENDBRANCH  21  24
ENDBRANCH   5  21
TORSDOF 7
ENDMDL
MODEL 4
REMARK VINA RESULT:      -8.1      8.742     11.442
REMARK  Name = 
REMARK  9 active torsions:
REMARK  status: ('A' for Active; 'I' for Inactive)
REMARK    1  A    between atoms: C_1  and  C_2
REMARK    2  A    between atoms: C_2  and  O_3
REMARK    3  A    between atoms: O_3  and  C_4
REMARK    4  A    between atoms: C_9  and  C_10
REMARK    5  A    between atoms: C_10  and  N_11
REMARK    6  A    between atoms: C_12  and  C_14
REMARK    7  A    between atoms: N_18  and  S_19
REMARK    8  A    between atoms: S_19  and  C_22
REMARK    9  A    between atoms: N_29  and  C_30
REMARK                            x       y       z     vdW  Elec       q    Type
REMARK                         _______ _______ _______ _____ _____    ______ ____
ROOT
ATOM      1  C   UNL     1      -2.676  10.025  18.015  0.00  0.00    +0.000 C 
ATOM      2  C   UNL     1      -2.408   9.882  16.508  0.00  0.00    +0.000 C 
ATOM      3  C   UNL     1      -2.917  11.105  15.745  0.00  0.00    +0.000 C 
ATOM      4  C   UNL     1      -4.383  11.429  16.052  0.00  0.00    +0.000 C 
ATOM      5  N   UNL     1      -4.626  11.497  17.531  0.00  0.00    +0.000 NA
ATOM      6  C   UNL     1      -4.168  10.248  18.215  0.00  0.00    +0.000 C 
ENDROOT
BRANCH   1   8
ATOM      7  N   UNL     1      -2.295  12.144  19.267  0.00  0.00    +0.000 N 
ATOM      8  C   UNL     1      -1.727  11.062  18.635  0.00  0.00    +0.000 C 
ATOM      9  O   UNL     1      -0.509  10.879  18.619  0.00  0.00    +0.000 OA
ATOM     10  H   UNL     1      -3.254  12.390  19.063  0.00  0.00    +0.000 HD
BRANCH   7  11
ATOM     11  C   UNL     1      -1.501  13.200  19.873  0.00  0.00    +0.000 C 
BRANCH  11  17
ATOM     12  C   UNL     1      -2.374  12.975  22.274  0.00  0.00    +0.000 A 
ATOM     13  C   UNL     1      -2.827  13.587  23.454  0.00  0.00    +0.000 A 
ATOM     14  C   UNL     1      -3.146  14.943  23.478  0.00  0.00    +0.000 A 
ATOM     15  C   UNL     1      -2.976  15.711  22.335  0.00  0.00    +0.000 A 
ATOM     16  C   UNL     1      -2.445  15.130  21.184  0.00  0.00    +0.000 A 
ATOM     17  C   UNL     1      -2.129  13.759  21.132  0.00  0.00    +0.000 A 
BRANCH  12  18
ATOM     18  O   UNL     1      -2.154  11.623  22.174  0.00  0.00    +0.000 OA
BRANCH  18  20
ATOM     19  C   UNL     1      -0.122  10.336  22.152  0.00  0.00    +0.000 C 
ATOM     20  C   UNL     1      -1.108  11.109  23.006  0.00  0.00    +0.000 C 
ENDBRANCH  18  20
ENDBRANCH  12  18
ENDBRANCH  11  17
ENDBRANCH   7  11
ENDBRANCH   1   8
BRANCH   5  21
ATOM     21  S   UNL     1      -6.264  11.871  17.981  0.00  0.00    +0.000 S 
ATOM     22  O   UNL     1      -6.853  12.629  16.898  0.00  0.00    +0.000 OA
ATOM     23  O   UNL     1      -6.869  10.629  18.447  0.00  0.00    +0.000 OA
BRANCH  21  24
ATOM     24  C   UNL     1      -6.098  12.908  19.406  0.00  0.00    +0.000 A 
ATOM     25  C   UNL     1      -6.134  14.304  19.289  0.00  0.00    +0.000 A 
ATOM     26  C   UNL     1      -6.234  15.107  20.432  0.00  0.00    +0.000 A 
ATOM     27  C   UNL     1      -6.373  14.451  21.667  0.00  0.00    +0.000 A 
ATOM     28  C   UNL     1      -6.192  13.066  21.786  0.00  0.00    +0.000 A 
ATOM     29  C   UNL     1      -6.356  12.710  23.145  0.00  0.00    +0.000 A 
ATOM     30  C   UNL     1      -6.948  13.790  23.742  0.00  0.00    +0.000 A 
ATOM     31  N   UNL     1      -6.670  14.876  22.945  0.00  0.00    +0.000 N 
ATOM     32  C   UNL     1      -6.645  16.210  23.495  0.00  0.00    +0.000 C 
ATOM     33  C   UNL     1      -5.959  12.286  20.643  0.00  0.00    +0.000 A 
ENDBRANCH  21  24
ENDBRANCH   5  21
TORSDOF 7
ENDMDL
MODEL 5
REMARK VINA RESULT:      -8.0      1.264      2.573
REMARK  Name = 
REMARK  9 active torsions:
REMARK  status: ('A' for Active; 'I' for Inactive)
REMARK    1  A    between atoms: C_1  and  C_2
REMARK    2  A    between atoms: C_2  and  O_3
REMARK    3  A    between atoms: O_3  and  C_4
REMARK    4  A    between atoms: C_9  and  C_10
REMARK    5  A    between atoms: C_10  and  N_11
REMARK    6  A    between atoms: C_12  and  C_14
REMARK    7  A    between atoms: N_18  and  S_19
REMARK    8  A    between atoms: S_19  and  C_22
REMARK    9  A    between atoms: N_29  and  C_30
REMARK                            x       y       z     vdW  Elec       q    Type
REMARK                         _______ _______ _______ _____ _____    ______ ____
ROOT
ATOM      1  C   UNL     1       7.517   6.353  17.828  0.00  0.00    +0.000 C 
ATOM      2  C   UNL     1       7.621   5.714  16.435  0.00  0.00    +0.000 C 
ATOM      3  C   UNL     1       6.261   5.698  15.738  0.00  0.00    +0.000 C 
ATOM      4  C   UNL     1       5.163   5.060  16.595  0.00  0.00    +0.000 C 
ATOM      5  N   UNL     1       5.129   5.659  17.970  0.00  0.00    +0.000 NA
ATOM      6  C   UNL     1       6.471   5.589  18.626  0.00  0.00    +0.000 C 
ENDROOT
BRANCH   1   8
ATOM      7  N   UNL     1       8.265   8.677  18.319  0.00  0.00    +0.000 N 
ATOM      8  C   UNL     1       7.329   7.874  17.711  0.00  0.00    +0.000 C 
ATOM      9  O   UNL     1       6.409   8.336  17.036  0.00  0.00    +0.000 OA
ATOM     10  H   UNL     1       8.853   8.291  19.046  0.00  0.00    +0.000 HD
BRANCH   7  11
ATOM     11  C   UNL     1       8.183  10.128  18.295  0.00  0.00    +0.000 C 
BRANCH  11  17
ATOM     12  C   UNL     1       9.783  11.131  20.031  0.00  0.00    +0.000 A 
ATOM     13  C   UNL     1      11.060  11.619  20.353  0.00  0.00    +0.000 A 
ATOM     14  C   UNL     1      11.995  11.885  19.355  0.00  0.00    +0.000 A 
ATOM     15  C   UNL     1      11.679  11.627  18.029  0.00  0.00    +0.000 A 
ATOM     16  C   UNL     1      10.446  11.062  17.709  0.00  0.00    +0.000 A 
ATOM     17  C   UNL     1       9.480  10.798  18.698  0.00  0.00    +0.000 A 
BRANCH  12  18
ATOM     18  O   UNL     1       8.794  10.959  20.968  0.00  0.00    +0.000 OA
BRANCH  18  20
ATOM     19  C   UNL     1       7.546  11.753  22.864  0.00  0.00    +0.000 C 
ATOM     20  C   UNL     1       8.839  11.861  22.079  0.00  0.00    +0.000 C 
ENDBRANCH  18  20
ENDBRANCH  12  18
ENDBRANCH  11  17
ENDBRANCH   7  11
ENDBRANCH   1   8
BRANCH   5  21
ATOM     21  S   UNL     1       3.905   5.005  19.017  0.00  0.00    +0.000 S 
ATOM     22  O   UNL     1       3.240   3.937  18.301  0.00  0.00    +0.000 OA
ATOM     23  O   UNL     1       4.536   4.765  20.310  0.00  0.00    +0.000 OA
BRANCH  21  24
ATOM     24  C   UNL     1       2.775   6.347  19.259  0.00  0.00    +0.000 A 
ATOM     25  C   UNL     1       2.119   6.525  20.484  0.00  0.00    +0.000 A 
ATOM     26  C   UNL     1       1.412   7.706  20.743  0.00  0.00    +0.000 A 
ATOM     27  C   UNL     1       1.461   8.710  19.761  0.00  0.00    +0.000 A 
ATOM     28  C   UNL     1       1.995   8.468  18.489  0.00  0.00    +0.000 A 
ATOM     29  C   UNL     1       1.868   9.647  17.718  0.00  0.00    +0.000 A 
ATOM     30  C   UNL     1       1.585  10.644  18.613  0.00  0.00    +0.000 A 
ATOM     31  N   UNL     1       1.061  10.031  19.727  0.00  0.00    +0.000 N 
ATOM     32  C   UNL     1       0.174  10.742  20.615  0.00  0.00    +0.000 C 
ATOM     33  C   UNL     1       2.585   7.228  18.198  0.00  0.00    +0.000 A 
ENDBRANCH  21  24
ENDBRANCH   5  21
TORSDOF 7
ENDMDL
MODEL 6
REMARK VINA RESULT:      -7.8      1.487      2.060
REMARK  Name = 
REMARK  9 active torsions:
REMARK  status: ('A' for Active; 'I' for Inactive)
REMARK    1  A    between atoms: C_1  and  C_2
REMARK    2  A    between atoms: C_2  and  O_3
REMARK    3  A    between atoms: O_3  and  C_4
REMARK    4  A    between atoms: C_9  and  C_10
REMARK    5  A    between atoms: C_10  and  N_11
REMARK    6  A    between atoms: C_12  and  C_14
REMARK    7  A    between atoms: N_18  and  S_19
REMARK    8  A    between atoms: S_19  and  C_22
REMARK    9  A    between atoms: N_29  and  C_30
REMARK                            x       y       z     vdW  Elec       q    Type
REMARK                         _______ _______ _______ _____ _____    ______ ____
ROOT
ATOM      1  C   UNL     1       7.170   5.765  18.255  0.00  0.00    +0.000 C 
ATOM      2  C   UNL     1       7.669   4.858  17.120  0.00  0.00    +0.000 C 
ATOM      3  C   UNL     1       6.542   4.544  16.136  0.00  0.00    +0.000 C 
ATOM      4  C   UNL     1       5.291   3.987  16.826  0.00  0.00    +0.000 C 
ATOM      5  N   UNL     1       4.867   4.860  17.970  0.00  0.00    +0.000 NA
ATOM      6  C   UNL     1       5.992   5.079  18.931  0.00  0.00    +0.000 C 
ENDROOT
BRANCH   1   8
ATOM      7  N   UNL     1       7.951   8.109  17.939  0.00  0.00    +0.000 N 
ATOM      8  C   UNL     1       6.942   7.195  17.743  0.00  0.00    +0.000 C 
ATOM      9  O   UNL     1       5.917   7.476  17.119  0.00  0.00    +0.000 OA
ATOM     10  H   UNL     1       8.655   7.926  18.642  0.00  0.00    +0.000 HD
BRANCH   7  11
ATOM     11  C   UNL     1       7.843   9.495  17.516  0.00  0.00    +0.000 C 
BRANCH  11  17
ATOM     12  C   UNL     1       8.618  11.834  18.229  0.00  0.00    +0.000 A 
ATOM     13  C   UNL     1       9.306  12.649  19.142  0.00  0.00    +0.000 A 
ATOM     14  C   UNL     1      10.136  12.092  20.113  0.00  0.00    +0.000 A 
ATOM     15  C   UNL     1      10.254  10.713  20.208  0.00  0.00    +0.000 A 
ATOM     16  C   UNL     1       9.507   9.895  19.362  0.00  0.00    +0.000 A 
ATOM     17  C   UNL     1       8.674  10.435  18.365  0.00  0.00    +0.000 A 
BRANCH  12  18
ATOM     18  O   UNL     1       7.878  12.341  17.189  0.00  0.00    +0.000 OA
BRANCH  18  20
ATOM     19  C   UNL     1       6.233  14.016  17.715  0.00  0.00    +0.000 C 
ATOM     20  C   UNL     1       7.647  13.754  17.233  0.00  0.00    +0.000 C 
ENDBRANCH  18  20
ENDBRANCH  12  18
ENDBRANCH  11  17
ENDBRANCH   7  11
ENDBRANCH   1   8
BRANCH   5  21
ATOM     21  S   UNL     1       3.446   4.314  18.811  0.00  0.00    +0.000 S 
ATOM     22  O   UNL     1       2.696   3.472  17.904  0.00  0.00    +0.000 OA
ATOM     23  O   UNL     1       3.886   3.817  20.109  0.00  0.00    +0.000 OA
BRANCH  21  24
ATOM     24  C   UNL     1       2.533   5.797  19.130  0.00  0.00    +0.000 A 
ATOM     25  C   UNL     1       2.017   6.065  20.405  0.00  0.00    +0.000 A 
ATOM     26  C   UNL     1       1.501   7.330  20.708  0.00  0.00    +0.000 A 
ATOM     27  C   UNL     1       1.598   8.317  19.713  0.00  0.00    +0.000 A 
ATOM     28  C   UNL     1       1.981   8.003  18.402  0.00  0.00    +0.000 A 
ATOM     29  C   UNL     1       1.948   9.187  17.630  0.00  0.00    +0.000 A 
ATOM     30  C   UNL     1       1.881  10.215  18.531  0.00  0.00    +0.000 A 
ATOM     31  N   UNL     1       1.378   9.680  19.695  0.00  0.00    +0.000 N 
ATOM     32  C   UNL     1       0.676  10.506  20.646  0.00  0.00    +0.000 C 
ATOM     33  C   UNL     1       2.371   6.693  18.078  0.00  0.00    +0.000 A 
ENDBRANCH  21  24
ENDBRANCH   5  21
TORSDOF 7
ENDMDL
MODEL 7
REMARK VINA RESULT:      -7.8      3.415      7.533
REMARK  Name = 
REMARK  9 active torsions:
REMARK  status: ('A' for Active; 'I' for Inactive)
REMARK    1  A    between atoms: C_1  and  C_2
REMARK    2  A    between atoms: C_2  and  O_3
REMARK    3  A    between atoms: O_3  and  C_4
REMARK    4  A    between atoms: C_9  and  C_10
REMARK    5  A    between atoms: C_10  and  N_11
REMARK    6  A    between atoms: C_12  and  C_14
REMARK    7  A    between atoms: N_18  and  S_19
REMARK    8  A    between atoms: S_19  and  C_22
REMARK    9  A    between atoms: N_29  and  C_30
REMARK                            x       y       z     vdW  Elec       q    Type
REMARK                         _______ _______ _______ _____ _____    ______ ____
ROOT
ATOM      1  C   UNL     1       0.916   4.444  20.250  0.00  0.00    +0.000 C 
ATOM      2  C   UNL     1       0.883   3.200  21.150  0.00  0.00    +0.000 C 
ATOM      3  C   UNL     1       2.260   2.538  21.218  0.00  0.00    +0.000 C 
ATOM      4  C   UNL     1       2.844   2.243  19.832  0.00  0.00    +0.000 C 
ATOM      5  N   UNL     1       2.803   3.459  18.954  0.00  0.00    +0.000 NA
ATOM      6  C   UNL     1       1.420   4.025  18.876  0.00  0.00    +0.000 C 
ENDROOT
BRANCH   1   8
ATOM      7  N   UNL     1       1.189   6.869  20.746  0.00  0.00    +0.000 N 
ATOM      8  C   UNL     1       1.662   5.594  20.944  0.00  0.00    +0.000 C 
ATOM      9  O   UNL     1       2.604   5.355  21.702  0.00  0.00    +0.000 OA
ATOM     10  H   UNL     1       0.588   7.058  19.955  0.00  0.00    +0.000 HD
BRANCH   7  11
ATOM     11  C   UNL     1       1.823   8.038  21.333  0.00  0.00    +0.000 C 
BRANCH  11  17
ATOM     12  C   UNL     1       0.613  10.189  20.635  0.00  0.00    +0.000 A 
ATOM     13  C   UNL     1      -0.403  11.130  20.869  0.00  0.00    +0.000 A 
ATOM     14  C   UNL     1      -1.104  11.141  22.073  0.00  0.00    +0.000 A 
ATOM     15  C   UNL     1      -0.826  10.185  23.039  0.00  0.00    +0.000 A 
ATOM     16  C   UNL     1       0.121   9.196  22.781  0.00  0.00    +0.000 A 
ATOM     17  C   UNL     1       0.851   9.173  21.579  0.00  0.00    +0.000 A 
BRANCH  12  18
ATOM     18  O   UNL     1       1.403  10.210  19.512  0.00  0.00    +0.000 OA
BRANCH  18  20
ATOM     19  C   UNL     1       1.888   8.749  17.664  0.00  0.00    +0.000 C 
ATOM     20  C   UNL     1       0.833   9.595  18.351  0.00  0.00    +0.000 C 
ENDBRANCH  18  20
ENDBRANCH  12  18
ENDBRANCH  11  17
ENDBRANCH   7  11
ENDBRANCH   1   8
BRANCH   5  21
ATOM     21  S   UNL     1       3.456   3.227  17.360  0.00  0.00    +0.000 S 
ATOM     22  O   UNL     1       4.048   1.907  17.317  0.00  0.00    +0.000 OA
ATOM     23  O   UNL     1       2.417   3.617  16.415  0.00  0.00    +0.000 OA
BRANCH  21  24
ATOM     24  C   UNL     1       4.731   4.450  17.229  0.00  0.00    +0.000 A 
ATOM     25  C   UNL     1       4.507   5.652  16.546  0.00  0.00    +0.000 A 
ATOM     26  C   UNL     1       5.429   6.701  16.641  0.00  0.00    +0.000 A 
ATOM     27  C   UNL     1       6.525   6.516  17.501  0.00  0.00    +0.000 A 
ATOM     28  C   UNL     1       6.813   5.265  18.063  0.00  0.00    +0.000 A 
ATOM     29  C   UNL     1       7.987   5.384  18.842  0.00  0.00    +0.000 A 
ATOM     30  C   UNL     1       8.185   6.729  19.009  0.00  0.00    +0.000 A 
ATOM     31  N   UNL     1       7.512   7.351  17.984  0.00  0.00    +0.000 N 
ATOM     32  C   UNL     1       7.917   8.654  17.516  0.00  0.00    +0.000 C 
ATOM     33  C   UNL     1       5.947   4.181  17.849  0.00  0.00    +0.000 A 
ENDBRANCH  21  24
ENDBRANCH   5  21
TORSDOF 7
ENDMDL
MODEL 8
REMARK VINA RESULT:      -7.7      4.673      8.699
REMARK  Name = 
REMARK  9 active torsions:
REMARK  status: ('A' for Active; 'I' for Inactive)
REMARK    1  A    between atoms: C_1  and  C_2
REMARK    2  A    between atoms: C_2  and  O_3
REMARK    3  A    between atoms: O_3  and  C_4
REMARK    4  A    between atoms: C_9  and  C_10
REMARK    5  A    between atoms: C_10  and  N_11
REMARK    6  A    between atoms: C_12  and  C_14
REMARK    7  A    between atoms: N_18  and  S_19
REMARK    8  A    between atoms: S_19  and  C_22
REMARK    9  A    between atoms: N_29  and  C_30
REMARK                            x       y       z     vdW  Elec       q    Type
REMARK                         _______ _______ _______ _____ _____    ______ ____
ROOT
ATOM      1  C   UNL     1       2.542   6.149  17.866  0.00  0.00    +0.000 C 
ATOM      2  C   UNL     1       2.118   4.823  18.517  0.00  0.00    +0.000 C 
ATOM      3  C   UNL     1       3.076   4.437  19.645  0.00  0.00    +0.000 C 
ATOM      4  C   UNL     1       4.542   4.431  19.200  0.00  0.00    +0.000 C 
ATOM      5  N   UNL     1       4.908   5.712  18.511  0.00  0.00    +0.000 NA
ATOM      6  C   UNL     1       3.976   6.004  17.378  0.00  0.00    +0.000 C 
ENDROOT
BRANCH   1   8
ATOM      7  N   UNL     1       1.797   8.497  18.228  0.00  0.00    +0.000 N 
ATOM      8  C   UNL     1       2.241   7.329  18.802  0.00  0.00    +0.000 C 
ATOM      9  O   UNL     1       2.333   7.194  20.023  0.00  0.00    +0.000 OA
ATOM     10  H   UNL     1       1.956   8.657  17.243  0.00  0.00    +0.000 HD
BRANCH   7  11
ATOM     11  C   UNL     1       1.499   9.687  19.008  0.00  0.00    +0.000 C 
BRANCH  11  17
ATOM     12  C   UNL     1      -0.555  11.053  19.712  0.00  0.00    +0.000 A 
ATOM     13  C   UNL     1      -1.816  11.583  19.396  0.00  0.00    +0.000 A 
ATOM     14  C   UNL     1      -2.498  11.169  18.253  0.00  0.00    +0.000 A 
ATOM     15  C   UNL     1      -1.908  10.254  17.393  0.00  0.00    +0.000 A 
ATOM     16  C   UNL     1      -0.621   9.789  17.655  0.00  0.00    +0.000 A 
ATOM     17  C   UNL     1       0.081  10.181  18.810  0.00  0.00    +0.000 A 
BRANCH  12  18
ATOM     18  O   UNL     1       0.104  11.347  20.881  0.00  0.00    +0.000 OA
BRANCH  18  20
ATOM     19  C   UNL     1       0.164   9.675  22.610  0.00  0.00    +0.000 C 
ATOM     20  C   UNL     1      -0.546  10.906  22.078  0.00  0.00    +0.000 C 
ENDBRANCH  18  20
ENDBRANCH  12  18
ENDBRANCH  11  17
ENDBRANCH   7  11
ENDBRANCH   1   8
BRANCH   5  21
ATOM     21  S   UNL     1       6.560   5.804  17.978  0.00  0.00    +0.000 S 
ATOM     22  O   UNL     1       6.854   7.194  17.699  0.00  0.00    +0.000 OA
ATOM     23  O   UNL     1       7.357   5.044  18.934  0.00  0.00    +0.000 OA
BRANCH  21  24
ATOM     24  C   UNL     1       6.583   4.881  16.467  0.00  0.00    +0.000 A 
ATOM     25  C   UNL     1       5.671   3.841  16.245  0.00  0.00    +0.000 A 
ATOM     26  C   UNL     1       5.543   3.273  14.971  0.00  0.00    +0.000 A 
ATOM     27  C   UNL     1       6.304   3.842  13.936  0.00  0.00    +0.000 A 
ATOM     28  C   UNL     1       7.313   4.779  14.197  0.00  0.00    +0.000 A 
ATOM     29  C   UNL     1       7.921   5.134  12.970  0.00  0.00    +0.000 A 
ATOM     30  C   UNL     1       7.075   4.682  11.993  0.00  0.00    +0.000 A 
ATOM     31  N   UNL     1       6.316   3.687  12.565  0.00  0.00    +0.000 N 
ATOM     32  C   UNL     1       5.733   2.644  11.757  0.00  0.00    +0.000 C 
ATOM     33  C   UNL     1       7.520   5.244  15.505  0.00  0.00    +0.000 A 
ENDBRANCH  21  24
ENDBRANCH   5  21
TORSDOF 7
ENDMDL
MODEL 9
REMARK VINA RESULT:      -7.7      3.521      7.593
REMARK  Name = 
REMARK  9 active torsions:
REMARK  status: ('A' for Active; 'I' for Inactive)
REMARK    1  A    between atoms: C_1  and  C_2
REMARK    2  A    between atoms: C_2  and  O_3
REMARK    3  A    between atoms: O_3  and  C_4
REMARK    4  A    between atoms: C_9  and  C_10
REMARK    5  A    between atoms: C_10  and  N_11
REMARK    6  A    between atoms: C_12  and  C_14
REMARK    7  A    between atoms: N_18  and  S_19
REMARK    8  A    between atoms: S_19  and  C_22
REMARK    9  A    between atoms: N_29  and  C_30
REMARK                            x       y       z     vdW  Elec       q    Type
REMARK                         _______ _______ _______ _____ _____    ______ ____
ROOT
ATOM      1  C   UNL     1       0.913   4.225  20.319  0.00  0.00    +0.000 C 
ATOM      2  C   UNL     1       1.077   3.036  21.278  0.00  0.00    +0.000 C 
ATOM      3  C   UNL     1       2.532   2.571  21.328  0.00  0.00    +0.000 C 
ATOM      4  C   UNL     1       3.112   2.288  19.938  0.00  0.00    +0.000 C 
ATOM      5  N   UNL     1       2.879   3.440  19.006  0.00  0.00    +0.000 NA
ATOM      6  C   UNL     1       1.431   3.808  18.950  0.00  0.00    +0.000 C 
ENDROOT
BRANCH   1   8
ATOM      7  N   UNL     1       0.817   6.673  20.764  0.00  0.00    +0.000 N 
ATOM      8  C   UNL     1       1.513   5.499  20.931  0.00  0.00    +0.000 C 
ATOM      9  O   UNL     1       2.544   5.440  21.604  0.00  0.00    +0.000 OA
ATOM     10  H   UNL     1       0.126   6.739  20.029  0.00  0.00    +0.000 HD
BRANCH   7  11
ATOM     11  C   UNL     1       1.294   7.945  21.280  0.00  0.00    +0.000 C 
BRANCH  11  17
ATOM     12  C   UNL     1       1.130  10.405  20.572  0.00  0.00    +0.000 A 
ATOM     13  C   UNL     1       1.264  11.383  19.574  0.00  0.00    +0.000 A 
ATOM     14  C   UNL     1       1.428  11.023  18.238  0.00  0.00    +0.000 A 
ATOM     15  C   UNL     1       1.502   9.681  17.892  0.00  0.00    +0.000 A 
ATOM     16  C   UNL     1       1.457   8.706  18.886  0.00  0.00    +0.000 A 
ATOM     17  C   UNL     1       1.277   9.046  20.240  0.00  0.00    +0.000 A 
BRANCH  12  18
ATOM     18  O   UNL     1       0.856  10.712  21.883  0.00  0.00    +0.000 OA
BRANCH  18  20
ATOM     19  C   UNL     1      -1.180  10.519  23.149  0.00  0.00    +0.000 C 
ATOM     20  C   UNL     1      -0.417  11.325  22.115  0.00  0.00    +0.000 C 
ENDBRANCH  18  20
ENDBRANCH  12  18
ENDBRANCH  11  17
ENDBRANCH   7  11
ENDBRANCH   1   8
BRANCH   5  21
ATOM     21  S   UNL     1       3.513   3.216  17.403  0.00  0.00    +0.000 S 
ATOM     22  O   UNL     1       4.113   1.900  17.348  0.00  0.00    +0.000 OA
ATOM     23  O   UNL     1       2.459   3.602  16.472  0.00  0.00    +0.000 OA
BRANCH  21  24
ATOM     24  C   UNL     1       4.778   4.448  17.258  0.00  0.00    +0.000 A 
ATOM     25  C   UNL     1       4.540   5.647  16.576  0.00  0.00    +0.000 A 
ATOM     26  C   UNL     1       5.455   6.704  16.661  0.00  0.00    +0.000 A 
ATOM     27  C   UNL     1       6.560   6.527  17.512  0.00  0.00    +0.000 A 
ATOM     28  C   UNL     1       6.862   5.279  18.073  0.00  0.00    +0.000 A 
ATOM     29  C   UNL     1       8.042   5.409  18.842  0.00  0.00    +0.000 A 
ATOM     30  C   UNL     1       8.231   6.755  19.005  0.00  0.00    +0.000 A 
ATOM     31  N   UNL     1       7.545   7.371  17.984  0.00  0.00    +0.000 N 
ATOM     32  C   UNL     1       7.937   8.676  17.511  0.00  0.00    +0.000 C 
ATOM     33  C   UNL     1       6.001   4.189  17.869  0.00  0.00    +0.000 A 
ENDBRANCH  21  24
ENDBRANCH   5  21
TORSDOF 7
ENDMDL
