MODEL 1
REMARK VINA RESULT:      -7.7      0.000      0.000
REMARK  Name = 
REMARK  9 active torsions:
REMARK  status: ('A' for Active; 'I' for Inactive)
REMARK    1  A    between atoms: C_1  and  C_2
REMARK    2  A    between atoms: C_2  and  O_3
REMARK    3  A    between atoms: C_2  and  C_4
REMARK    4  A    between atoms: C_4  and  N_5
REMARK    5  A    between atoms: N_5  and  C_6
REMARK    6  A    between atoms: C_6  and  C_7
REMARK    7  A    between atoms: C_7  and  N_8
REMARK    8  A    between atoms: N_8  and  C_9
REMARK    9  A    between atoms: C_9  and  C_10
REMARK                            x       y       z     vdW  Elec       q    Type
REMARK                         _______ _______ _______ _____ _____    ______ ____
ROOT
ATOM      1  C   UNL     1       4.380   6.472  16.760  0.00  0.00    +0.000 A 
ATOM      2  C   UNL     1       4.012   7.751  17.209  0.00  0.00    +0.000 A 
ATOM      3  C   UNL     1       3.172   7.914  18.306  0.00  0.00    +0.000 A 
ATOM      4  C   UNL     1       2.670   6.800  18.984  0.00  0.00    +0.000 A 
ATOM      5  C   UNL     1       1.814   6.966  20.082  0.00  0.00    +0.000 A 
ATOM      6  C   UNL     1       1.304   5.856  20.756  0.00  0.00    +0.000 A 
ATOM      7  C   UNL     1       1.646   4.561  20.349  0.00  0.00    +0.000 A 
ATOM      8  C   UNL     1       1.135   3.440  21.021  0.00  0.00    +0.000 A 
ATOM      9  C   UNL     1       1.484   2.152  20.608  0.00  0.00    +0.000 A 
ATOM     10  C   UNL     1       2.342   1.967  19.521  0.00  0.00    +0.000 A 
ATOM     11  C   UNL     1       2.861   3.075  18.832  0.00  0.00    +0.000 A 
ATOM     12  C   UNL     1       3.716   2.902  17.737  0.00  0.00    +0.000 A 
ATOM     13  C   UNL     1       4.221   4.009  17.049  0.00  0.00    +0.000 A 
ATOM     14  C   UNL     1       3.888   5.324  17.444  0.00  0.00    +0.000 A 
ATOM     15  C   UNL     1       3.026   5.500  18.557  0.00  0.00    +0.000 A 
ATOM     16  C   UNL     1       2.513   4.376  19.246  0.00  0.00    +0.000 A 
ENDROOT
BRANCH   1  17
ATOM     17  C   UNL     1       5.290   6.378  15.558  0.00  0.00    +0.000 C 
BRANCH  17  18
ATOM     18  N   UNL     1       6.679   6.263  15.997  0.00  0.00    +0.000 NA
ATOM     19  H   UNL     1       7.227   7.073  15.618  0.00  0.00    +0.000 HD
BRANCH  18  20
ATOM     20  C   UNL     1       7.280   5.015  15.518  0.00  0.00    +0.000 C 
BRANCH  20  21
ATOM     21  C   UNL     1       7.080   4.890  14.009  0.00  0.00    +0.000 C 
BRANCH  21  22
ATOM     22  N   UNL     1       6.511   3.577  13.678  0.00  0.00    +0.000 NA
ATOM     23  H   UNL     1       7.156   2.830  14.026  0.00  0.00    +0.000 HD
BRANCH  22  24
ATOM     24  C   UNL     1       6.384   3.429  12.227  0.00  0.00    +0.000 C 
BRANCH  24  26
ATOM     25  C   UNL     1       4.182   3.095  11.042  0.00  0.00    +0.000 C 
ATOM     26  C   UNL     1       5.271   2.425  11.883  0.00  0.00    +0.000 C 
BRANCH  26  27
ATOM     27  O   UNL     1       5.786   1.300  11.214  0.00  0.00    +0.000 OA
ATOM     28  H   UNL     1       5.032   0.676  11.044  0.00  0.00    +0.000 HD
ENDBRANCH  26  27
ENDBRANCH  24  26
ENDBRANCH  22  24
ENDBRANCH  21  22
ENDBRANCH  20  21
ENDBRANCH  18  20
ENDBRANCH  17  18
ENDBRANCH   1  17
TORSDOF 8
ENDMDL
MODEL 2
REMARK VINA RESULT:      -7.3      4.069      6.825
REMARK  Name = 
REMARK  9 active torsions:
REMARK  status: ('A' for Active; 'I' for Inactive)
REMARK    1  A    between atoms: C_1  and  C_2
REMARK    2  A    between atoms: C_2  and  O_3
REMARK    3  A    between atoms: C_2  and  C_4
REMARK    4  A    between atoms: C_4  and  N_5
REMARK    5  A    between atoms: N_5  and  C_6
REMARK    6  A    between atoms: C_6  and  C_7
REMARK    7  A    between atoms: C_7  and  N_8
REMARK    8  A    between atoms: N_8  and  C_9
REMARK    9  A    between atoms: C_9  and  C_10
REMARK                            x       y       z     vdW  Elec       q    Type
REMARK                         _______ _______ _______ _____ _____    ______ ____
ROOT
ATOM      1  C   UNL     1       1.953   7.880  19.436  0.00  0.00    +0.000 A 
ATOM      2  C   UNL     1       2.198   8.443  18.172  0.00  0.00    +0.000 A 
ATOM      3  C   UNL     1       1.695   9.696  17.834  0.00  0.00    +0.000 A 
ATOM      4  C   UNL     1       0.925  10.420  18.749  0.00  0.00    +0.000 A 
ATOM      5  C   UNL     1       0.409  11.676  18.401  0.00  0.00    +0.000 A 
ATOM      6  C   UNL     1      -0.367  12.398  19.309  0.00  0.00    +0.000 A 
ATOM      7  C   UNL     1      -0.634  11.880  20.583  0.00  0.00    +0.000 A 
ATOM      8  C   UNL     1      -1.415  12.600  21.499  0.00  0.00    +0.000 A 
ATOM      9  C   UNL     1      -1.674  12.075  22.767  0.00  0.00    +0.000 A 
ATOM     10  C   UNL     1      -1.161  10.828  23.134  0.00  0.00    +0.000 A 
ATOM     11  C   UNL     1      -0.381  10.089  22.230  0.00  0.00    +0.000 A 
ATOM     12  C   UNL     1       0.133   8.836  22.584  0.00  0.00    +0.000 A 
ATOM     13  C   UNL     1       0.900   8.101  21.675  0.00  0.00    +0.000 A 
ATOM     14  C   UNL     1       1.181   8.606  20.386  0.00  0.00    +0.000 A 
ATOM     15  C   UNL     1       0.666   9.880  20.029  0.00  0.00    +0.000 A 
ATOM     16  C   UNL     1      -0.115  10.616  20.950  0.00  0.00    +0.000 A 
ENDROOT
BRANCH   1  17
ATOM     17  C   UNL     1       2.529   6.514  19.724  0.00  0.00    +0.000 C 
BRANCH  17  18
ATOM     18  N   UNL     1       3.151   5.973  18.518  0.00  0.00    +0.000 NA
ATOM     19  H   UNL     1       2.615   5.128  18.204  0.00  0.00    +0.000 HD
BRANCH  18  20
ATOM     20  C   UNL     1       4.543   5.590  18.771  0.00  0.00    +0.000 C 
BRANCH  20  21
ATOM     21  C   UNL     1       4.676   4.068  18.726  0.00  0.00    +0.000 C 
BRANCH  21  22
ATOM     22  N   UNL     1       3.661   3.494  17.833  0.00  0.00    +0.000 NA
ATOM     23  H   UNL     1       2.992   4.248  17.551  0.00  0.00    +0.000 HD
BRANCH  22  24
ATOM     24  C   UNL     1       2.905   2.451  18.528  0.00  0.00    +0.000 C 
BRANCH  24  26
ATOM     25  C   UNL     1       0.933   3.142  19.942  0.00  0.00    +0.000 C 
ATOM     26  C   UNL     1       1.403   2.784  18.530  0.00  0.00    +0.000 C 
BRANCH  26  27
ATOM     27  O   UNL     1       1.110   3.829  17.635  0.00  0.00    +0.000 OA
ATOM     28  H   UNL     1       1.498   4.664  18.007  0.00  0.00    +0.000 HD
ENDBRANCH  26  27
ENDBRANCH  24  26
ENDBRANCH  22  24
ENDBRANCH  21  22
ENDBRANCH  20  21
ENDBRANCH  18  20
ENDBRANCH  17  18
ENDBRANCH   1  17
TORSDOF 8
ENDMDL
MODEL 3
REMARK VINA RESULT:      -7.3      3.836      6.320
REMARK  Name = 
REMARK  9 active torsions:
REMARK  status: ('A' for Active; 'I' for Inactive)
REMARK    1  A    between atoms: C_1  and  C_2
REMARK    2  A    between atoms: C_2  and  O_3
REMARK    3  A    between atoms: C_2  and  C_4
REMARK    4  A    between atoms: C_4  and  N_5
REMARK    5  A    between atoms: N_5  and  C_6
REMARK    6  A    between atoms: C_6  and  C_7
REMARK    7  A    between atoms: C_7  and  N_8
REMARK    8  A    between atoms: N_8  and  C_9
REMARK    9  A    between atoms: C_9  and  C_10
REMARK                            x       y       z     vdW  Elec       q    Type
REMARK                         _______ _______ _______ _____ _____    ______ ____
ROOT
ATOM      1  C   UNL     1       1.916   7.796  19.333  0.00  0.00    +0.000 A 
ATOM      2  C   UNL     1       2.326   8.413  18.140  0.00  0.00    +0.000 A 
ATOM      3  C   UNL     1       2.029   9.748  17.882  0.00  0.00    +0.000 A 
ATOM      4  C   UNL     1       1.308  10.504  18.811  0.00  0.00    +0.000 A 
ATOM      5  C   UNL     1       0.999  11.845  18.544  0.00  0.00    +0.000 A 
ATOM      6  C   UNL     1       0.272  12.601  19.465  0.00  0.00    +0.000 A 
ATOM      7  C   UNL     1      -0.154  12.030  20.671  0.00  0.00    +0.000 A 
ATOM      8  C   UNL     1      -0.887  12.784  21.599  0.00  0.00    +0.000 A 
ATOM      9  C   UNL     1      -1.306  12.206  22.800  0.00  0.00    +0.000 A 
ATOM     10  C   UNL     1      -1.001  10.873  23.087  0.00  0.00    +0.000 A 
ATOM     11  C   UNL     1      -0.272  10.100  22.169  0.00  0.00    +0.000 A 
ATOM     12  C   UNL     1       0.033   8.761  22.441  0.00  0.00    +0.000 A 
ATOM     13  C   UNL     1       0.751   7.995  21.519  0.00  0.00    +0.000 A 
ATOM     14  C   UNL     1       1.189   8.551  20.296  0.00  0.00    +0.000 A 
ATOM     15  C   UNL     1       0.885   9.910  20.022  0.00  0.00    +0.000 A 
ATOM     16  C   UNL     1       0.154  10.679  20.957  0.00  0.00    +0.000 A 
ENDROOT
BRANCH   1  17
ATOM     17  C   UNL     1       2.271   6.341  19.535  0.00  0.00    +0.000 C 
BRANCH  17  18
ATOM     18  N   UNL     1       3.711   6.208  19.744  0.00  0.00    +0.000 NA
ATOM     19  H   UNL     1       4.174   7.126  19.538  0.00  0.00    +0.000 HD
BRANCH  18  20
ATOM     20  C   UNL     1       4.276   5.180  18.866  0.00  0.00    +0.000 C 
BRANCH  20  21
ATOM     21  C   UNL     1       5.747   4.954  19.214  0.00  0.00    +0.000 C 
BRANCH  21  22
ATOM     22  N   UNL     1       6.378   4.083  18.214  0.00  0.00    +0.000 NA
ATOM     23  H   UNL     1       6.961   3.367  18.707  0.00  0.00    +0.000 HD
BRANCH  22  24
ATOM     24  C   UNL     1       7.258   4.863  17.343  0.00  0.00    +0.000 C 
BRANCH  24  26
ATOM     25  C   UNL     1       5.579   4.205  15.579  0.00  0.00    +0.000 C 
ATOM     26  C   UNL     1       7.059   4.459  15.872  0.00  0.00    +0.000 C 
BRANCH  26  27
ATOM     27  O   UNL     1       7.572   5.436  15.000  0.00  0.00    +0.000 OA
ATOM     28  H   UNL     1       7.596   6.299  15.491  0.00  0.00    +0.000 HD
ENDBRANCH  26  27
ENDBRANCH  24  26
ENDBRANCH  22  24
ENDBRANCH  21  22
ENDBRANCH  20  21
ENDBRANCH  18  20
ENDBRANCH  17  18
ENDBRANCH   1  17
TORSDOF 8
ENDMDL
MODEL 4
REMARK VINA RESULT:      -7.3      4.061      6.792
REMARK  Name = 
REMARK  9 active torsions:
REMARK  status: ('A' for Active; 'I' for Inactive)
REMARK    1  A    between atoms: C_1  and  C_2
REMARK    2  A    between atoms: C_2  and  O_3
REMARK    3  A    between atoms: C_2  and  C_4
REMARK    4  A    between atoms: C_4  and  N_5
REMARK    5  A    between atoms: N_5  and  C_6
REMARK    6  A    between atoms: C_6  and  C_7
REMARK    7  A    between atoms: C_7  and  N_8
REMARK    8  A    between atoms: N_8  and  C_9
REMARK    9  A    between atoms: C_9  and  C_10
REMARK                            x       y       z     vdW  Elec       q    Type
REMARK                         _______ _______ _______ _____ _____    ______ ____
ROOT
ATOM      1  C   UNL     1       1.904   7.950  19.534  0.00  0.00    +0.000 A 
ATOM      2  C   UNL     1       2.235   8.499  18.284  0.00  0.00    +0.000 A 
ATOM      3  C   UNL     1       1.820   9.780  17.930  0.00  0.00    +0.000 A 
ATOM      4  C   UNL     1       1.057  10.546  18.815  0.00  0.00    +0.000 A 
ATOM      5  C   UNL     1       0.630  11.831  18.451  0.00  0.00    +0.000 A 
ATOM      6  C   UNL     1      -0.140  12.596  19.328  0.00  0.00    +0.000 A 
ATOM      7  C   UNL     1      -0.490  12.092  20.587  0.00  0.00    +0.000 A 
ATOM      8  C   UNL     1      -1.265  12.856  21.473  0.00  0.00    +0.000 A 
ATOM      9  C   UNL     1      -1.607  12.345  22.728  0.00  0.00    +0.000 A 
ATOM     10  C   UNL     1      -1.184  11.070  23.111  0.00  0.00    +0.000 A 
ATOM     11  C   UNL     1      -0.411  10.287  22.237  0.00  0.00    +0.000 A 
ATOM     12  C   UNL     1       0.013   9.006  22.607  0.00  0.00    +0.000 A 
ATOM     13  C   UNL     1       0.773   8.229  21.728  0.00  0.00    +0.000 A 
ATOM     14  C   UNL     1       1.137   8.718  20.454  0.00  0.00    +0.000 A 
ATOM     15  C   UNL     1       0.712  10.020  20.080  0.00  0.00    +0.000 A 
ATOM     16  C   UNL     1      -0.062  10.799  20.971  0.00  0.00    +0.000 A 
ENDROOT
BRANCH   1  17
ATOM     17  C   UNL     1       2.386   6.551  19.841  0.00  0.00    +0.000 C 
BRANCH  17  18
ATOM     18  N   UNL     1       3.359   6.130  18.835  0.00  0.00    +0.000 NA
ATOM     19  H   UNL     1       2.896   5.471  18.164  0.00  0.00    +0.000 HD
BRANCH  18  20
ATOM     20  C   UNL     1       4.500   5.454  19.458  0.00  0.00    +0.000 C 
BRANCH  20  21
ATOM     21  C   UNL     1       5.103   4.448  18.479  0.00  0.00    +0.000 C 
BRANCH  21  22
ATOM     22  N   UNL     1       5.255   3.138  19.124  0.00  0.00    +0.000 NA
ATOM     23  H   UNL     1       5.520   2.431  18.399  0.00  0.00    +0.000 HD
BRANCH  22  24
ATOM     24  C   UNL     1       3.988   2.718  19.725  0.00  0.00    +0.000 C 
BRANCH  24  26
ATOM     25  C   UNL     1       2.279   2.213  17.939  0.00  0.00    +0.000 C 
ATOM     26  C   UNL     1       3.328   1.615  18.879  0.00  0.00    +0.000 C 
BRANCH  26  27
ATOM     27  O   UNL     1       4.286   0.889  18.149  0.00  0.00    +0.000 OA
ATOM     28  H   UNL     1       4.126   1.061  17.184  0.00  0.00    +0.000 HD
ENDBRANCH  26  27
ENDBRANCH  24  26
ENDBRANCH  22  24
ENDBRANCH  21  22
ENDBRANCH  20  21
ENDBRANCH  18  20
ENDBRANCH  17  18
ENDBRANCH   1  17
TORSDOF 8
ENDMDL
MODEL 5
REMARK VINA RESULT:      -7.3      4.294      7.154
REMARK  Name = 
REMARK  9 active torsions:
REMARK  status: ('A' for Active; 'I' for Inactive)
REMARK    1  A    between atoms: C_1  and  C_2
REMARK    2  A    between atoms: C_2  and  O_3
REMARK    3  A    between atoms: C_2  and  C_4
REMARK    4  A    between atoms: C_4  and  N_5
REMARK    5  A    between atoms: N_5  and  C_6
REMARK    6  A    between atoms: C_6  and  C_7
REMARK    7  A    between atoms: C_7  and  N_8
REMARK    8  A    between atoms: N_8  and  C_9
REMARK    9  A    between atoms: C_9  and  C_10
REMARK                            x       y       z     vdW  Elec       q    Type
REMARK                         _______ _______ _______ _____ _____    ______ ____
ROOT
ATOM      1  C   UNL     1       2.048   7.876  19.228  0.00  0.00    +0.000 A 
ATOM      2  C   UNL     1       2.392   8.562  18.051  0.00  0.00    +0.000 A 
ATOM      3  C   UNL     1       1.994   9.879  17.844  0.00  0.00    +0.000 A 
ATOM      4  C   UNL     1       1.233  10.547  18.808  0.00  0.00    +0.000 A 
ATOM      5  C   UNL     1       0.823  11.870  18.592  0.00  0.00    +0.000 A 
ATOM      6  C   UNL     1       0.056  12.539  19.548  0.00  0.00    +0.000 A 
ATOM      7  C   UNL     1      -0.307  11.898  20.739  0.00  0.00    +0.000 A 
ATOM      8  C   UNL     1      -1.079  12.564  21.703  0.00  0.00    +0.000 A 
ATOM      9  C   UNL     1      -1.435  11.916  22.889  0.00  0.00    +0.000 A 
ATOM     10  C   UNL     1      -1.028  10.600  23.125  0.00  0.00    +0.000 A 
ATOM     11  C   UNL     1      -0.258   9.915  22.171  0.00  0.00    +0.000 A 
ATOM     12  C   UNL     1       0.149   8.594  22.393  0.00  0.00    +0.000 A 
ATOM     13  C   UNL     1       0.907   7.915  21.434  0.00  0.00    +0.000 A 
ATOM     14  C   UNL     1       1.283   8.543  20.226  0.00  0.00    +0.000 A 
ATOM     15  C   UNL     1       0.875   9.884  20.003  0.00  0.00    +0.000 A 
ATOM     16  C   UNL     1       0.104  10.565  20.974  0.00  0.00    +0.000 A 
ENDROOT
BRANCH   1  17
ATOM     17  C   UNL     1       2.513   6.446  19.375  0.00  0.00    +0.000 C 
BRANCH  17  18
ATOM     18  N   UNL     1       3.158   6.006  18.140  0.00  0.00    +0.000 NA
ATOM     19  H   UNL     1       2.550   6.263  17.325  0.00  0.00    +0.000 HD
BRANCH  18  20
ATOM     20  C   UNL     1       3.364   4.555  18.143  0.00  0.00    +0.000 C 
BRANCH  20  21
ATOM     21  C   UNL     1       2.275   3.876  17.314  0.00  0.00    +0.000 C 
BRANCH  21  22
ATOM     22  N   UNL     1       1.623   2.819  18.099  0.00  0.00    +0.000 NA
ATOM     23  H   UNL     1       0.657   3.131  18.351  0.00  0.00    +0.000 HD
BRANCH  22  24
ATOM     24  C   UNL     1       2.361   2.578  19.339  0.00  0.00    +0.000 C 
BRANCH  24  26
ATOM     25  C   UNL     1       2.180   3.359  21.731  0.00  0.00    +0.000 C 
ATOM     26  C   UNL     1       1.433   2.723  20.557  0.00  0.00    +0.000 C 
BRANCH  26  27
ATOM     27  O   UNL     1       0.287   3.474  20.239  0.00  0.00    +0.000 OA
ATOM     28  H   UNL     1      -0.444   2.836  20.029  0.00  0.00    +0.000 HD
ENDBRANCH  26  27
ENDBRANCH  24  26
ENDBRANCH  22  24
ENDBRANCH  21  22
ENDBRANCH  20  21
ENDBRANCH  18  20
ENDBRANCH  17  18
ENDBRANCH   1  17
TORSDOF 8
ENDMDL
MODEL 6
REMARK VINA RESULT:      -7.3      4.154      7.635
REMARK  Name = 
REMARK  9 active torsions:
REMARK  status: ('A' for Active; 'I' for Inactive)
REMARK    1  A    between atoms: C_1  and  C_2
REMARK    2  A    between atoms: C_2  and  O_3
REMARK    3  A    between atoms: C_2  and  C_4
REMARK    4  A    between atoms: C_4  and  N_5
REMARK    5  A    between atoms: N_5  and  C_6
REMARK    6  A    between atoms: C_6  and  C_7
REMARK    7  A    between atoms: C_7  and  N_8
REMARK    8  A    between atoms: N_8  and  C_9
REMARK    9  A    between atoms: C_9  and  C_10
REMARK                            x       y       z     vdW  Elec       q    Type
REMARK                         _______ _______ _______ _____ _____    ______ ____
ROOT
ATOM      1  C   UNL     1       2.113   6.698  19.835  0.00  0.00    +0.000 A 
ATOM      2  C   UNL     1       1.651   5.589  20.563  0.00  0.00    +0.000 A 
ATOM      3  C   UNL     1       2.029   4.295  20.219  0.00  0.00    +0.000 A 
ATOM      4  C   UNL     1       2.876   4.072  19.129  0.00  0.00    +0.000 A 
ATOM      5  C   UNL     1       3.246   2.767  18.776  0.00  0.00    +0.000 A 
ATOM      6  C   UNL     1       4.084   2.540  17.684  0.00  0.00    +0.000 A 
ATOM      7  C   UNL     1       4.573   3.614  16.930  0.00  0.00    +0.000 A 
ATOM      8  C   UNL     1       5.415   3.392  15.830  0.00  0.00    +0.000 A 
ATOM      9  C   UNL     1       5.899   4.471  15.086  0.00  0.00    +0.000 A 
ATOM     10  C   UNL     1       5.548   5.779  15.428  0.00  0.00    +0.000 A 
ATOM     11  C   UNL     1       4.703   6.023  16.523  0.00  0.00    +0.000 A 
ATOM     12  C   UNL     1       4.339   7.329  16.871  0.00  0.00    +0.000 A 
ATOM     13  C   UNL     1       3.489   7.563  17.956  0.00  0.00    +0.000 A 
ATOM     14  C   UNL     1       2.985   6.493  18.729  0.00  0.00    +0.000 A 
ATOM     15  C   UNL     1       3.359   5.169  18.380  0.00  0.00    +0.000 A 
ATOM     16  C   UNL     1       4.214   4.938  17.277  0.00  0.00    +0.000 A 
ENDROOT
BRANCH   1  17
ATOM     17  C   UNL     1       1.652   8.070  20.268  0.00  0.00    +0.000 C 
BRANCH  17  18
ATOM     18  N   UNL     1       1.729   8.182  21.723  0.00  0.00    +0.000 NA
ATOM     19  H   UNL     1       1.295   7.331  22.156  0.00  0.00    +0.000 HD
BRANCH  18  20
ATOM     20  C   UNL     1       1.019   9.373  22.197  0.00  0.00    +0.000 C 
BRANCH  20  21
ATOM     21  C   UNL     1      -0.345   9.468  21.516  0.00  0.00    +0.000 C 
BRANCH  21  22
ATOM     22  N   UNL     1      -0.665  10.868  21.212  0.00  0.00    +0.000 NA
ATOM     23  H   UNL     1      -1.705  10.988  21.219  0.00  0.00    +0.000 HD
BRANCH  22  24
ATOM     24  C   UNL     1      -0.177  11.224  19.878  0.00  0.00    +0.000 C 
BRANCH  24  26
ATOM     25  C   UNL     1      -2.157  11.119  18.320  0.00  0.00    +0.000 C 
ATOM     26  C   UNL     1      -0.897  10.397  18.800  0.00  0.00    +0.000 C 
BRANCH  26  27
ATOM     27  O   UNL     1      -0.046  10.119  17.716  0.00  0.00    +0.000 OA
ATOM     28  H   UNL     1      -0.550   9.557  17.071  0.00  0.00    +0.000 HD
ENDBRANCH  26  27
ENDBRANCH  24  26
ENDBRANCH  22  24
ENDBRANCH  21  22
ENDBRANCH  20  21
ENDBRANCH  18  20
ENDBRANCH  17  18
ENDBRANCH   1  17
TORSDOF 8
ENDMDL
MODEL 7
REMARK VINA RESULT:      -7.3      1.015      1.245
REMARK  Name = 
REMARK  9 active torsions:
REMARK  status: ('A' for Active; 'I' for Inactive)
REMARK    1  A    between atoms: C_1  and  C_2
REMARK    2  A    between atoms: C_2  and  O_3
REMARK    3  A    between atoms: C_2  and  C_4
REMARK    4  A    between atoms: C_4  and  N_5
REMARK    5  A    between atoms: N_5  and  C_6
REMARK    6  A    between atoms: C_6  and  C_7
REMARK    7  A    between atoms: C_7  and  N_8
REMARK    8  A    between atoms: N_8  and  C_9
REMARK    9  A    between atoms: C_9  and  C_10
REMARK                            x       y       z     vdW  Elec       q    Type
REMARK                         _______ _______ _______ _____ _____    ______ ____
ROOT
ATOM      1  C   UNL     1       4.959   5.094  16.252  0.00  0.00    +0.000 A 
ATOM      2  C   UNL     1       4.955   6.497  16.335  0.00  0.00    +0.000 A 
ATOM      3  C   UNL     1       4.211   7.157  17.309  0.00  0.00    +0.000 A 
ATOM      4  C   UNL     1       3.442   6.431  18.223  0.00  0.00    +0.000 A 
ATOM      5  C   UNL     1       2.683   7.098  19.195  0.00  0.00    +0.000 A 
ATOM      6  C   UNL     1       1.908   6.378  20.105  0.00  0.00    +0.000 A 
ATOM      7  C   UNL     1       1.884   4.978  20.063  0.00  0.00    +0.000 A 
ATOM      8  C   UNL     1       1.105   4.249  20.974  0.00  0.00    +0.000 A 
ATOM      9  C   UNL     1       1.090   2.853  20.926  0.00  0.00    +0.000 A 
ATOM     10  C   UNL     1       1.846   2.170  19.970  0.00  0.00    +0.000 A 
ATOM     11  C   UNL     1       2.629   2.882  19.046  0.00  0.00    +0.000 A 
ATOM     12  C   UNL     1       3.386   2.210  18.079  0.00  0.00    +0.000 A 
ATOM     13  C   UNL     1       4.155   2.925  17.157  0.00  0.00    +0.000 A 
ATOM     14  C   UNL     1       4.192   4.337  17.181  0.00  0.00    +0.000 A 
ATOM     15  C   UNL     1       3.430   5.019  18.165  0.00  0.00    +0.000 A 
ATOM     16  C   UNL     1       2.649   4.290  19.093  0.00  0.00    +0.000 A 
ENDROOT
BRANCH   1  17
ATOM     17  C   UNL     1       5.789   4.453  15.163  0.00  0.00    +0.000 C 
BRANCH  17  18
ATOM     18  N   UNL     1       6.405   5.488  14.336  0.00  0.00    +0.000 NA
ATOM     19  H   UNL     1       5.858   5.587  13.447  0.00  0.00    +0.000 HD
BRANCH  18  20
ATOM     20  C   UNL     1       7.791   5.142  14.009  0.00  0.00    +0.000 C 
BRANCH  20  21
ATOM     21  C   UNL     1       8.030   5.325  12.510  0.00  0.00    +0.000 C 
BRANCH  21  22
ATOM     22  N   UNL     1       6.962   4.673  11.742  0.00  0.00    +0.000 NA
ATOM     23  H   UNL     1       6.044   4.860  12.210  0.00  0.00    +0.000 HD
BRANCH  22  24
ATOM     24  C   UNL     1       7.169   3.225  11.711  0.00  0.00    +0.000 C 
BRANCH  24  26
ATOM     25  C   UNL     1       4.651   3.317  11.572  0.00  0.00    +0.000 C 
ATOM     26  C   UNL     1       5.856   2.485  12.016  0.00  0.00    +0.000 C 
BRANCH  26  27
ATOM     27  O   UNL     1       5.830   1.217  11.407  0.00  0.00    +0.000 OA
ATOM     28  H   UNL     1       6.302   1.290  10.536  0.00  0.00    +0.000 HD
ENDBRANCH  26  27
ENDBRANCH  24  26
ENDBRANCH  22  24
ENDBRANCH  21  22
ENDBRANCH  20  21
ENDBRANCH  18  20
ENDBRANCH  17  18
ENDBRANCH   1  17
TORSDOF 8
ENDMDL
MODEL 8
REMARK VINA RESULT:      -7.2      4.122      6.841
REMARK  Name = 
REMARK  9 active torsions:
REMARK  status: ('A' for Active; 'I' for Inactive)
REMARK    1  A    between atoms: C_1  and  C_2
REMARK    2  A    between atoms: C_2  and  O_3
REMARK    3  A    between atoms: C_2  and  C_4
REMARK    4  A    between atoms: C_4  and  N_5
REMARK    5  A    between atoms: N_5  and  C_6
REMARK    6  A    between atoms: C_6  and  C_7
REMARK    7  A    between atoms: C_7  and  N_8
REMARK    8  A    between atoms: N_8  and  C_9
REMARK    9  A    between atoms: C_9  and  C_10
REMARK                            x       y       z     vdW  Elec       q    Type
REMARK                         _______ _______ _______ _____ _____    ______ ____
ROOT
ATOM      1  C   UNL     1       1.794   7.806  19.668  0.00  0.00    +0.000 A 
ATOM      2  C   UNL     1       2.222   8.271  18.414  0.00  0.00    +0.000 A 
ATOM      3  C   UNL     1       1.958   9.574  18.001  0.00  0.00    +0.000 A 
ATOM      4  C   UNL     1       1.250  10.448  18.831  0.00  0.00    +0.000 A 
ATOM      5  C   UNL     1       0.973  11.756  18.408  0.00  0.00    +0.000 A 
ATOM      6  C   UNL     1       0.260  12.629  19.230  0.00  0.00    +0.000 A 
ATOM      7  C   UNL     1      -0.184  12.212  20.491  0.00  0.00    +0.000 A 
ATOM      8  C   UNL     1      -0.903  13.085  21.321  0.00  0.00    +0.000 A 
ATOM      9  C   UNL     1      -1.340  12.660  22.578  0.00  0.00    +0.000 A 
ATOM     10  C   UNL     1      -1.067  11.363  23.019  0.00  0.00    +0.000 A 
ATOM     11  C   UNL     1      -0.352  10.472  22.203  0.00  0.00    +0.000 A 
ATOM     12  C   UNL     1      -0.078   9.168  22.631  0.00  0.00    +0.000 A 
ATOM     13  C   UNL     1       0.625   8.284  21.808  0.00  0.00    +0.000 A 
ATOM     14  C   UNL     1       1.081   8.684  20.532  0.00  0.00    +0.000 A 
ATOM     15  C   UNL     1       0.809  10.009  20.100  0.00  0.00    +0.000 A 
ATOM     16  C   UNL     1       0.092  10.897  20.934  0.00  0.00    +0.000 A 
ENDROOT
BRANCH   1  17
ATOM     17  C   UNL     1       2.115   6.377  20.040  0.00  0.00    +0.000 C 
BRANCH  17  18
ATOM     18  N   UNL     1       3.519   6.095  19.752  0.00  0.00    +0.000 NA
ATOM     19  H   UNL     1       3.923   6.889  19.199  0.00  0.00    +0.000 HD
BRANCH  18  20
ATOM     20  C   UNL     1       3.659   4.856  18.982  0.00  0.00    +0.000 C 
BRANCH  20  21
ATOM     21  C   UNL     1       4.857   4.059  19.495  0.00  0.00    +0.000 C 
BRANCH  21  22
ATOM     22  N   UNL     1       5.697   3.623  18.372  0.00  0.00    +0.000 NA
ATOM     23  H   UNL     1       6.624   3.309  18.743  0.00  0.00    +0.000 HD
BRANCH  22  24
ATOM     24  C   UNL     1       5.930   4.735  17.449  0.00  0.00    +0.000 C 
BRANCH  24  26
ATOM     25  C   UNL     1       7.655   6.252  18.491  0.00  0.00    +0.000 C 
ATOM     26  C   UNL     1       7.411   5.147  17.462  0.00  0.00    +0.000 C 
BRANCH  26  27
ATOM     27  O   UNL     1       8.246   4.044  17.718  0.00  0.00    +0.000 OA
ATOM     28  H   UNL     1       7.713   3.219  17.569  0.00  0.00    +0.000 HD
ENDBRANCH  26  27
ENDBRANCH  24  26
ENDBRANCH  22  24
ENDBRANCH  21  22
ENDBRANCH  20  21
ENDBRANCH  18  20
ENDBRANCH  17  18
ENDBRANCH   1  17
TORSDOF 8
ENDMDL
MODEL 9
REMARK VINA RESULT:      -7.2      5.386      9.028
REMARK  Name = 
REMARK  9 active torsions:
REMARK  status: ('A' for Active; 'I' for Inactive)
REMARK    1  A    between atoms: C_1  and  C_2
REMARK    2  A    between atoms: C_2  and  O_3
REMARK    3  A    between atoms: C_2  and  C_4
REMARK    4  A    between atoms: C_4  and  N_5
REMARK    5  A    between atoms: N_5  and  C_6
REMARK    6  A    between atoms: C_6  and  C_7
REMARK    7  A    between atoms: C_7  and  N_8
REMARK    8  A    between atoms: N_8  and  C_9
REMARK    9  A    between atoms: C_9  and  C_10
REMARK                            x       y       z     vdW  Elec       q    Type
REMARK                         _______ _______ _______ _____ _____    ______ ____
ROOT
ATOM      1  C   UNL     1       2.096   6.918  19.816  0.00  0.00    +0.000 A 
ATOM      2  C   UNL     1       1.597   5.845  20.574  0.00  0.00    +0.000 A 
ATOM      3  C   UNL     1       1.939   4.530  20.271  0.00  0.00    +0.000 A 
ATOM      4  C   UNL     1       2.787   4.251  19.195  0.00  0.00    +0.000 A 
ATOM      5  C   UNL     1       3.120   2.925  18.884  0.00  0.00    +0.000 A 
ATOM      6  C   UNL     1       3.959   2.641  17.805  0.00  0.00    +0.000 A 
ATOM      7  C   UNL     1       4.485   3.677  17.024  0.00  0.00    +0.000 A 
ATOM      8  C   UNL     1       5.327   3.398  15.938  0.00  0.00    +0.000 A 
ATOM      9  C   UNL     1       5.848   4.439  15.166  0.00  0.00    +0.000 A 
ATOM     10  C   UNL     1       5.533   5.767  15.466  0.00  0.00    +0.000 A 
ATOM     11  C   UNL     1       4.688   6.068  16.546  0.00  0.00    +0.000 A 
ATOM     12  C   UNL     1       4.360   7.394  16.853  0.00  0.00    +0.000 A 
ATOM     13  C   UNL     1       3.510   7.685  17.924  0.00  0.00    +0.000 A 
ATOM     14  C   UNL     1       2.969   6.654  18.724  0.00  0.00    +0.000 A 
ATOM     15  C   UNL     1       3.306   5.310  18.417  0.00  0.00    +0.000 A 
ATOM     16  C   UNL     1       4.162   5.021  17.329  0.00  0.00    +0.000 A 
ENDROOT
BRANCH   1  17
ATOM     17  C   UNL     1       1.673   8.315  20.205  0.00  0.00    +0.000 C 
BRANCH  17  18
ATOM     18  N   UNL     1       1.346   8.355  21.629  0.00  0.00    +0.000 NA
ATOM     19  H   UNL     1       1.344   7.378  22.008  0.00  0.00    +0.000 HD
BRANCH  18  20
ATOM     20  C   UNL     1       0.027   8.955  21.848  0.00  0.00    +0.000 C 
BRANCH  20  21
ATOM     21  C   UNL     1      -0.069   9.487  23.277  0.00  0.00    +0.000 C 
BRANCH  21  22
ATOM     22  N   UNL     1      -0.281  10.940  23.265  0.00  0.00    +0.000 NA
ATOM     23  H   UNL     1      -0.463  11.265  24.243  0.00  0.00    +0.000 HD
BRANCH  22  24
ATOM     24  C   UNL     1      -1.448  11.278  22.449  0.00  0.00    +0.000 C 
BRANCH  24  26
ATOM     25  C   UNL     1      -1.872  13.589  23.368  0.00  0.00    +0.000 C 
ATOM     26  C   UNL     1      -2.422  12.167  23.240  0.00  0.00    +0.000 C 
BRANCH  26  27
ATOM     27  O   UNL     1      -3.696  12.183  22.646  0.00  0.00    +0.000 OA
ATOM     28  H   UNL     1      -3.829  11.312  22.188  0.00  0.00    +0.000 HD
ENDBRANCH  26  27
ENDBRANCH  24  26
ENDBRANCH  22  24
ENDBRANCH  21  22
ENDBRANCH  20  21
ENDBRANCH  18  20
ENDBRANCH  17  18
ENDBRANCH   1  17
TORSDOF 8
ENDMDL
