MODEL 1
REMARK VINA RESULT:      -7.8      0.000      0.000
REMARK  Name = 
REMARK  3 active torsions:
REMARK  status: ('A' for Active; 'I' for Inactive)
REMARK    1  A    between atoms: C_2  and  C_19
REMARK    2  A    between atoms: N_3  and  C_4
REMARK    3  A    between atoms: C_9  and  C_10
REMARK                            x       y       z     vdW  Elec       q    Type
REMARK                         _______ _______ _______ _____ _____    ______ ____
ROOT
ATOM      1  C   UNL     1       1.967   5.863  20.456  0.00  0.00    +0.000 A 
ATOM      2  C   UNL     1       1.280   4.654  20.459  0.00  0.00    +0.000 A 
ATOM      3  C   UNL     1       1.864   3.522  19.885  0.00  0.00    +0.000 A 
ATOM      4  C   UNL     1       3.158   3.587  19.347  0.00  0.00    +0.000 A 
ATOM      5 CL   UNL     1       3.789   2.117  18.688  0.00  0.00    +0.000 Cl
ATOM      6  C   UNL     1       3.863   4.801  19.350  0.00  0.00    +0.000 A 
ATOM      7  C   UNL     1       3.258   5.935  19.921  0.00  0.00    +0.000 A 
ENDROOT
BRANCH   6   8
ATOM      8  C   UNL     1       5.294   4.865  18.941  0.00  0.00    +0.000 C 
ATOM      9  O   UNL     1       6.131   4.656  19.820  0.00  0.00    +0.000 OA
ATOM     10  N   UNL     1       5.668   5.167  17.632  0.00  0.00    +0.000 N 
ATOM     11  C   UNL     1       4.791   5.586  16.527  0.00  0.00    +0.000 C 
ATOM     12  C   UNL     1       5.310   5.131  15.158  0.00  0.00    +0.000 C 
ATOM     13  O   UNL     1       6.699   5.438  14.969  0.00  0.00    +0.000 OA
ATOM     14  C   UNL     1       7.488   4.821  15.998  0.00  0.00    +0.000 C 
ATOM     15  C   UNL     1       7.096   5.381  17.365  0.00  0.00    +0.000 C 
ENDBRANCH   6   8
BRANCH   1  18
ATOM     16  O   UNL     1       1.677   8.481  19.335  0.00  0.00    +0.000 OA
ATOM     17  C   UNL     1       1.302   8.237  20.478  0.00  0.00    +0.000 C 
ATOM     18  N   UNL     1       1.360   6.979  21.055  0.00  0.00    +0.000 N 
ATOM     19  H   UNL     1       0.744   6.831  21.846  0.00  0.00    +0.000 HD
BRANCH  17  20
ATOM     20  C   UNL     1       0.672   9.233  21.325  0.00  0.00    +0.000 A 
ATOM     21  C   UNL     1      -0.078   9.102  22.478  0.00  0.00    +0.000 A 
ATOM     22  C   UNL     1      -0.520  10.400  22.828  0.00  0.00    +0.000 A 
ATOM     23  C   UNL     1      -0.003  11.248  21.878  0.00  0.00    +0.000 A 
ATOM     24  O   UNL     1       0.750  10.558  20.981  0.00  0.00    +0.000 OA
ENDBRANCH  17  20
ENDBRANCH   1  18
TORSDOF 3
ENDMDL
MODEL 2
REMARK VINA RESULT:      -7.4      1.386      1.730
REMARK  Name = 
REMARK  3 active torsions:
REMARK  status: ('A' for Active; 'I' for Inactive)
REMARK    1  A    between atoms: C_2  and  C_19
REMARK    2  A    between atoms: N_3  and  C_4
REMARK    3  A    between atoms: C_9  and  C_10
REMARK                            x       y       z     vdW  Elec       q    Type
REMARK                         _______ _______ _______ _____ _____    ______ ____
ROOT
ATOM      1  C   UNL     1       2.062   5.341  20.449  0.00  0.00    +0.000 A 
ATOM      2  C   UNL     1       2.184   4.285  21.345  0.00  0.00    +0.000 A 
ATOM      3  C   UNL     1       2.729   3.071  20.918  0.00  0.00    +0.000 A 
ATOM      4  C   UNL     1       3.195   2.926  19.602  0.00  0.00    +0.000 A 
ATOM      5 CL   UNL     1       3.873   1.388  19.194  0.00  0.00    +0.000 Cl
ATOM      6  C   UNL     1       3.085   3.991  18.694  0.00  0.00    +0.000 A 
ATOM      7  C   UNL     1       2.525   5.204  19.135  0.00  0.00    +0.000 A 
ENDROOT
BRANCH   6   8
ATOM      8  C   UNL     1       3.719   3.927  17.348  0.00  0.00    +0.000 C 
ATOM      9  O   UNL     1       3.001   3.568  16.414  0.00  0.00    +0.000 OA
ATOM     10  N   UNL     1       5.066   4.236  17.158  0.00  0.00    +0.000 N 
ATOM     11  C   UNL     1       6.070   4.526  18.194  0.00  0.00    +0.000 C 
ATOM     12  C   UNL     1       7.151   5.500  17.711  0.00  0.00    +0.000 C 
ATOM     13  O   UNL     1       7.696   5.125  16.437  0.00  0.00    +0.000 OA
ATOM     14  C   UNL     1       6.653   5.056  15.452  0.00  0.00    +0.000 C 
ATOM     15  C   UNL     1       5.643   3.973  15.834  0.00  0.00    +0.000 C 
ENDBRANCH   6   8
BRANCH   1  18
ATOM     16  O   UNL     1       2.234   7.903  19.182  0.00  0.00    +0.000 OA
ATOM     17  C   UNL     1       1.694   7.773  20.276  0.00  0.00    +0.000 C 
ATOM     18  N   UNL     1       1.527   6.553  20.912  0.00  0.00    +0.000 N 
ATOM     19  H   UNL     1       0.803   6.526  21.622  0.00  0.00    +0.000 HD
BRANCH  17  20
ATOM     20  C   UNL     1       1.089   8.884  20.988  0.00  0.00    +0.000 A 
ATOM     21  C   UNL     1       0.449   8.939  22.211  0.00  0.00    +0.000 A 
ATOM     22  C   UNL     1      -0.026  10.262  22.364  0.00  0.00    +0.000 A 
ATOM     23  C   UNL     1       0.361  10.940  21.233  0.00  0.00    +0.000 A 
ATOM     24  O   UNL     1       1.068  10.126  20.407  0.00  0.00    +0.000 OA
ENDBRANCH  17  20
ENDBRANCH   1  18
TORSDOF 3
ENDMDL
MODEL 3
REMARK VINA RESULT:      -7.2      3.826      6.794
REMARK  Name = 
REMARK  3 active torsions:
REMARK  status: ('A' for Active; 'I' for Inactive)
REMARK    1  A    between atoms: C_2  and  C_19
REMARK    2  A    between atoms: N_3  and  C_4
REMARK    3  A    between atoms: C_9  and  C_10
REMARK                            x       y       z     vdW  Elec       q    Type
REMARK                         _______ _______ _______ _____ _____    ______ ____
ROOT
ATOM      1  C   UNL     1       7.648   6.880  18.088  0.00  0.00    +0.000 A 
ATOM      2  C   UNL     1       7.661   6.710  16.708  0.00  0.00    +0.000 A 
ATOM      3  C   UNL     1       6.899   5.693  16.126  0.00  0.00    +0.000 A 
ATOM      4  C   UNL     1       6.087   4.871  16.922  0.00  0.00    +0.000 A 
ATOM      5 CL   UNL     1       5.169   3.664  16.089  0.00  0.00    +0.000 Cl
ATOM      6  C   UNL     1       6.060   5.042  18.315  0.00  0.00    +0.000 A 
ATOM      7  C   UNL     1       6.840   6.063  18.888  0.00  0.00    +0.000 A 
ENDROOT
BRANCH   6   8
ATOM      8  C   UNL     1       5.087   4.302  19.166  0.00  0.00    +0.000 C 
ATOM      9  O   UNL     1       5.433   3.188  19.561  0.00  0.00    +0.000 OA
ATOM     10  N   UNL     1       3.837   4.835  19.480  0.00  0.00    +0.000 N 
ATOM     11  C   UNL     1       3.236   6.071  18.956  0.00  0.00    +0.000 C 
ATOM     12  C   UNL     1       2.297   6.744  19.964  0.00  0.00    +0.000 C 
ATOM     13  O   UNL     1       1.362   5.821  20.541  0.00  0.00    +0.000 OA
ATOM     14  C   UNL     1       2.060   4.750  21.193  0.00  0.00    +0.000 C 
ATOM     15  C   UNL     1       2.881   3.962  20.172  0.00  0.00    +0.000 C 
ENDBRANCH   6   8
BRANCH   1  18
ATOM     16  O   UNL     1       7.458   9.672  17.482  0.00  0.00    +0.000 OA
ATOM     17  C   UNL     1       8.305   9.250  18.263  0.00  0.00    +0.000 C 
ATOM     18  N   UNL     1       8.410   7.921  18.641  0.00  0.00    +0.000 N 
ATOM     19  H   UNL     1       8.910   7.750  19.507  0.00  0.00    +0.000 HD
BRANCH  17  20
ATOM     20  C   UNL     1       9.245  10.121  18.945  0.00  0.00    +0.000 A 
ATOM     21  C   UNL     1       9.316  10.524  20.265  0.00  0.00    +0.000 A 
ATOM     22  C   UNL     1      10.380  11.452  20.352  0.00  0.00    +0.000 A 
ATOM     23  C   UNL     1      10.904  11.552  19.085  0.00  0.00    +0.000 A 
ATOM     24  O   UNL     1      10.248  10.724  18.230  0.00  0.00    +0.000 OA
ENDBRANCH  17  20
ENDBRANCH   1  18
TORSDOF 3
ENDMDL
MODEL 4
REMARK VINA RESULT:      -7.1      0.878      1.105
REMARK  Name = 
REMARK  3 active torsions:
REMARK  status: ('A' for Active; 'I' for Inactive)
REMARK    1  A    between atoms: C_2  and  C_19
REMARK    2  A    between atoms: N_3  and  C_4
REMARK    3  A    between atoms: C_9  and  C_10
REMARK                            x       y       z     vdW  Elec       q    Type
REMARK                         _______ _______ _______ _____ _____    ______ ____
ROOT
ATOM      1  C   UNL     1       2.157   6.289  20.163  0.00  0.00    +0.000 A 
ATOM      2  C   UNL     1       1.569   5.106  20.596  0.00  0.00    +0.000 A 
ATOM      3  C   UNL     1       2.224   3.889  20.390  0.00  0.00    +0.000 A 
ATOM      4  C   UNL     1       3.491   3.858  19.787  0.00  0.00    +0.000 A 
ATOM      5 CL   UNL     1       4.216   2.299  19.607  0.00  0.00    +0.000 Cl
ATOM      6  C   UNL     1       4.096   5.050  19.356  0.00  0.00    +0.000 A 
ATOM      7  C   UNL     1       3.420   6.266  19.561  0.00  0.00    +0.000 A 
ENDROOT
BRANCH   6   8
ATOM      8  C   UNL     1       5.504   5.069  18.869  0.00  0.00    +0.000 C 
ATOM      9  O   UNL     1       6.384   4.900  19.714  0.00  0.00    +0.000 OA
ATOM     10  N   UNL     1       5.810   5.290  17.527  0.00  0.00    +0.000 N 
ATOM     11  C   UNL     1       4.880   5.657  16.447  0.00  0.00    +0.000 C 
ATOM     12  C   UNL     1       5.320   5.116  15.081  0.00  0.00    +0.000 C 
ATOM     13  O   UNL     1       6.700   5.392  14.802  0.00  0.00    +0.000 OA
ATOM     14  C   UNL     1       7.536   4.824  15.822  0.00  0.00    +0.000 C 
ATOM     15  C   UNL     1       7.224   5.469  17.173  0.00  0.00    +0.000 C 
ENDBRANCH   6   8
BRANCH   1  18
ATOM     16  O   UNL     1       1.841   8.478  18.343  0.00  0.00    +0.000 OA
ATOM     17  C   UNL     1       1.413   8.542  19.492  0.00  0.00    +0.000 C 
ATOM     18  N   UNL     1       1.482   7.498  20.399  0.00  0.00    +0.000 N 
ATOM     19  H   UNL     1       0.828   7.546  21.173  0.00  0.00    +0.000 HD
BRANCH  17  20
ATOM     20  C   UNL     1       0.706   9.704  20.000  0.00  0.00    +0.000 A 
ATOM     21  C   UNL     1      -0.176  10.572  19.385  0.00  0.00    +0.000 A 
ATOM     22  C   UNL     1      -0.483  11.579  20.329  0.00  0.00    +0.000 A 
ATOM     23  C   UNL     1       0.218  11.262  21.467  0.00  0.00    +0.000 A 
ATOM     24  O   UNL     1       0.916  10.109  21.293  0.00  0.00    +0.000 OA
ENDBRANCH  17  20
ENDBRANCH   1  18
TORSDOF 3
ENDMDL
MODEL 5
REMARK VINA RESULT:      -7.1      1.175      1.382
REMARK  Name = 
REMARK  3 active torsions:
REMARK  status: ('A' for Active; 'I' for Inactive)
REMARK    1  A    between atoms: C_2  and  C_19
REMARK    2  A    between atoms: N_3  and  C_4
REMARK    3  A    between atoms: C_9  and  C_10
REMARK                            x       y       z     vdW  Elec       q    Type
REMARK                         _______ _______ _______ _____ _____    ______ ____
ROOT
ATOM      1  C   UNL     1       2.163   6.858  19.880  0.00  0.00    +0.000 A 
ATOM      2  C   UNL     1       1.513   5.809  20.519  0.00  0.00    +0.000 A 
ATOM      3  C   UNL     1       2.101   4.541  20.548  0.00  0.00    +0.000 A 
ATOM      4  C   UNL     1       3.364   4.332  19.974  0.00  0.00    +0.000 A 
ATOM      5 CL   UNL     1       4.004   2.730  20.093  0.00  0.00    +0.000 Cl
ATOM      6  C   UNL     1       4.033   5.389  19.336  0.00  0.00    +0.000 A 
ATOM      7  C   UNL     1       3.424   6.657  19.306  0.00  0.00    +0.000 A 
ENDROOT
BRANCH   6   8
ATOM      8  C   UNL     1       5.439   5.244  18.868  0.00  0.00    +0.000 C 
ATOM      9  O   UNL     1       6.284   4.984  19.725  0.00  0.00    +0.000 OA
ATOM     10  N   UNL     1       5.785   5.415  17.527  0.00  0.00    +0.000 N 
ATOM     11  C   UNL     1       4.916   5.875  16.432  0.00  0.00    +0.000 C 
ATOM     12  C   UNL     1       5.308   5.275  15.077  0.00  0.00    +0.000 C 
ATOM     13  O   UNL     1       6.714   5.388  14.814  0.00  0.00    +0.000 OA
ATOM     14  C   UNL     1       7.467   4.739  15.850  0.00  0.00    +0.000 C 
ATOM     15  C   UNL     1       7.214   5.428  17.191  0.00  0.00    +0.000 C 
ENDBRANCH   6   8
BRANCH   1  18
ATOM     16  O   UNL     1       1.598   8.499  22.157  0.00  0.00    +0.000 OA
ATOM     17  C   UNL     1       1.259   8.843  21.029  0.00  0.00    +0.000 C 
ATOM     18  N   UNL     1       1.555   8.124  19.883  0.00  0.00    +0.000 N 
ATOM     19  H   UNL     1       1.518   8.647  19.015  0.00  0.00    +0.000 HD
BRANCH  17  20
ATOM     20  C   UNL     1       0.578  10.098  20.764  0.00  0.00    +0.000 A 
ATOM     21  C   UNL     1      -0.357  10.440  19.806  0.00  0.00    +0.000 A 
ATOM     22  C   UNL     1      -0.603  11.825  19.951  0.00  0.00    +0.000 A 
ATOM     23  C   UNL     1       0.185  12.245  20.996  0.00  0.00    +0.000 A 
ATOM     24  O   UNL     1       0.880  11.202  21.520  0.00  0.00    +0.000 OA
ENDBRANCH  17  20
ENDBRANCH   1  18
TORSDOF 3
ENDMDL
MODEL 6
REMARK VINA RESULT:      -7.1      2.260      2.673
REMARK  Name = 
REMARK  3 active torsions:
REMARK  status: ('A' for Active; 'I' for Inactive)
REMARK    1  A    between atoms: C_2  and  C_19
REMARK    2  A    between atoms: N_3  and  C_4
REMARK    3  A    between atoms: C_9  and  C_10
REMARK                            x       y       z     vdW  Elec       q    Type
REMARK                         _______ _______ _______ _____ _____    ______ ____
ROOT
ATOM      1  C   UNL     1       2.071   7.046  19.470  0.00  0.00    +0.000 A 
ATOM      2  C   UNL     1       1.882   6.394  20.684  0.00  0.00    +0.000 A 
ATOM      3  C   UNL     1       2.190   5.036  20.799  0.00  0.00    +0.000 A 
ATOM      4  C   UNL     1       2.730   4.336  19.709  0.00  0.00    +0.000 A 
ATOM      5 CL   UNL     1       3.097   2.667  19.975  0.00  0.00    +0.000 Cl
ATOM      6  C   UNL     1       2.934   4.990  18.482  0.00  0.00    +0.000 A 
ATOM      7  C   UNL     1       2.610   6.355  18.379  0.00  0.00    +0.000 A 
ENDROOT
BRANCH   6   8
ATOM      8  C   UNL     1       3.658   4.324  17.364  0.00  0.00    +0.000 C 
ATOM      9  O   UNL     1       3.008   3.538  16.673  0.00  0.00    +0.000 OA
ATOM     10  N   UNL     1       5.011   4.562  17.124  0.00  0.00    +0.000 N 
ATOM     11  C   UNL     1       5.941   5.347  17.953  0.00  0.00    +0.000 C 
ATOM     12  C   UNL     1       7.042   6.022  17.126  0.00  0.00    +0.000 C 
ATOM     13  O   UNL     1       7.675   5.113  16.213  0.00  0.00    +0.000 OA
ATOM     14  C   UNL     1       6.701   4.545  15.323  0.00  0.00    +0.000 C 
ATOM     15  C   UNL     1       5.680   3.730  16.116  0.00  0.00    +0.000 C 
ENDBRANCH   6   8
BRANCH   1  18
ATOM     16  O   UNL     1       2.324   8.742  17.178  0.00  0.00    +0.000 OA
ATOM     17  C   UNL     1       1.967   9.192  18.262  0.00  0.00    +0.000 C 
ATOM     18  N   UNL     1       1.768   8.415  19.391  0.00  0.00    +0.000 N 
ATOM     19  H   UNL     1       1.178   8.824  20.107  0.00  0.00    +0.000 HD
BRANCH  17  20
ATOM     20  C   UNL     1       1.628  10.590  18.456  0.00  0.00    +0.000 A 
ATOM     21  C   UNL     1       2.301  11.746  18.108  0.00  0.00    +0.000 A 
ATOM     22  C   UNL     1       1.553  12.827  18.629  0.00  0.00    +0.000 A 
ATOM     23  C   UNL     1       0.461  12.271  19.252  0.00  0.00    +0.000 A 
ATOM     24  O   UNL     1       0.476  10.918  19.124  0.00  0.00    +0.000 OA
ENDBRANCH  17  20
ENDBRANCH   1  18
TORSDOF 3
ENDMDL
MODEL 7
REMARK VINA RESULT:      -7.0      1.821      2.248
REMARK  Name = 
REMARK  3 active torsions:
REMARK  status: ('A' for Active; 'I' for Inactive)
REMARK    1  A    between atoms: C_2  and  C_19
REMARK    2  A    between atoms: N_3  and  C_4
REMARK    3  A    between atoms: C_9  and  C_10
REMARK                            x       y       z     vdW  Elec       q    Type
REMARK                         _______ _______ _______ _____ _____    ______ ____
ROOT
ATOM      1  C   UNL     1       2.104   6.920  19.690  0.00  0.00    +0.000 A 
ATOM      2  C   UNL     1       1.869   6.193  20.852  0.00  0.00    +0.000 A 
ATOM      3  C   UNL     1       2.118   4.818  20.873  0.00  0.00    +0.000 A 
ATOM      4  C   UNL     1       2.643   4.174  19.743  0.00  0.00    +0.000 A 
ATOM      5 CL   UNL     1       2.934   2.476  19.893  0.00  0.00    +0.000 Cl
ATOM      6  C   UNL     1       2.893   4.903  18.568  0.00  0.00    +0.000 A 
ATOM      7  C   UNL     1       2.628   6.284  18.559  0.00  0.00    +0.000 A 
ENDROOT
BRANCH   6   8
ATOM      8  C   UNL     1       3.603   4.287  17.414  0.00  0.00    +0.000 C 
ATOM      9  O   UNL     1       2.919   3.628  16.630  0.00  0.00    +0.000 OA
ATOM     10  N   UNL     1       4.980   4.430  17.241  0.00  0.00    +0.000 N 
ATOM     11  C   UNL     1       5.937   5.051  18.171  0.00  0.00    +0.000 C 
ATOM     12  C   UNL     1       7.121   5.705  17.450  0.00  0.00    +0.000 C 
ATOM     13  O   UNL     1       7.713   4.836  16.473  0.00  0.00    +0.000 OA
ATOM     14  C   UNL     1       6.733   4.440  15.501  0.00  0.00    +0.000 C 
ATOM     15  C   UNL     1       5.617   3.644  16.178  0.00  0.00    +0.000 C 
ENDBRANCH   6   8
BRANCH   1  18
ATOM     16  O   UNL     1       0.221   8.327  21.326  0.00  0.00    +0.000 OA
ATOM     17  C   UNL     1       0.893   8.915  20.484  0.00  0.00    +0.000 C 
ATOM     18  N   UNL     1       1.861   8.303  19.705  0.00  0.00    +0.000 N 
ATOM     19  H   UNL     1       2.554   8.922  19.300  0.00  0.00    +0.000 HD
BRANCH  17  20
ATOM     20  C   UNL     1       0.805  10.349  20.274  0.00  0.00    +0.000 A 
ATOM     21  C   UNL     1       0.463  11.084  19.154  0.00  0.00    +0.000 A 
ATOM     22  C   UNL     1       0.638  12.446  19.491  0.00  0.00    +0.000 A 
ATOM     23  C   UNL     1       1.064  12.465  20.798  0.00  0.00    +0.000 A 
ATOM     24  O   UNL     1       1.136  11.202  21.295  0.00  0.00    +0.000 OA
ENDBRANCH  17  20
ENDBRANCH   1  18
TORSDOF 3
ENDMDL
MODEL 8
REMARK VINA RESULT:      -6.9      3.544      6.681
REMARK  Name = 
REMARK  3 active torsions:
REMARK  status: ('A' for Active; 'I' for Inactive)
REMARK    1  A    between atoms: C_2  and  C_19
REMARK    2  A    between atoms: N_3  and  C_4
REMARK    3  A    between atoms: C_9  and  C_10
REMARK                            x       y       z     vdW  Elec       q    Type
REMARK                         _______ _______ _______ _____ _____    ______ ____
ROOT
ATOM      1  C   UNL     1       6.362   7.025  17.172  0.00  0.00    +0.000 A 
ATOM      2  C   UNL     1       6.822   6.099  16.243  0.00  0.00    +0.000 A 
ATOM      3  C   UNL     1       6.113   4.912  16.036  0.00  0.00    +0.000 A 
ATOM      4  C   UNL     1       4.917   4.669  16.728  0.00  0.00    +0.000 A 
ATOM      5 CL   UNL     1       4.114   3.180  16.371  0.00  0.00    +0.000 Cl
ATOM      6  C   UNL     1       4.440   5.604  17.661  0.00  0.00    +0.000 A 
ATOM      7  C   UNL     1       5.169   6.790  17.866  0.00  0.00    +0.000 A 
ENDROOT
BRANCH   6   8
ATOM      8  C   UNL     1       3.096   5.456  18.284  0.00  0.00    +0.000 C 
ATOM      9  O   UNL     1       2.199   6.176  17.843  0.00  0.00    +0.000 OA
ATOM     10  N   UNL     1       2.869   4.563  19.331  0.00  0.00    +0.000 N 
ATOM     11  C   UNL     1       3.870   3.762  20.055  0.00  0.00    +0.000 C 
ATOM     12  C   UNL     1       3.306   2.431  20.562  0.00  0.00    +0.000 C 
ATOM     13  O   UNL     1       2.057   2.592  21.250  0.00  0.00    +0.000 OA
ATOM     14  C   UNL     1       1.091   3.213  20.388  0.00  0.00    +0.000 C 
ATOM     15  C   UNL     1       1.562   4.614  19.997  0.00  0.00    +0.000 C 
ENDBRANCH   6   8
BRANCH   1  18
ATOM     16  O   UNL     1       8.587   7.455  18.922  0.00  0.00    +0.000 OA
ATOM     17  C   UNL     1       8.121   8.372  18.254  0.00  0.00    +0.000 C 
ATOM     18  N   UNL     1       7.086   8.215  17.346  0.00  0.00    +0.000 N 
ATOM     19  H   UNL     1       7.010   8.938  16.639  0.00  0.00    +0.000 HD
BRANCH  17  20
ATOM     20  C   UNL     1       8.668   9.717  18.280  0.00  0.00    +0.000 A 
ATOM     21  C   UNL     1       9.685  10.269  19.033  0.00  0.00    +0.000 A 
ATOM     22  C   UNL     1       9.728  11.647  18.715  0.00  0.00    +0.000 A 
ATOM     23  C   UNL     1       8.744  11.852  17.778  0.00  0.00    +0.000 A 
ATOM     24  O   UNL     1       8.117  10.684  17.479  0.00  0.00    +0.000 OA
ENDBRANCH  17  20
ENDBRANCH   1  18
TORSDOF 3
ENDMDL
MODEL 9
REMARK VINA RESULT:      -6.9      4.172      8.821
REMARK  Name = 
REMARK  3 active torsions:
REMARK  status: ('A' for Active; 'I' for Inactive)
REMARK    1  A    between atoms: C_2  and  C_19
REMARK    2  A    between atoms: N_3  and  C_4
REMARK    3  A    between atoms: C_9  and  C_10
REMARK                            x       y       z     vdW  Elec       q    Type
REMARK                         _______ _______ _______ _____ _____    ______ ____
ROOT
ATOM      1  C   UNL     1       5.542   4.457  15.324  0.00  0.00    +0.000 A 
ATOM      2  C   UNL     1       5.330   5.825  15.196  0.00  0.00    +0.000 A 
ATOM      3  C   UNL     1       4.783   6.547  16.261  0.00  0.00    +0.000 A 
ATOM      4  C   UNL     1       4.488   5.907  17.474  0.00  0.00    +0.000 A 
ATOM      5 CL   UNL     1       3.840   6.905  18.729  0.00  0.00    +0.000 Cl
ATOM      6  C   UNL     1       4.709   4.527  17.616  0.00  0.00    +0.000 A 
ATOM      7  C   UNL     1       5.250   3.812  16.532  0.00  0.00    +0.000 A 
ENDROOT
BRANCH   6   8
ATOM      8  C   UNL     1       4.565   3.854  18.936  0.00  0.00    +0.000 C 
ATOM      9  O   UNL     1       5.604   3.630  19.560  0.00  0.00    +0.000 OA
ATOM     10  N   UNL     1       3.318   3.475  19.432  0.00  0.00    +0.000 N 
ATOM     11  C   UNL     1       2.023   3.538  18.736  0.00  0.00    +0.000 C 
ATOM     12  C   UNL     1       0.850   3.775  19.693  0.00  0.00    +0.000 C 
ATOM     13  O   UNL     1       0.879   2.893  20.824  0.00  0.00    +0.000 OA
ATOM     14  C   UNL     1       2.111   3.050  21.544  0.00  0.00    +0.000 C 
ATOM     15  C   UNL     1       3.291   2.661  20.654  0.00  0.00    +0.000 C 
ENDBRANCH   6   8
BRANCH   1  18
ATOM     16  O   UNL     1       4.330   3.926  12.786  0.00  0.00    +0.000 OA
ATOM     17  C   UNL     1       5.445   3.492  13.058  0.00  0.00    +0.000 C 
ATOM     18  N   UNL     1       6.109   3.763  14.244  0.00  0.00    +0.000 N 
ATOM     19  H   UNL     1       7.115   3.634  14.222  0.00  0.00    +0.000 HD
BRANCH  17  20
ATOM     20  C   UNL     1       6.232   2.709  12.122  0.00  0.00    +0.000 A 
ATOM     21  C   UNL     1       7.493   2.919  11.598  0.00  0.00    +0.000 A 
ATOM     22  C   UNL     1       7.721   1.886  10.658  0.00  0.00    +0.000 A 
ATOM     23  C   UNL     1       6.593   1.100  10.673  0.00  0.00    +0.000 A 
ATOM     24  O   UNL     1       5.697   1.569  11.581  0.00  0.00    +0.000 OA
ENDBRANCH  17  20
ENDBRANCH   1  18
TORSDOF 3
ENDMDL
