MODEL 1
REMARK VINA RESULT:      -6.6      0.000      0.000
REMARK  Name = 
REMARK  2 active torsions:
REMARK  status: ('A' for Active; 'I' for Inactive)
REMARK    1  A    between atoms: C_1  and  C_2
REMARK    2  A    between atoms: C_9  and  N_10
REMARK                            x       y       z     vdW  Elec       q    Type
REMARK                         _______ _______ _______ _____ _____    ______ ____
ROOT
ATOM      1  C   UNL     1       2.742   7.263  18.595  0.00  0.00    +0.000 C 
ATOM      2  C   UNL     1       2.911   5.845  18.111  0.00  0.00    +0.000 A 
ATOM      3  C   UNL     1       1.984   4.872  18.526  0.00  0.00    +0.000 A 
ATOM      4  C   UNL     1       2.118   3.544  18.122  0.00  0.00    +0.000 A 
ATOM      5 CL   UNL     1       0.956   2.338  18.643  0.00  0.00    +0.000 Cl
ATOM      6  C   UNL     1       3.197   3.165  17.329  0.00  0.00    +0.000 A 
ATOM      7  C   UNL     1       4.132   4.104  16.903  0.00  0.00    +0.000 A 
ATOM      8 CL   UNL     1       5.514   3.467  16.008  0.00  0.00    +0.000 Cl
ATOM      9  C   UNL     1       3.981   5.472  17.260  0.00  0.00    +0.000 A 
ENDROOT
BRANCH   9  10
ATOM     10  N   UNL     1       4.923   6.466  16.837  0.00  0.00    +0.000 NA
ATOM     11  C   UNL     1       6.098   6.659  17.352  0.00  0.00    +0.000 C 
ATOM     12  N   UNL     1       6.893   7.767  17.050  0.00  0.00    +0.000 N 
ATOM     13  C   UNL     1       8.001   7.811  17.977  0.00  0.00    +0.000 C 
ATOM     14  C   UNL     1       7.937   6.471  18.753  0.00  0.00    +0.000 C 
ATOM     15  N   UNL     1       6.715   5.842  18.311  0.00  0.00    +0.000 N 
ATOM     16  H   UNL     1       6.645   8.518  16.390  0.00  0.00    +0.000 HD
ATOM     17  H   UNL     1       6.384   4.919  18.630  0.00  0.00    +0.000 HD
ENDBRANCH   9  10
TORSDOF 1
ENDMDL
MODEL 2
REMARK VINA RESULT:      -6.5      1.475      2.332
REMARK  Name = 
REMARK  2 active torsions:
REMARK  status: ('A' for Active; 'I' for Inactive)
REMARK    1  A    between atoms: C_1  and  C_2
REMARK    2  A    between atoms: C_9  and  N_10
REMARK                            x       y       z     vdW  Elec       q    Type
REMARK                         _______ _______ _______ _____ _____    ______ ____
ROOT
ATOM      1  C   UNL     1       5.224   3.673  15.954  0.00  0.00    +0.000 C 
ATOM      2  C   UNL     1       4.123   4.150  16.866  0.00  0.00    +0.000 A 
ATOM      3  C   UNL     1       3.155   3.226  17.302  0.00  0.00    +0.000 A 
ATOM      4  C   UNL     1       2.105   3.631  18.126  0.00  0.00    +0.000 A 
ATOM      5 CL   UNL     1       0.906   2.472  18.667  0.00  0.00    +0.000 Cl
ATOM      6  C   UNL     1       1.988   4.968  18.495  0.00  0.00    +0.000 A 
ATOM      7  C   UNL     1       2.927   5.907  18.078  0.00  0.00    +0.000 A 
ATOM      8 CL   UNL     1       2.589   7.584  18.514  0.00  0.00    +0.000 Cl
ATOM      9  C   UNL     1       4.034   5.502  17.283  0.00  0.00    +0.000 A 
ENDROOT
BRANCH   9  10
ATOM     10  N   UNL     1       5.022   6.440  16.838  0.00  0.00    +0.000 NA
ATOM     11  C   UNL     1       6.181   6.634  17.389  0.00  0.00    +0.000 C 
ATOM     12  N   UNL     1       7.020   7.698  17.051  0.00  0.00    +0.000 N 
ATOM     13  C   UNL     1       8.090   7.772  18.020  0.00  0.00    +0.000 C 
ATOM     14  C   UNL     1       7.954   6.487  18.876  0.00  0.00    +0.000 C 
ATOM     15  N   UNL     1       6.734   5.865  18.424  0.00  0.00    +0.000 N 
ATOM     16  H   UNL     1       6.822   8.411  16.335  0.00  0.00    +0.000 HD
ATOM     17  H   UNL     1       6.361   4.974  18.787  0.00  0.00    +0.000 HD
ENDBRANCH   9  10
TORSDOF 1
ENDMDL
MODEL 3
REMARK VINA RESULT:      -6.3      2.891      4.974
REMARK  Name = 
REMARK  2 active torsions:
REMARK  status: ('A' for Active; 'I' for Inactive)
REMARK    1  A    between atoms: C_1  and  C_2
REMARK    2  A    between atoms: C_9  and  N_10
REMARK                            x       y       z     vdW  Elec       q    Type
REMARK                         _______ _______ _______ _____ _____    ______ ____
ROOT
ATOM      1  C   UNL     1       3.029   7.326  18.074  0.00  0.00    +0.000 C 
ATOM      2  C   UNL     1       3.679   6.080  17.528  0.00  0.00    +0.000 A 
ATOM      3  C   UNL     1       4.805   6.211  16.695  0.00  0.00    +0.000 A 
ATOM      4  C   UNL     1       5.421   5.085  16.149  0.00  0.00    +0.000 A 
ATOM      5 CL   UNL     1       6.826   5.260  15.115  0.00  0.00    +0.000 Cl
ATOM      6  C   UNL     1       4.900   3.820  16.399  0.00  0.00    +0.000 A 
ATOM      7  C   UNL     1       3.785   3.656  17.216  0.00  0.00    +0.000 A 
ATOM      8 CL   UNL     1       3.157   2.011  17.346  0.00  0.00    +0.000 Cl
ATOM      9  C   UNL     1       3.178   4.788  17.826  0.00  0.00    +0.000 A 
ENDROOT
BRANCH   9  10
ATOM     10  N   UNL     1       2.031   4.657  18.675  0.00  0.00    +0.000 NA
ATOM     11  C   UNL     1       1.999   4.023  19.807  0.00  0.00    +0.000 C 
ATOM     12  N   UNL     1       0.816   3.745  20.495  0.00  0.00    +0.000 N 
ATOM     13  C   UNL     1       1.106   2.812  21.561  0.00  0.00    +0.000 C 
ATOM     14  C   UNL     1       2.652   2.713  21.606  0.00  0.00    +0.000 C 
ATOM     15  N   UNL     1       3.108   3.477  20.471  0.00  0.00    +0.000 N 
ATOM     16  H   UNL     1      -0.129   4.023  20.195  0.00  0.00    +0.000 HD
ATOM     17  H   UNL     1       4.099   3.623  20.224  0.00  0.00    +0.000 HD
ENDBRANCH   9  10
TORSDOF 1
ENDMDL
MODEL 4
REMARK VINA RESULT:      -6.2      2.314      2.677
REMARK  Name = 
REMARK  2 active torsions:
REMARK  status: ('A' for Active; 'I' for Inactive)
REMARK    1  A    between atoms: C_1  and  C_2
REMARK    2  A    between atoms: C_9  and  N_10
REMARK                            x       y       z     vdW  Elec       q    Type
REMARK                         _______ _______ _______ _____ _____    ______ ____
ROOT
ATOM      1  C   UNL     1       2.545   6.182  18.205  0.00  0.00    +0.000 C 
ATOM      2  C   UNL     1       2.536   4.763  18.714  0.00  0.00    +0.000 A 
ATOM      3  C   UNL     1       1.918   4.490  19.948  0.00  0.00    +0.000 A 
ATOM      4  C   UNL     1       1.910   3.196  20.468  0.00  0.00    +0.000 A 
ATOM      5 CL   UNL     1       1.134   2.864  22.005  0.00  0.00    +0.000 Cl
ATOM      6  C   UNL     1       2.549   2.167  19.782  0.00  0.00    +0.000 A 
ATOM      7  C   UNL     1       3.172   2.406  18.560  0.00  0.00    +0.000 A 
ATOM      8 CL   UNL     1       4.048   1.043  17.860  0.00  0.00    +0.000 Cl
ATOM      9  C   UNL     1       3.143   3.708  17.988  0.00  0.00    +0.000 A 
ENDROOT
BRANCH   9  10
ATOM     10  N   UNL     1       3.771   3.989  16.731  0.00  0.00    +0.000 NA
ATOM     11  C   UNL     1       5.037   4.209  16.553  0.00  0.00    +0.000 C 
ATOM     12  N   UNL     1       5.570   4.683  15.352  0.00  0.00    +0.000 N 
ATOM     13  C   UNL     1       6.947   5.064  15.572  0.00  0.00    +0.000 C 
ATOM     14  C   UNL     1       7.286   4.559  16.998  0.00  0.00    +0.000 C 
ATOM     15  N   UNL     1       6.037   4.069  17.527  0.00  0.00    +0.000 N 
ATOM     16  H   UNL     1       5.031   4.884  14.498  0.00  0.00    +0.000 HD
ATOM     17  H   UNL     1       5.923   3.647  18.462  0.00  0.00    +0.000 HD
ENDBRANCH   9  10
TORSDOF 1
ENDMDL
MODEL 5
REMARK VINA RESULT:      -6.2      2.151      2.896
REMARK  Name = 
REMARK  2 active torsions:
REMARK  status: ('A' for Active; 'I' for Inactive)
REMARK    1  A    between atoms: C_1  and  C_2
REMARK    2  A    between atoms: C_9  and  N_10
REMARK                            x       y       z     vdW  Elec       q    Type
REMARK                         _______ _______ _______ _____ _____    ______ ____
ROOT
ATOM      1  C   UNL     1       4.107   2.797  17.524  0.00  0.00    +0.000 C 
ATOM      2  C   UNL     1       3.408   3.566  18.616  0.00  0.00    +0.000 A 
ATOM      3  C   UNL     1       2.700   2.853  19.601  0.00  0.00    +0.000 A 
ATOM      4  C   UNL     1       2.018   3.527  20.615  0.00  0.00    +0.000 A 
ATOM      5 CL   UNL     1       1.141   2.630  21.839  0.00  0.00    +0.000 Cl
ATOM      6  C   UNL     1       2.006   4.918  20.637  0.00  0.00    +0.000 A 
ATOM      7  C   UNL     1       2.695   5.652  19.675  0.00  0.00    +0.000 A 
ATOM      8 CL   UNL     1       2.492   7.405  19.749  0.00  0.00    +0.000 Cl
ATOM      9  C   UNL     1       3.440   4.982  18.667  0.00  0.00    +0.000 A 
ENDROOT
BRANCH   9  10
ATOM     10  N   UNL     1       4.164   5.705  17.663  0.00  0.00    +0.000 NA
ATOM     11  C   UNL     1       5.417   6.032  17.726  0.00  0.00    +0.000 C 
ATOM     12  N   UNL     1       6.024   6.912  16.826  0.00  0.00    +0.000 N 
ATOM     13  C   UNL     1       7.334   7.261  17.328  0.00  0.00    +0.000 C 
ATOM     14  C   UNL     1       7.572   6.318  18.535  0.00  0.00    +0.000 C 
ATOM     15  N   UNL     1       6.324   5.617  18.713  0.00  0.00    +0.000 N 
ATOM     16  H   UNL     1       5.558   7.366  16.028  0.00  0.00    +0.000 HD
ATOM     17  H   UNL     1       6.154   4.897  19.432  0.00  0.00    +0.000 HD
ENDBRANCH   9  10
TORSDOF 1
ENDMDL
MODEL 6
REMARK VINA RESULT:      -6.1      2.449      3.297
REMARK  Name = 
REMARK  2 active torsions:
REMARK  status: ('A' for Active; 'I' for Inactive)
REMARK    1  A    between atoms: C_1  and  C_2
REMARK    2  A    between atoms: C_9  and  N_10
REMARK                            x       y       z     vdW  Elec       q    Type
REMARK                         _______ _______ _______ _____ _____    ______ ____
ROOT
ATOM      1  C   UNL     1       3.444   1.829  17.703  0.00  0.00    +0.000 C 
ATOM      2  C   UNL     1       2.991   2.791  18.772  0.00  0.00    +0.000 A 
ATOM      3  C   UNL     1       2.334   2.283  19.908  0.00  0.00    +0.000 A 
ATOM      4  C   UNL     1       1.877   3.140  20.908  0.00  0.00    +0.000 A 
ATOM      5 CL   UNL     1       1.063   2.496  22.321  0.00  0.00    +0.000 Cl
ATOM      6  C   UNL     1       2.037   4.515  20.771  0.00  0.00    +0.000 A 
ATOM      7  C   UNL     1       2.680   5.050  19.657  0.00  0.00    +0.000 A 
ATOM      8 CL   UNL     1       2.702   6.812  19.551  0.00  0.00    +0.000 Cl
ATOM      9  C   UNL     1       3.201   4.188  18.654  0.00  0.00    +0.000 A 
ENDROOT
BRANCH   9  10
ATOM     10  N   UNL     1       3.871   4.703  17.496  0.00  0.00    +0.000 NA
ATOM     11  C   UNL     1       5.157   4.789  17.346  0.00  0.00    +0.000 C 
ATOM     12  N   UNL     1       5.758   5.485  16.294  0.00  0.00    +0.000 N 
ATOM     13  C   UNL     1       7.173   5.606  16.567  0.00  0.00    +0.000 C 
ATOM     14  C   UNL     1       7.429   4.705  17.801  0.00  0.00    +0.000 C 
ATOM     15  N   UNL     1       6.121   4.265  18.220  0.00  0.00    +0.000 N 
ATOM     16  H   UNL     1       5.259   5.974  15.538  0.00  0.00    +0.000 HD
ATOM     17  H   UNL     1       5.943   3.632  19.014  0.00  0.00    +0.000 HD
ENDBRANCH   9  10
TORSDOF 1
ENDMDL
MODEL 7
REMARK VINA RESULT:      -6.0      3.205      5.415
REMARK  Name = 
REMARK  2 active torsions:
REMARK  status: ('A' for Active; 'I' for Inactive)
REMARK    1  A    between atoms: C_1  and  C_2
REMARK    2  A    between atoms: C_9  and  N_10
REMARK                            x       y       z     vdW  Elec       q    Type
REMARK                         _______ _______ _______ _____ _____    ______ ____
ROOT
ATOM      1  C   UNL     1       3.393   2.131  17.436  0.00  0.00    +0.000 C 
ATOM      2  C   UNL     1       3.838   3.551  17.196  0.00  0.00    +0.000 A 
ATOM      3  C   UNL     1       5.008   3.778  16.448  0.00  0.00    +0.000 A 
ATOM      4  C   UNL     1       5.468   5.076  16.224  0.00  0.00    +0.000 A 
ATOM      5 CL   UNL     1       6.925   5.349  15.288  0.00  0.00    +0.000 Cl
ATOM      6  C   UNL     1       4.787   6.158  16.772  0.00  0.00    +0.000 A 
ATOM      7  C   UNL     1       3.627   5.966  17.519  0.00  0.00    +0.000 A 
ATOM      8 CL   UNL     1       2.937   7.413  18.259  0.00  0.00    +0.000 Cl
ATOM      9  C   UNL     1       3.114   4.655  17.711  0.00  0.00    +0.000 A 
ENDROOT
BRANCH   9  10
ATOM     10  N   UNL     1       1.921   4.420  18.472  0.00  0.00    +0.000 NA
ATOM     11  C   UNL     1       1.878   3.942  19.677  0.00  0.00    +0.000 C 
ATOM     12  N   UNL     1       0.693   3.537  20.297  0.00  0.00    +0.000 N 
ATOM     13  C   UNL     1       1.024   2.821  21.508  0.00  0.00    +0.000 C 
ATOM     14  C   UNL     1       2.549   3.023  21.697  0.00  0.00    +0.000 C 
ATOM     15  N   UNL     1       2.986   3.706  20.505  0.00  0.00    +0.000 N 
ATOM     16  H   UNL     1      -0.247   3.590  19.881  0.00  0.00    +0.000 HD
ATOM     17  H   UNL     1       3.956   4.004  20.323  0.00  0.00    +0.000 HD
ENDBRANCH   9  10
TORSDOF 1
ENDMDL
MODEL 8
REMARK VINA RESULT:      -6.0      3.067      4.784
REMARK  Name = 
REMARK  2 active torsions:
REMARK  status: ('A' for Active; 'I' for Inactive)
REMARK    1  A    between atoms: C_1  and  C_2
REMARK    2  A    between atoms: C_9  and  N_10
REMARK                            x       y       z     vdW  Elec       q    Type
REMARK                         _______ _______ _______ _____ _____    ______ ____
ROOT
ATOM      1  C   UNL     1       2.135   5.565  20.878  0.00  0.00    +0.000 C 
ATOM      2  C   UNL     1       2.523   6.437  19.712  0.00  0.00    +0.000 A 
ATOM      3  C   UNL     1       1.843   7.653  19.518  0.00  0.00    +0.000 A 
ATOM      4  C   UNL     1       2.154   8.478  18.437  0.00  0.00    +0.000 A 
ATOM      5 CL   UNL     1       1.302   9.993  18.206  0.00  0.00    +0.000 Cl
ATOM      6  C   UNL     1       3.120   8.082  17.517  0.00  0.00    +0.000 A 
ATOM      7  C   UNL     1       3.809   6.883  17.679  0.00  0.00    +0.000 A 
ATOM      8 CL   UNL     1       4.916   6.446  16.375  0.00  0.00    +0.000 Cl
ATOM      9  C   UNL     1       3.544   6.057  18.805  0.00  0.00    +0.000 A 
ENDROOT
BRANCH   9  10
ATOM     10  N   UNL     1       4.236   4.818  19.006  0.00  0.00    +0.000 NA
ATOM     11  C   UNL     1       3.847   3.658  18.573  0.00  0.00    +0.000 C 
ATOM     12  N   UNL     1       4.440   2.456  18.968  0.00  0.00    +0.000 N 
ATOM     13  C   UNL     1       3.612   1.360  18.518  0.00  0.00    +0.000 C 
ATOM     14  C   UNL     1       2.547   2.005  17.594  0.00  0.00    +0.000 C 
ATOM     15  N   UNL     1       2.763   3.427  17.713  0.00  0.00    +0.000 N 
ATOM     16  H   UNL     1       5.238   2.367  19.612  0.00  0.00    +0.000 HD
ATOM     17  H   UNL     1       2.223   4.145  17.206  0.00  0.00    +0.000 HD
ENDBRANCH   9  10
TORSDOF 1
ENDMDL
MODEL 9
REMARK VINA RESULT:      -6.0      2.753      3.561
REMARK  Name = 
REMARK  2 active torsions:
REMARK  status: ('A' for Active; 'I' for Inactive)
REMARK    1  A    between atoms: C_1  and  C_2
REMARK    2  A    between atoms: C_9  and  N_10
REMARK                            x       y       z     vdW  Elec       q    Type
REMARK                         _______ _______ _______ _____ _____    ______ ____
ROOT
ATOM      1  C   UNL     1       2.694   3.402  20.544  0.00  0.00    +0.000 C 
ATOM      2  C   UNL     1       2.565   4.856  20.166  0.00  0.00    +0.000 A 
ATOM      3  C   UNL     1       1.679   5.670  20.895  0.00  0.00    +0.000 A 
ATOM      4  C   UNL     1       1.511   7.014  20.561  0.00  0.00    +0.000 A 
ATOM      5 CL   UNL     1       0.406   8.021  21.478  0.00  0.00    +0.000 Cl
ATOM      6  C   UNL     1       2.196   7.551  19.476  0.00  0.00    +0.000 A 
ATOM      7  C   UNL     1       3.078   6.771  18.734  0.00  0.00    +0.000 A 
ATOM      8 CL   UNL     1       3.784   7.544  17.312  0.00  0.00    +0.000 Cl
ATOM      9  C   UNL     1       3.304   5.414  19.093  0.00  0.00    +0.000 A 
ENDROOT
BRANCH   9  10
ATOM     10  N   UNL     1       4.206   4.582  18.353  0.00  0.00    +0.000 NA
ATOM     11  C   UNL     1       5.499   4.695  18.343  0.00  0.00    +0.000 C 
ATOM     12  N   UNL     1       6.320   4.001  17.450  0.00  0.00    +0.000 N 
ATOM     13  C   UNL     1       7.656   4.546  17.529  0.00  0.00    +0.000 C 
ATOM     14  C   UNL     1       7.633   5.510  18.742  0.00  0.00    +0.000 C 
ATOM     15  N   UNL     1       6.252   5.550  19.160  0.00  0.00    +0.000 N 
ATOM     16  H   UNL     1       5.997   3.331  16.738  0.00  0.00    +0.000 HD
ATOM     17  H   UNL     1       5.899   6.095  19.962  0.00  0.00    +0.000 HD
ENDBRANCH   9  10
TORSDOF 1
ENDMDL
