MODEL 1
REMARK VINA RESULT:      -9.0      0.000      0.000
REMARK  Name = 
REMARK  6 active torsions:
REMARK  status: ('A' for Active; 'I' for Inactive)
REMARK    1  A    between atoms: C_1  and  C_9
REMARK    2  A    between atoms: C_2  and  C_3
REMARK    3  A    between atoms: C_9  and  C_10
REMARK    4  A    between atoms: C_10  and  N_11
REMARK    5  A    between atoms: C_14  and  C_15
REMARK    6  A    between atoms: C_15  and  C_16
REMARK                            x       y       z     vdW  Elec       q    Type
REMARK                         _______ _______ _______ _____ _____    ______ ____
ROOT
ATOM      1  N   UNL     1       6.904   5.732  17.569  0.00  0.00    +0.000 NA
ATOM      2  C   UNL     1       6.183   4.967  18.598  0.00  0.00    +0.000 C 
ATOM      3  C   UNL     1       5.344   3.866  17.965  0.00  0.00    +0.000 C 
ATOM      4  C   UNL     1       4.316   4.441  16.988  0.00  0.00    +0.000 C 
ATOM      5  C   UNL     1       5.081   5.269  15.941  0.00  0.00    +0.000 C 
ATOM      6  C   UNL     1       5.993   6.325  16.579  0.00  0.00    +0.000 C 
ENDROOT
BRANCH   1   7
ATOM      7  C   UNL     1       7.764   6.768  18.174  0.00  0.00    +0.000 C 
BRANCH   7   8
ATOM      8  C   UNL     1       7.576   8.132  17.507  0.00  0.00    +0.000 C 
BRANCH   8   9
ATOM      9  C   UNL     1       8.370   9.173  18.151  0.00  0.00    +0.000 C 
ATOM     10  C   UNL     1       9.076  10.028  18.608  0.00  0.00    +0.000 C 
BRANCH  10  11
ATOM     11  C   UNL     1       9.935  11.075  19.047  0.00  0.00    +0.000 A 
ATOM     12  C   UNL     1      10.857  11.611  18.146  0.00  0.00    +0.000 A 
ATOM     13  C   UNL     1      11.720  12.625  18.556  0.00  0.00    +0.000 A 
ATOM     14  C   UNL     1      11.659  13.099  19.866  0.00  0.00    +0.000 A 
ATOM     15  C   UNL     1      10.740  12.561  20.768  0.00  0.00    +0.000 A 
ATOM     16  C   UNL     1       9.876  11.544  20.360  0.00  0.00    +0.000 A 
ENDBRANCH  10  11
ENDBRANCH   8   9
ENDBRANCH   7   8
ENDBRANCH   1   7
BRANCH   4  17
ATOM     17  C   UNL     1       3.231   5.298  17.678  0.00  0.00    +0.000 C 
BRANCH  17  18
ATOM     18  C   UNL     1       2.412   4.586  18.728  0.00  0.00    +0.000 A 
ATOM     19  C   UNL     1       1.553   3.537  18.365  0.00  0.00    +0.000 A 
ATOM     20  C   UNL     1       0.829   2.842  19.333  0.00  0.00    +0.000 A 
ATOM     21  C   UNL     1       0.957   3.186  20.677  0.00  0.00    +0.000 A 
ATOM     22  C   UNL     1       1.799   4.232  21.050  0.00  0.00    +0.000 A 
ATOM     23  C   UNL     1       2.522   4.931  20.081  0.00  0.00    +0.000 A 
ENDBRANCH  17  18
ENDBRANCH   4  17
TORSDOF 6
ENDMDL
MODEL 2
REMARK VINA RESULT:      -8.6      0.508      1.159
REMARK  Name = 
REMARK  6 active torsions:
REMARK  status: ('A' for Active; 'I' for Inactive)
REMARK    1  A    between atoms: C_1  and  C_9
REMARK    2  A    between atoms: C_2  and  C_3
REMARK    3  A    between atoms: C_9  and  C_10
REMARK    4  A    between atoms: C_10  and  N_11
REMARK    5  A    between atoms: C_14  and  C_15
REMARK    6  A    between atoms: C_15  and  C_16
REMARK                            x       y       z     vdW  Elec       q    Type
REMARK                         _______ _______ _______ _____ _____    ______ ____
ROOT
ATOM      1  N   UNL     1       6.887   5.878  17.750  0.00  0.00    +0.000 NA
ATOM      2  C   UNL     1       6.138   5.101  18.750  0.00  0.00    +0.000 C 
ATOM      3  C   UNL     1       5.385   3.954  18.090  0.00  0.00    +0.000 C 
ATOM      4  C   UNL     1       4.396   4.467  17.042  0.00  0.00    +0.000 C 
ATOM      5  C   UNL     1       5.187   5.309  16.026  0.00  0.00    +0.000 C 
ATOM      6  C   UNL     1       6.014   6.414  16.696  0.00  0.00    +0.000 C 
ENDROOT
BRANCH   1   7
ATOM      7  C   UNL     1       7.665   6.960  18.385  0.00  0.00    +0.000 C 
BRANCH   7   8
ATOM      8  C   UNL     1       7.762   8.198  17.491  0.00  0.00    +0.000 C 
BRANCH   8   9
ATOM      9  C   UNL     1       8.496   9.284  18.133  0.00  0.00    +0.000 C 
ATOM     10  C   UNL     1       9.022  10.201  18.699  0.00  0.00    +0.000 C 
BRANCH  10  11
ATOM     11  C   UNL     1       9.570  11.278  19.450  0.00  0.00    +0.000 A 
ATOM     12  C   UNL     1       9.232  11.398  20.799  0.00  0.00    +0.000 A 
ATOM     13  C   UNL     1       9.743  12.453  21.552  0.00  0.00    +0.000 A 
ATOM     14  C   UNL     1      10.589  13.386  20.954  0.00  0.00    +0.000 A 
ATOM     15  C   UNL     1      10.925  13.268  19.604  0.00  0.00    +0.000 A 
ATOM     16  C   UNL     1      10.413  12.213  18.847  0.00  0.00    +0.000 A 
ENDBRANCH  10  11
ENDBRANCH   8   9
ENDBRANCH   7   8
ENDBRANCH   1   7
BRANCH   4  17
ATOM     17  C   UNL     1       3.236   5.289  17.648  0.00  0.00    +0.000 C 
BRANCH  17  18
ATOM     18  C   UNL     1       2.374   4.556  18.648  0.00  0.00    +0.000 A 
ATOM     19  C   UNL     1       1.596   3.460  18.243  0.00  0.00    +0.000 A 
ATOM     20  C   UNL     1       0.834   2.747  19.169  0.00  0.00    +0.000 A 
ATOM     21  C   UNL     1       0.843   3.120  20.511  0.00  0.00    +0.000 A 
ATOM     22  C   UNL     1       1.604   4.212  20.924  0.00  0.00    +0.000 A 
ATOM     23  C   UNL     1       2.364   4.929  19.998  0.00  0.00    +0.000 A 
ENDBRANCH  17  18
ENDBRANCH   4  17
TORSDOF 6
ENDMDL
MODEL 3
REMARK VINA RESULT:      -8.2      1.203      1.993
REMARK  Name = 
REMARK  6 active torsions:
REMARK  status: ('A' for Active; 'I' for Inactive)
REMARK    1  A    between atoms: C_1  and  C_9
REMARK    2  A    between atoms: C_2  and  C_3
REMARK    3  A    between atoms: C_9  and  C_10
REMARK    4  A    between atoms: C_10  and  N_11
REMARK    5  A    between atoms: C_14  and  C_15
REMARK    6  A    between atoms: C_15  and  C_16
REMARK                            x       y       z     vdW  Elec       q    Type
REMARK                         _______ _______ _______ _____ _____    ______ ____
ROOT
ATOM      1  N   UNL     1       5.491   6.042  17.438  0.00  0.00    +0.000 NA
ATOM      2  C   UNL     1       5.864   4.797  16.748  0.00  0.00    +0.000 C 
ATOM      3  C   UNL     1       4.684   4.236  15.968  0.00  0.00    +0.000 C 
ATOM      4  C   UNL     1       3.499   3.937  16.889  0.00  0.00    +0.000 C 
ATOM      5  C   UNL     1       3.145   5.238  17.631  0.00  0.00    +0.000 C 
ATOM      6  C   UNL     1       4.354   5.851  18.349  0.00  0.00    +0.000 C 
ENDROOT
BRANCH   1   7
ATOM      7  C   UNL     1       6.643   6.624  18.154  0.00  0.00    +0.000 C 
BRANCH   7   8
ATOM      8  C   UNL     1       7.539   7.448  17.227  0.00  0.00    +0.000 C 
BRANCH   8   9
ATOM      9  C   UNL     1       8.164   8.569  17.921  0.00  0.00    +0.000 C 
ATOM     10  C   UNL     1       8.712   9.516  18.413  0.00  0.00    +0.000 C 
BRANCH  10  11
ATOM     11  C   UNL     1       9.353  10.690  18.898  0.00  0.00    +0.000 A 
ATOM     12  C   UNL     1       9.564  10.823  20.272  0.00  0.00    +0.000 A 
ATOM     13  C   UNL     1      10.174  11.971  20.773  0.00  0.00    +0.000 A 
ATOM     14  C   UNL     1      10.570  12.983  19.900  0.00  0.00    +0.000 A 
ATOM     15  C   UNL     1      10.356  12.853  18.527  0.00  0.00    +0.000 A 
ATOM     16  C   UNL     1       9.743  11.704  18.022  0.00  0.00    +0.000 A 
ENDBRANCH  10  11
ENDBRANCH   8   9
ENDBRANCH   7   8
ENDBRANCH   1   7
BRANCH   4  17
ATOM     17  C   UNL     1       3.778   2.794  17.891  0.00  0.00    +0.000 C 
BRANCH  17  18
ATOM     18  C   UNL     1       2.888   2.769  19.111  0.00  0.00    +0.000 A 
ATOM     19  C   UNL     1       3.448   2.666  20.393  0.00  0.00    +0.000 A 
ATOM     20  C   UNL     1       2.637   2.691  21.528  0.00  0.00    +0.000 A 
ATOM     21  C   UNL     1       1.256   2.821  21.393  0.00  0.00    +0.000 A 
ATOM     22  C   UNL     1       0.688   2.915  20.124  0.00  0.00    +0.000 A 
ATOM     23  C   UNL     1       1.498   2.886  18.988  0.00  0.00    +0.000 A 
ENDBRANCH  17  18
ENDBRANCH   4  17
TORSDOF 6
ENDMDL
MODEL 4
REMARK VINA RESULT:      -8.2      0.580      1.550
REMARK  Name = 
REMARK  6 active torsions:
REMARK  status: ('A' for Active; 'I' for Inactive)
REMARK    1  A    between atoms: C_1  and  C_9
REMARK    2  A    between atoms: C_2  and  C_3
REMARK    3  A    between atoms: C_9  and  C_10
REMARK    4  A    between atoms: C_10  and  N_11
REMARK    5  A    between atoms: C_14  and  C_15
REMARK    6  A    between atoms: C_15  and  C_16
REMARK                            x       y       z     vdW  Elec       q    Type
REMARK                         _______ _______ _______ _____ _____    ______ ____
ROOT
ATOM      1  N   UNL     1       6.709   6.284  17.040  0.00  0.00    +0.000 NA
ATOM      2  C   UNL     1       6.221   5.693  18.296  0.00  0.00    +0.000 C 
ATOM      3  C   UNL     1       5.648   4.304  18.053  0.00  0.00    +0.000 C 
ATOM      4  C   UNL     1       4.485   4.347  17.059  0.00  0.00    +0.000 C 
ATOM      5  C   UNL     1       5.001   5.001  15.766  0.00  0.00    +0.000 C 
ATOM      6  C   UNL     1       5.655   6.366  16.019  0.00  0.00    +0.000 C 
ENDROOT
BRANCH   1   7
ATOM      7  C   UNL     1       7.316   7.609  17.272  0.00  0.00    +0.000 C 
BRANCH   7   8
ATOM      8  C   UNL     1       8.196   7.628  18.522  0.00  0.00    +0.000 C 
BRANCH   8   9
ATOM      9  C   UNL     1       8.783   8.942  18.763  0.00  0.00    +0.000 C 
ATOM     10  C   UNL     1       9.330  10.001  18.902  0.00  0.00    +0.000 C 
BRANCH  10  11
ATOM     11  C   UNL     1      10.013  11.248  18.962  0.00  0.00    +0.000 A 
ATOM     12  C   UNL     1      10.206  11.851  20.206  0.00  0.00    +0.000 A 
ATOM     13  C   UNL     1      10.857  13.079  20.289  0.00  0.00    +0.000 A 
ATOM     14  C   UNL     1      11.312  13.703  19.128  0.00  0.00    +0.000 A 
ATOM     15  C   UNL     1      11.116  13.103  17.884  0.00  0.00    +0.000 A 
ATOM     16  C   UNL     1      10.462  11.872  17.797  0.00  0.00    +0.000 A 
ENDBRANCH  10  11
ENDBRANCH   8   9
ENDBRANCH   7   8
ENDBRANCH   1   7
BRANCH   4  17
ATOM     17  C   UNL     1       3.248   5.100  17.599  0.00  0.00    +0.000 C 
BRANCH  17  18
ATOM     18  C   UNL     1       2.500   4.406  18.711  0.00  0.00    +0.000 A 
ATOM     19  C   UNL     1       2.666   4.818  20.042  0.00  0.00    +0.000 A 
ATOM     20  C   UNL     1       1.943   4.213  21.070  0.00  0.00    +0.000 A 
ATOM     21  C   UNL     1       1.042   3.191  20.779  0.00  0.00    +0.000 A 
ATOM     22  C   UNL     1       0.874   2.767  19.462  0.00  0.00    +0.000 A 
ATOM     23  C   UNL     1       1.601   3.368  18.433  0.00  0.00    +0.000 A 
ENDBRANCH  17  18
ENDBRANCH   4  17
TORSDOF 6
ENDMDL
MODEL 5
REMARK VINA RESULT:      -8.2      0.909      1.433
REMARK  Name = 
REMARK  6 active torsions:
REMARK  status: ('A' for Active; 'I' for Inactive)
REMARK    1  A    between atoms: C_1  and  C_9
REMARK    2  A    between atoms: C_2  and  C_3
REMARK    3  A    between atoms: C_9  and  C_10
REMARK    4  A    between atoms: C_10  and  N_11
REMARK    5  A    between atoms: C_14  and  C_15
REMARK    6  A    between atoms: C_15  and  C_16
REMARK                            x       y       z     vdW  Elec       q    Type
REMARK                         _______ _______ _______ _____ _____    ______ ____
ROOT
ATOM      1  N   UNL     1       6.762   5.874  16.997  0.00  0.00    +0.000 NA
ATOM      2  C   UNL     1       6.138   5.419  18.249  0.00  0.00    +0.000 C 
ATOM      3  C   UNL     1       5.575   4.013  18.094  0.00  0.00    +0.000 C 
ATOM      4  C   UNL     1       4.522   3.954  16.985  0.00  0.00    +0.000 C 
ATOM      5  C   UNL     1       5.178   4.468  15.691  0.00  0.00    +0.000 C 
ATOM      6  C   UNL     1       5.820   5.850  15.868  0.00  0.00    +0.000 C 
ENDROOT
BRANCH   1   7
ATOM      7  C   UNL     1       7.359   7.215  17.151  0.00  0.00    +0.000 C 
BRANCH   7   8
ATOM      8  C   UNL     1       8.109   7.361  18.476  0.00  0.00    +0.000 C 
BRANCH   8   9
ATOM      9  C   UNL     1       8.631   8.710  18.667  0.00  0.00    +0.000 C 
ATOM     10  C   UNL     1       9.079   9.821  18.736  0.00  0.00    +0.000 C 
BRANCH  10  11
ATOM     11  C   UNL     1       9.577  11.153  18.713  0.00  0.00    +0.000 A 
ATOM     12  C   UNL     1       8.966  12.087  17.874  0.00  0.00    +0.000 A 
ATOM     13  C   UNL     1       9.447  13.393  17.821  0.00  0.00    +0.000 A 
ATOM     14  C   UNL     1      10.538  13.763  18.607  0.00  0.00    +0.000 A 
ATOM     15  C   UNL     1      11.152  12.829  19.443  0.00  0.00    +0.000 A 
ATOM     16  C   UNL     1      10.673  11.519  19.497  0.00  0.00    +0.000 A 
ENDBRANCH  10  11
ENDBRANCH   8   9
ENDBRANCH   7   8
ENDBRANCH   1   7
BRANCH   4  17
ATOM     17  C   UNL     1       3.246   4.763  17.312  0.00  0.00    +0.000 C 
BRANCH  17  18
ATOM     18  C   UNL     1       2.427   4.243  18.469  0.00  0.00    +0.000 A 
ATOM     19  C   UNL     1       2.402   4.939  19.687  0.00  0.00    +0.000 A 
ATOM     20  C   UNL     1       1.611   4.492  20.745  0.00  0.00    +0.000 A 
ATOM     21  C   UNL     1       0.833   3.345  20.597  0.00  0.00    +0.000 A 
ATOM     22  C   UNL     1       0.857   2.641  19.395  0.00  0.00    +0.000 A 
ATOM     23  C   UNL     1       1.652   3.084  18.336  0.00  0.00    +0.000 A 
ENDBRANCH  17  18
ENDBRANCH   4  17
TORSDOF 6
ENDMDL
MODEL 6
REMARK VINA RESULT:      -8.1      0.972      1.518
REMARK  Name = 
REMARK  6 active torsions:
REMARK  status: ('A' for Active; 'I' for Inactive)
REMARK    1  A    between atoms: C_1  and  C_9
REMARK    2  A    between atoms: C_2  and  C_3
REMARK    3  A    between atoms: C_9  and  C_10
REMARK    4  A    between atoms: C_10  and  N_11
REMARK    5  A    between atoms: C_14  and  C_15
REMARK    6  A    between atoms: C_15  and  C_16
REMARK                            x       y       z     vdW  Elec       q    Type
REMARK                         _______ _______ _______ _____ _____    ______ ____
ROOT
ATOM      1  N   UNL     1       6.383   6.216  16.296  0.00  0.00    +0.000 NA
ATOM      2  C   UNL     1       6.740   4.791  16.363  0.00  0.00    +0.000 C 
ATOM      3  C   UNL     1       5.547   3.917  16.003  0.00  0.00    +0.000 C 
ATOM      4  C   UNL     1       4.372   4.161  16.952  0.00  0.00    +0.000 C 
ATOM      5  C   UNL     1       4.035   5.662  16.900  0.00  0.00    +0.000 C 
ATOM      6  C   UNL     1       5.256   6.548  17.179  0.00  0.00    +0.000 C 
ENDROOT
BRANCH   1   7
ATOM      7  C   UNL     1       7.547   7.075  16.589  0.00  0.00    +0.000 C 
BRANCH   7   8
ATOM      8  C   UNL     1       7.640   7.429  18.074  0.00  0.00    +0.000 C 
BRANCH   8   9
ATOM      9  C   UNL     1       8.321   8.700  18.295  0.00  0.00    +0.000 C 
ATOM     10  C   UNL     1       8.919   9.709  18.550  0.00  0.00    +0.000 C 
BRANCH  10  11
ATOM     11  C   UNL     1       9.707  10.842  18.896  0.00  0.00    +0.000 A 
ATOM     12  C   UNL     1      10.298  11.589  17.875  0.00  0.00    +0.000 A 
ATOM     13  C   UNL     1      11.087  12.693  18.190  0.00  0.00    +0.000 A 
ATOM     14  C   UNL     1      11.285  13.046  19.525  0.00  0.00    +0.000 A 
ATOM     15  C   UNL     1      10.698  12.297  20.545  0.00  0.00    +0.000 A 
ATOM     16  C   UNL     1       9.907  11.190  20.233  0.00  0.00    +0.000 A 
ENDBRANCH  10  11
ENDBRANCH   8   9
ENDBRANCH   7   8
ENDBRANCH   1   7
BRANCH   4  17
ATOM     17  C   UNL     1       4.656   3.714  18.404  0.00  0.00    +0.000 C 
BRANCH  17  18
ATOM     18  C   UNL     1       3.439   3.553  19.283  0.00  0.00    +0.000 A 
ATOM     19  C   UNL     1       3.096   4.551  20.208  0.00  0.00    +0.000 A 
ATOM     20  C   UNL     1       1.948   4.432  20.990  0.00  0.00    +0.000 A 
ATOM     21  C   UNL     1       1.126   3.315  20.854  0.00  0.00    +0.000 A 
ATOM     22  C   UNL     1       1.460   2.313  19.945  0.00  0.00    +0.000 A 
ATOM     23  C   UNL     1       2.612   2.428  19.165  0.00  0.00    +0.000 A 
ENDBRANCH  17  18
ENDBRANCH   4  17
TORSDOF 6
ENDMDL
MODEL 7
REMARK VINA RESULT:      -8.1      1.158      1.315
REMARK  Name = 
REMARK  6 active torsions:
REMARK  status: ('A' for Active; 'I' for Inactive)
REMARK    1  A    between atoms: C_1  and  C_9
REMARK    2  A    between atoms: C_2  and  C_3
REMARK    3  A    between atoms: C_9  and  C_10
REMARK    4  A    between atoms: C_10  and  N_11
REMARK    5  A    between atoms: C_14  and  C_15
REMARK    6  A    between atoms: C_15  and  C_16
REMARK                            x       y       z     vdW  Elec       q    Type
REMARK                         _______ _______ _______ _____ _____    ______ ____
ROOT
ATOM      1  N   UNL     1       6.589   6.027  17.148  0.00  0.00    +0.000 NA
ATOM      2  C   UNL     1       5.873   5.606  18.362  0.00  0.00    +0.000 C 
ATOM      3  C   UNL     1       5.511   4.129  18.292  0.00  0.00    +0.000 C 
ATOM      4  C   UNL     1       4.622   3.830  17.084  0.00  0.00    +0.000 C 
ATOM      5  C   UNL     1       5.367   4.310  15.826  0.00  0.00    +0.000 C 
ATOM      6  C   UNL     1       5.807   5.776  15.928  0.00  0.00    +0.000 C 
ENDROOT
BRANCH   1   7
ATOM      7  C   UNL     1       6.992   7.444  17.227  0.00  0.00    +0.000 C 
BRANCH   7   8
ATOM      8  C   UNL     1       7.992   7.695  18.357  0.00  0.00    +0.000 C 
BRANCH   8   9
ATOM      9  C   UNL     1       8.631   9.002  18.247  0.00  0.00    +0.000 C 
ATOM     10  C   UNL     1       9.077  10.110  18.128  0.00  0.00    +0.000 C 
BRANCH  10  11
ATOM     11  C   UNL     1       9.505  11.462  18.012  0.00  0.00    +0.000 A 
ATOM     12  C   UNL     1      10.868  11.725  17.858  0.00  0.00    +0.000 A 
ATOM     13  C   UNL     1      11.313  13.042  17.758  0.00  0.00    +0.000 A 
ATOM     14  C   UNL     1      10.396  14.090  17.815  0.00  0.00    +0.000 A 
ATOM     15  C   UNL     1       9.035  13.827  17.973  0.00  0.00    +0.000 A 
ATOM     16  C   UNL     1       8.585  12.509  18.074  0.00  0.00    +0.000 A 
ENDBRANCH  10  11
ENDBRANCH   8   9
ENDBRANCH   7   8
ENDBRANCH   1   7
BRANCH   4  17
ATOM     17  C   UNL     1       3.225   4.485  17.177  0.00  0.00    +0.000 C 
BRANCH  17  18
ATOM     18  C   UNL     1       2.402   4.091  18.380  0.00  0.00    +0.000 A 
ATOM     19  C   UNL     1       1.919   2.780  18.509  0.00  0.00    +0.000 A 
ATOM     20  C   UNL     1       1.199   2.395  19.639  0.00  0.00    +0.000 A 
ATOM     21  C   UNL     1       0.956   3.316  20.657  0.00  0.00    +0.000 A 
ATOM     22  C   UNL     1       1.424   4.623  20.536  0.00  0.00    +0.000 A 
ATOM     23  C   UNL     1       2.141   5.011  19.403  0.00  0.00    +0.000 A 
ENDBRANCH  17  18
ENDBRANCH   4  17
TORSDOF 6
ENDMDL
MODEL 8
REMARK VINA RESULT:      -8.0      1.302      2.217
REMARK  Name = 
REMARK  6 active torsions:
REMARK  status: ('A' for Active; 'I' for Inactive)
REMARK    1  A    between atoms: C_1  and  C_9
REMARK    2  A    between atoms: C_2  and  C_3
REMARK    3  A    between atoms: C_9  and  C_10
REMARK    4  A    between atoms: C_10  and  N_11
REMARK    5  A    between atoms: C_14  and  C_15
REMARK    6  A    between atoms: C_15  and  C_16
REMARK                            x       y       z     vdW  Elec       q    Type
REMARK                         _______ _______ _______ _____ _____    ______ ____
ROOT
ATOM      1  N   UNL     1       7.452   7.256  17.293  0.00  0.00    +0.000 NA
ATOM      2  C   UNL     1       7.770   6.429  18.467  0.00  0.00    +0.000 C 
ATOM      3  C   UNL     1       7.621   4.949  18.142  0.00  0.00    +0.000 C 
ATOM      4  C   UNL     1       6.196   4.618  17.694  0.00  0.00    +0.000 C 
ATOM      5  C   UNL     1       5.865   5.517  16.490  0.00  0.00    +0.000 C 
ATOM      6  C   UNL     1       6.095   7.005  16.788  0.00  0.00    +0.000 C 
ENDROOT
BRANCH   1   7
ATOM      7  C   UNL     1       7.645   8.691  17.580  0.00  0.00    +0.000 C 
BRANCH   7   8
ATOM      8  C   UNL     1       8.642   8.921  18.717  0.00  0.00    +0.000 C 
BRANCH   8   9
ATOM      9  C   UNL     1       9.304  10.217  18.614  0.00  0.00    +0.000 C 
ATOM     10  C   UNL     1       9.926  11.241  18.540  0.00  0.00    +0.000 C 
BRANCH  10  11
ATOM     11  C   UNL     1      10.746  12.396  18.409  0.00  0.00    +0.000 A 
ATOM     12  C   UNL     1      11.370  12.912  19.547  0.00  0.00    +0.000 A 
ATOM     13  C   UNL     1      12.165  14.051  19.446  0.00  0.00    +0.000 A 
ATOM     14  C   UNL     1      12.333  14.673  18.210  0.00  0.00    +0.000 A 
ATOM     15  C   UNL     1      11.707  14.160  17.073  0.00  0.00    +0.000 A 
ATOM     16  C   UNL     1      10.909  13.019  17.171  0.00  0.00    +0.000 A 
ENDBRANCH  10  11
ENDBRANCH   8   9
ENDBRANCH   7   8
ENDBRANCH   1   7
BRANCH   4  17
ATOM     17  C   UNL     1       5.147   4.794  18.815  0.00  0.00    +0.000 C 
BRANCH  17  18
ATOM     18  C   UNL     1       3.861   4.026  18.627  0.00  0.00    +0.000 A 
ATOM     19  C   UNL     1       3.827   2.639  18.841  0.00  0.00    +0.000 A 
ATOM     20  C   UNL     1       2.633   1.929  18.716  0.00  0.00    +0.000 A 
ATOM     21  C   UNL     1       1.458   2.598  18.377  0.00  0.00    +0.000 A 
ATOM     22  C   UNL     1       1.481   3.973  18.153  0.00  0.00    +0.000 A 
ATOM     23  C   UNL     1       2.676   4.684  18.273  0.00  0.00    +0.000 A 
ENDBRANCH  17  18
ENDBRANCH   4  17
TORSDOF 6
ENDMDL
MODEL 9
REMARK VINA RESULT:      -8.0      3.639      6.217
REMARK  Name = 
REMARK  6 active torsions:
REMARK  status: ('A' for Active; 'I' for Inactive)
REMARK    1  A    between atoms: C_1  and  C_9
REMARK    2  A    between atoms: C_2  and  C_3
REMARK    3  A    between atoms: C_9  and  C_10
REMARK    4  A    between atoms: C_10  and  N_11
REMARK    5  A    between atoms: C_14  and  C_15
REMARK    6  A    between atoms: C_15  and  C_16
REMARK                            x       y       z     vdW  Elec       q    Type
REMARK                         _______ _______ _______ _____ _____    ______ ____
ROOT
ATOM      1  N   UNL     1       2.135   2.451  19.534  0.00  0.00    +0.000 NA
ATOM      2  C   UNL     1       3.167   2.911  20.476  0.00  0.00    +0.000 C 
ATOM      3  C   UNL     1       2.561   3.806  21.548  0.00  0.00    +0.000 C 
ATOM      4  C   UNL     1       1.891   5.036  20.934  0.00  0.00    +0.000 C 
ATOM      5  C   UNL     1       0.841   4.540  19.924  0.00  0.00    +0.000 C 
ATOM      6  C   UNL     1       1.432   3.571  18.891  0.00  0.00    +0.000 C 
ENDROOT
BRANCH   1   7
ATOM      7  C   UNL     1       2.701   1.540  18.521  0.00  0.00    +0.000 C 
BRANCH   7   8
ATOM      8  C   UNL     1       2.896   2.231  17.170  0.00  0.00    +0.000 C 
BRANCH   8   9
ATOM      9  C   UNL     1       3.952   3.237  17.215  0.00  0.00    +0.000 C 
ATOM     10  C   UNL     1       4.786   4.093  17.328  0.00  0.00    +0.000 C 
BRANCH  10  11
ATOM     11  C   UNL     1       5.763   5.097  17.573  0.00  0.00    +0.000 A 
ATOM     12  C   UNL     1       6.788   4.831  18.483  0.00  0.00    +0.000 A 
ATOM     13  C   UNL     1       7.748   5.805  18.752  0.00  0.00    +0.000 A 
ATOM     14  C   UNL     1       7.679   7.042  18.112  0.00  0.00    +0.000 A 
ATOM     15  C   UNL     1       6.652   7.310  17.206  0.00  0.00    +0.000 A 
ATOM     16  C   UNL     1       5.688   6.337  16.936  0.00  0.00    +0.000 A 
ENDBRANCH  10  11
ENDBRANCH   8   9
ENDBRANCH   7   8
ENDBRANCH   1   7
BRANCH   4  17
ATOM     17  C   UNL     1       2.890   6.001  20.256  0.00  0.00    +0.000 C 
BRANCH  17  18
ATOM     18  C   UNL     1       2.289   7.266  19.692  0.00  0.00    +0.000 A 
ATOM     19  C   UNL     1       2.449   7.582  18.334  0.00  0.00    +0.000 A 
ATOM     20  C   UNL     1       1.858   8.724  17.794  0.00  0.00    +0.000 A 
ATOM     21  C   UNL     1       1.096   9.562  18.606  0.00  0.00    +0.000 A 
ATOM     22  C   UNL     1       0.937   9.264  19.958  0.00  0.00    +0.000 A 
ATOM     23  C   UNL     1       1.532   8.124  20.500  0.00  0.00    +0.000 A 
ENDBRANCH  17  18
ENDBRANCH   4  17
TORSDOF 6
ENDMDL
