MODEL 1
REMARK VINA RESULT:      -7.7      0.000      0.000
REMARK  Name = 
REMARK  8 active torsions:
REMARK  status: ('A' for Active; 'I' for Inactive)
REMARK    1  A    between atoms: C_1  and  C_2
REMARK    2  A    between atoms: C_2  and  C_3
REMARK    3  A    between atoms: C_3  and  C_4
REMARK    4  A    between atoms: N_6  and  C_7
REMARK    5  A    between atoms: C_7  and  C_8
REMARK    6  A    between atoms: C_7  and  C_29
REMARK    7  A    between atoms: C_14  and  C_15
REMARK    8  A    between atoms: C_20  and  C_21
REMARK                            x       y       z     vdW  Elec       q    Type
REMARK                         _______ _______ _______ _____ _____    ______ ____
ROOT
ATOM      1  C   UNL     1       4.848   3.908  18.649  0.00  0.00    +0.000 C 
ATOM      2  O   UNL     1       5.593   3.056  19.150  0.00  0.00    +0.000 OA
ATOM      3  N   UNL     1       3.534   4.030  19.083  0.00  0.00    +0.000 N 
ATOM      4  C   UNL     1       3.053   3.390  20.286  0.00  0.00    +0.000 C 
ATOM      5  C   UNL     1       1.687   2.888  19.871  0.00  0.00    +0.000 C 
ATOM      6  C   UNL     1       1.174   3.972  18.921  0.00  0.00    +0.000 C 
ATOM      7  C   UNL     1       2.426   4.721  18.415  0.00  0.00    +0.000 C 
ENDROOT
BRANCH   7   8
ATOM      8  C   UNL     1       2.484   6.233  18.771  0.00  0.00    +0.000 C 
ATOM      9  O   UNL     1       3.301   6.667  19.584  0.00  0.00    +0.000 OA
ATOM     10  N   UNL     1       1.629   7.046  18.042  0.00  0.00    +0.000 N 
ATOM     11  C   UNL     1       1.615   8.352  18.458  0.00  0.00    +0.000 A 
ATOM     12  N   UNL     1       0.840   8.828  19.397  0.00  0.00    +0.000 NA
ATOM     13  C   UNL     1       1.052  10.194  19.481  0.00  0.00    +0.000 A 
ATOM     14  C   UNL     1       1.886  10.718  18.508  0.00  0.00    +0.000 A 
ATOM     15  S   UNL     1       2.527   9.453  17.542  0.00  0.00    +0.000 S 
ATOM     16  H   UNL     1       0.686   6.692  18.074  0.00  0.00    +0.000 HD
BRANCH  13  17
ATOM     17  C   UNL     1       0.424  10.999  20.519  0.00  0.00    +0.000 A 
ATOM     18  C   UNL     1      -0.321  10.381  21.534  0.00  0.00    +0.000 A 
ATOM     19  C   UNL     1      -0.894  11.145  22.555  0.00  0.00    +0.000 A 
ATOM     20  C   UNL     1      -0.733  12.530  22.564  0.00  0.00    +0.000 A 
ATOM     21  C   UNL     1      -0.004  13.154  21.554  0.00  0.00    +0.000 A 
ATOM     22  C   UNL     1       0.572  12.392  20.536  0.00  0.00    +0.000 A 
ENDBRANCH  13  17
ENDBRANCH   7   8
BRANCH   1  23
ATOM     23  C   UNL     1       5.319   4.796  17.457  0.00  0.00    +0.000 C 
BRANCH  23  24
ATOM     24  C   UNL     1       6.384   5.804  17.872  0.00  0.00    +0.000 A 
ATOM     25  C   UNL     1       6.444   7.042  17.211  0.00  0.00    +0.000 A 
ATOM     26  C   UNL     1       7.402   7.994  17.565  0.00  0.00    +0.000 A 
ATOM     27  C   UNL     1       8.314   7.718  18.579  0.00  0.00    +0.000 A 
ATOM     28  C   UNL     1       8.269   6.492  19.241  0.00  0.00    +0.000 A 
ATOM     29  C   UNL     1       7.302   5.544  18.900  0.00  0.00    +0.000 A 
ENDBRANCH  23  24
BRANCH  23  32
ATOM     30  C   UNL     1       5.640   4.395  15.042  0.00  0.00    +0.000 C 
ATOM     31  O   UNL     1       5.045   5.418  14.714  0.00  0.00    +0.000 OA
ATOM     32  N   UNL     1       5.794   3.987  16.343  0.00  0.00    +0.000 N 
ATOM     33  H   UNL     1       6.347   3.171  16.563  0.00  0.00    +0.000 HD
BRANCH  30  34
ATOM     34  C   UNL     1       6.243   3.466  14.008  0.00  0.00    +0.000 C 
BRANCH  34  36
ATOM     35  C   UNL     1       4.893   3.183  11.882  0.00  0.00    +0.000 C 
ATOM     36  C   UNL     1       6.009   3.950  12.581  0.00  0.00    +0.000 C 
ENDBRANCH  34  36
ENDBRANCH  30  34
ENDBRANCH  23  32
ENDBRANCH   1  23
TORSDOF 7
ENDMDL
MODEL 2
REMARK VINA RESULT:      -7.7      0.139      1.178
REMARK  Name = 
REMARK  8 active torsions:
REMARK  status: ('A' for Active; 'I' for Inactive)
REMARK    1  A    between atoms: C_1  and  C_2
REMARK    2  A    between atoms: C_2  and  C_3
REMARK    3  A    between atoms: C_3  and  C_4
REMARK    4  A    between atoms: N_6  and  C_7
REMARK    5  A    between atoms: C_7  and  C_8
REMARK    6  A    between atoms: C_7  and  C_29
REMARK    7  A    between atoms: C_14  and  C_15
REMARK    8  A    between atoms: C_20  and  C_21
REMARK                            x       y       z     vdW  Elec       q    Type
REMARK                         _______ _______ _______ _____ _____    ______ ____
ROOT
ATOM      1  C   UNL     1       4.774   3.882  18.734  0.00  0.00    +0.000 C 
ATOM      2  O   UNL     1       5.538   3.038  19.221  0.00  0.00    +0.000 OA
ATOM      3  N   UNL     1       3.481   4.019  19.223  0.00  0.00    +0.000 N 
ATOM      4  C   UNL     1       3.051   3.408  20.461  0.00  0.00    +0.000 C 
ATOM      5  C   UNL     1       1.666   2.904  20.117  0.00  0.00    +0.000 C 
ATOM      6  C   UNL     1       1.116   3.968  19.167  0.00  0.00    +0.000 C 
ATOM      7  C   UNL     1       2.346   4.701  18.589  0.00  0.00    +0.000 C 
ENDROOT
BRANCH   7   8
ATOM      8  C   UNL     1       2.426   6.220  18.908  0.00  0.00    +0.000 C 
ATOM      9  O   UNL     1       3.271   6.666  19.685  0.00  0.00    +0.000 OA
ATOM     10  N   UNL     1       1.554   7.022  18.188  0.00  0.00    +0.000 N 
ATOM     11  C   UNL     1       1.562   8.337  18.574  0.00  0.00    +0.000 A 
ATOM     12  N   UNL     1       0.819   8.840  19.525  0.00  0.00    +0.000 NA
ATOM     13  C   UNL     1       1.042  10.206  19.572  0.00  0.00    +0.000 A 
ATOM     14  C   UNL     1       1.849  10.701  18.561  0.00  0.00    +0.000 A 
ATOM     15  S   UNL     1       2.452   9.410  17.605  0.00  0.00    +0.000 S 
ATOM     16  H   UNL     1       0.610   6.676  18.258  0.00  0.00    +0.000 HD
BRANCH  13  17
ATOM     17  C   UNL     1       0.453  11.039  20.610  0.00  0.00    +0.000 A 
ATOM     18  C   UNL     1       0.632  12.430  20.581  0.00  0.00    +0.000 A 
ATOM     19  C   UNL     1       0.037  13.240  21.553  0.00  0.00    +0.000 A 
ATOM     20  C   UNL     1      -0.734  12.665  22.563  0.00  0.00    +0.000 A 
ATOM     21  C   UNL     1      -0.908  11.284  22.606  0.00  0.00    +0.000 A 
ATOM     22  C   UNL     1      -0.318  10.474  21.634  0.00  0.00    +0.000 A 
ENDBRANCH  13  17
ENDBRANCH   7   8
BRANCH   1  23
ATOM     23  C   UNL     1       5.195   4.742  17.503  0.00  0.00    +0.000 C 
BRANCH  23  24
ATOM     24  C   UNL     1       6.262   5.771  17.854  0.00  0.00    +0.000 A 
ATOM     25  C   UNL     1       7.237   5.442  18.811  0.00  0.00    +0.000 A 
ATOM     26  C   UNL     1       8.234   6.356  19.156  0.00  0.00    +0.000 A 
ATOM     27  C   UNL     1       8.264   7.611  18.556  0.00  0.00    +0.000 A 
ATOM     28  C   UNL     1       7.301   7.954  17.609  0.00  0.00    +0.000 A 
ATOM     29  C   UNL     1       6.311   7.036  17.249  0.00  0.00    +0.000 A 
ENDBRANCH  23  24
BRANCH  23  32
ATOM     30  C   UNL     1       5.621   4.359  15.102  0.00  0.00    +0.000 C 
ATOM     31  O   UNL     1       5.174   5.453  14.769  0.00  0.00    +0.000 OA
ATOM     32  N   UNL     1       5.641   3.906  16.396  0.00  0.00    +0.000 N 
ATOM     33  H   UNL     1       6.079   3.025  16.626  0.00  0.00    +0.000 HD
BRANCH  30  34
ATOM     34  C   UNL     1       6.175   3.388  14.079  0.00  0.00    +0.000 C 
BRANCH  34  36
ATOM     35  C   UNL     1       4.893   3.213  11.900  0.00  0.00    +0.000 C 
ATOM     36  C   UNL     1       6.029   3.899  12.649  0.00  0.00    +0.000 C 
ENDBRANCH  34  36
ENDBRANCH  30  34
ENDBRANCH  23  32
ENDBRANCH   1  23
TORSDOF 7
ENDMDL
MODEL 3
REMARK VINA RESULT:      -7.5      1.045      1.184
REMARK  Name = 
REMARK  8 active torsions:
REMARK  status: ('A' for Active; 'I' for Inactive)
REMARK    1  A    between atoms: C_1  and  C_2
REMARK    2  A    between atoms: C_2  and  C_3
REMARK    3  A    between atoms: C_3  and  C_4
REMARK    4  A    between atoms: N_6  and  C_7
REMARK    5  A    between atoms: C_7  and  C_8
REMARK    6  A    between atoms: C_7  and  C_29
REMARK    7  A    between atoms: C_14  and  C_15
REMARK    8  A    between atoms: C_20  and  C_21
REMARK                            x       y       z     vdW  Elec       q    Type
REMARK                         _______ _______ _______ _____ _____    ______ ____
ROOT
ATOM      1  C   UNL     1       4.744   3.863  18.769  0.00  0.00    +0.000 C 
ATOM      2  O   UNL     1       5.531   3.086  19.324  0.00  0.00    +0.000 OA
ATOM      3  N   UNL     1       3.417   3.922  19.176  0.00  0.00    +0.000 N 
ATOM      4  C   UNL     1       2.955   3.313  20.402  0.00  0.00    +0.000 C 
ATOM      5  C   UNL     1       1.631   2.706  19.992  0.00  0.00    +0.000 C 
ATOM      6  C   UNL     1       1.069   3.706  18.980  0.00  0.00    +0.000 C 
ATOM      7  C   UNL     1       2.280   4.508  18.456  0.00  0.00    +0.000 C 
ENDROOT
BRANCH   7   8
ATOM      8  C   UNL     1       2.236   6.036  18.736  0.00  0.00    +0.000 C 
ATOM      9  O   UNL     1       2.517   6.490  19.846  0.00  0.00    +0.000 OA
ATOM     10  N   UNL     1       1.960   6.832  17.634  0.00  0.00    +0.000 N 
ATOM     11  C   UNL     1       1.810   8.161  17.933  0.00  0.00    +0.000 A 
ATOM     12  N   UNL     1       0.686   8.724  18.290  0.00  0.00    +0.000 NA
ATOM     13  C   UNL     1       0.907  10.084  18.428  0.00  0.00    +0.000 A 
ATOM     14  C   UNL     1       2.165  10.514  18.041  0.00  0.00    +0.000 A 
ATOM     15  S   UNL     1       3.140   9.168  17.616  0.00  0.00    +0.000 S 
ATOM     16  H   UNL     1       1.126   6.515  17.166  0.00  0.00    +0.000 HD
BRANCH  13  17
ATOM     17  C   UNL     1      -0.125  10.975  18.937  0.00  0.00    +0.000 A 
ATOM     18  C   UNL     1      -1.407  10.965  18.366  0.00  0.00    +0.000 A 
ATOM     19  C   UNL     1      -2.413  11.791  18.874  0.00  0.00    +0.000 A 
ATOM     20  C   UNL     1      -2.144  12.638  19.949  0.00  0.00    +0.000 A 
ATOM     21  C   UNL     1      -0.872  12.663  20.515  0.00  0.00    +0.000 A 
ATOM     22  C   UNL     1       0.133  11.835  20.011  0.00  0.00    +0.000 A 
ENDBRANCH  13  17
ENDBRANCH   7   8
BRANCH   1  23
ATOM     23  C   UNL     1       5.181   4.720  17.541  0.00  0.00    +0.000 C 
BRANCH  23  24
ATOM     24  C   UNL     1       6.266   5.728  17.896  0.00  0.00    +0.000 A 
ATOM     25  C   UNL     1       6.291   6.965  17.229  0.00  0.00    +0.000 A 
ATOM     26  C   UNL     1       7.266   7.918  17.530  0.00  0.00    +0.000 A 
ATOM     27  C   UNL     1       8.231   7.643  18.493  0.00  0.00    +0.000 A 
ATOM     28  C   UNL     1       8.223   6.419  19.159  0.00  0.00    +0.000 A 
ATOM     29  C   UNL     1       7.239   5.470  18.873  0.00  0.00    +0.000 A 
ENDBRANCH  23  24
BRANCH  23  32
ATOM     30  C   UNL     1       5.565   4.326  15.134  0.00  0.00    +0.000 C 
ATOM     31  O   UNL     1       5.106   5.416  14.804  0.00  0.00    +0.000 OA
ATOM     32  N   UNL     1       5.611   3.880  16.431  0.00  0.00    +0.000 N 
ATOM     33  H   UNL     1       6.057   3.003  16.657  0.00  0.00    +0.000 HD
BRANCH  30  34
ATOM     34  C   UNL     1       6.105   3.352  14.107  0.00  0.00    +0.000 C 
BRANCH  34  36
ATOM     35  C   UNL     1       4.880   3.235  11.891  0.00  0.00    +0.000 C 
ATOM     36  C   UNL     1       6.005   3.890  12.683  0.00  0.00    +0.000 C 
ENDBRANCH  34  36
ENDBRANCH  30  34
ENDBRANCH  23  32
ENDBRANCH   1  23
TORSDOF 7
ENDMDL
MODEL 4
REMARK VINA RESULT:      -7.3      0.973      1.138
REMARK  Name = 
REMARK  8 active torsions:
REMARK  status: ('A' for Active; 'I' for Inactive)
REMARK    1  A    between atoms: C_1  and  C_2
REMARK    2  A    between atoms: C_2  and  C_3
REMARK    3  A    between atoms: C_3  and  C_4
REMARK    4  A    between atoms: N_6  and  C_7
REMARK    5  A    between atoms: C_7  and  C_8
REMARK    6  A    between atoms: C_7  and  C_29
REMARK    7  A    between atoms: C_14  and  C_15
REMARK    8  A    between atoms: C_20  and  C_21
REMARK                            x       y       z     vdW  Elec       q    Type
REMARK                         _______ _______ _______ _____ _____    ______ ____
ROOT
ATOM      1  C   UNL     1       5.853   4.590  18.036  0.00  0.00    +0.000 C 
ATOM      2  O   UNL     1       6.753   3.835  18.426  0.00  0.00    +0.000 OA
ATOM      3  N   UNL     1       4.542   4.383  18.444  0.00  0.00    +0.000 N 
ATOM      4  C   UNL     1       4.198   3.484  19.522  0.00  0.00    +0.000 C 
ATOM      5  C   UNL     1       2.958   2.793  18.995  0.00  0.00    +0.000 C 
ATOM      6  C   UNL     1       2.240   3.887  18.204  0.00  0.00    +0.000 C 
ATOM      7  C   UNL     1       3.317   4.937  17.854  0.00  0.00    +0.000 C 
ENDROOT
BRANCH   7   8
ATOM      8  C   UNL     1       3.073   6.358  18.436  0.00  0.00    +0.000 C 
ATOM      9  O   UNL     1       3.816   6.832  19.296  0.00  0.00    +0.000 OA
ATOM     10  N   UNL     1       2.037   7.068  17.847  0.00  0.00    +0.000 N 
ATOM     11  C   UNL     1       1.769   8.266  18.457  0.00  0.00    +0.000 A 
ATOM     12  N   UNL     1       0.952   8.423  19.465  0.00  0.00    +0.000 NA
ATOM     13  C   UNL     1       0.876   9.775  19.755  0.00  0.00    +0.000 A 
ATOM     14  C   UNL     1       1.541  10.601  18.863  0.00  0.00    +0.000 A 
ATOM     15  S   UNL     1       2.391   9.657  17.710  0.00  0.00    +0.000 S 
ATOM     16  H   UNL     1       1.191   6.520  17.835  0.00  0.00    +0.000 HD
BRANCH  13  17
ATOM     17  C   UNL     1       0.139  10.268  20.909  0.00  0.00    +0.000 A 
ATOM     18  C   UNL     1      -0.059   9.438  22.022  0.00  0.00    +0.000 A 
ATOM     19  C   UNL     1      -0.734   9.917  23.149  0.00  0.00    +0.000 A 
ATOM     20  C   UNL     1      -1.219  11.224  23.168  0.00  0.00    +0.000 A 
ATOM     21  C   UNL     1      -1.036  12.052  22.063  0.00  0.00    +0.000 A 
ATOM     22  C   UNL     1      -0.360  11.576  20.938  0.00  0.00    +0.000 A 
ENDBRANCH  13  17
ENDBRANCH   7   8
BRANCH   1  23
ATOM     23  C   UNL     1       6.138   5.726  17.007  0.00  0.00    +0.000 C 
BRANCH  23  24
ATOM     24  C   UNL     1       7.014   6.827  17.588  0.00  0.00    +0.000 A 
ATOM     25  C   UNL     1       6.936   8.120  17.043  0.00  0.00    +0.000 A 
ATOM     26  C   UNL     1       7.719   9.158  17.551  0.00  0.00    +0.000 A 
ATOM     27  C   UNL     1       8.595   8.915  18.604  0.00  0.00    +0.000 A 
ATOM     28  C   UNL     1       8.688   7.637  19.153  0.00  0.00    +0.000 A 
ATOM     29  C   UNL     1       7.893   6.600  18.658  0.00  0.00    +0.000 A 
ENDBRANCH  23  24
BRANCH  23  32
ATOM     30  C   UNL     1       5.964   4.577  14.828  0.00  0.00    +0.000 C 
ATOM     31  O   UNL     1       4.763   4.353  14.955  0.00  0.00    +0.000 OA
ATOM     32  N   UNL     1       6.727   5.201  15.782  0.00  0.00    +0.000 N 
ATOM     33  H   UNL     1       7.697   5.418  15.603  0.00  0.00    +0.000 HD
BRANCH  30  34
ATOM     34  C   UNL     1       6.722   4.145  13.590  0.00  0.00    +0.000 C 
BRANCH  34  36
ATOM     35  C   UNL     1       6.400   2.397  11.783  0.00  0.00    +0.000 C 
ATOM     36  C   UNL     1       5.801   3.599  12.502  0.00  0.00    +0.000 C 
ENDBRANCH  34  36
ENDBRANCH  30  34
ENDBRANCH  23  32
ENDBRANCH   1  23
TORSDOF 7
ENDMDL
MODEL 5
REMARK VINA RESULT:      -7.3      1.810      2.218
REMARK  Name = 
REMARK  8 active torsions:
REMARK  status: ('A' for Active; 'I' for Inactive)
REMARK    1  A    between atoms: C_1  and  C_2
REMARK    2  A    between atoms: C_2  and  C_3
REMARK    3  A    between atoms: C_3  and  C_4
REMARK    4  A    between atoms: N_6  and  C_7
REMARK    5  A    between atoms: C_7  and  C_8
REMARK    6  A    between atoms: C_7  and  C_29
REMARK    7  A    between atoms: C_14  and  C_15
REMARK    8  A    between atoms: C_20  and  C_21
REMARK                            x       y       z     vdW  Elec       q    Type
REMARK                         _______ _______ _______ _____ _____    ______ ____
ROOT
ATOM      1  C   UNL     1       5.604   4.436  18.097  0.00  0.00    +0.000 C 
ATOM      2  O   UNL     1       6.644   3.996  18.604  0.00  0.00    +0.000 OA
ATOM      3  N   UNL     1       4.418   3.722  18.206  0.00  0.00    +0.000 N 
ATOM      4  C   UNL     1       4.263   2.610  19.114  0.00  0.00    +0.000 C 
ATOM      5  C   UNL     1       3.476   1.615  18.289  0.00  0.00    +0.000 C 
ATOM      6  C   UNL     1       2.541   2.492  17.454  0.00  0.00    +0.000 C 
ATOM      7  C   UNL     1       3.190   3.892  17.419  0.00  0.00    +0.000 C 
ENDROOT
BRANCH   7   8
ATOM      8  C   UNL     1       2.341   5.033  18.047  0.00  0.00    +0.000 C 
ATOM      9  O   UNL     1       1.153   5.180  17.755  0.00  0.00    +0.000 OA
ATOM     10  N   UNL     1       2.987   5.789  19.013  0.00  0.00    +0.000 N 
ATOM     11  C   UNL     1       2.257   6.859  19.462  0.00  0.00    +0.000 A 
ATOM     12  N   UNL     1       2.256   8.045  18.912  0.00  0.00    +0.000 NA
ATOM     13  C   UNL     1       1.467   8.880  19.685  0.00  0.00    +0.000 A 
ATOM     14  C   UNL     1       1.008   8.321  20.867  0.00  0.00    +0.000 A 
ATOM     15  S   UNL     1       1.465   6.669  20.951  0.00  0.00    +0.000 S 
ATOM     16  H   UNL     1       3.871   6.130  18.666  0.00  0.00    +0.000 HD
BRANCH  13  17
ATOM     17  C   UNL     1       1.164  10.242  19.271  0.00  0.00    +0.000 A 
ATOM     18  C   UNL     1      -0.011  10.866  19.713  0.00  0.00    +0.000 A 
ATOM     19  C   UNL     1      -0.290  12.187  19.350  0.00  0.00    +0.000 A 
ATOM     20  C   UNL     1       0.601  12.889  18.538  0.00  0.00    +0.000 A 
ATOM     21  C   UNL     1       1.765  12.274  18.085  0.00  0.00    +0.000 A 
ATOM     22  C   UNL     1       2.046  10.956  18.450  0.00  0.00    +0.000 A 
ENDBRANCH  13  17
ENDBRANCH   7   8
BRANCH   1  23
ATOM     23  C   UNL     1       5.609   5.740  17.241  0.00  0.00    +0.000 C 
BRANCH  23  24
ATOM     24  C   UNL     1       6.670   6.731  17.703  0.00  0.00    +0.000 A 
ATOM     25  C   UNL     1       6.711   8.006  17.116  0.00  0.00    +0.000 A 
ATOM     26  C   UNL     1       7.665   8.945  17.515  0.00  0.00    +0.000 A 
ATOM     27  C   UNL     1       8.592   8.618  18.499  0.00  0.00    +0.000 A 
ATOM     28  C   UNL     1       8.566   7.354  19.088  0.00  0.00    +0.000 A 
ATOM     29  C   UNL     1       7.603   6.419  18.702  0.00  0.00    +0.000 A 
ENDBRANCH  23  24
BRANCH  23  32
ATOM     30  C   UNL     1       6.895   4.826  15.342  0.00  0.00    +0.000 C 
ATOM     31  O   UNL     1       7.864   4.535  16.037  0.00  0.00    +0.000 OA
ATOM     32  N   UNL     1       5.770   5.447  15.823  0.00  0.00    +0.000 N 
ATOM     33  H   UNL     1       4.975   5.607  15.222  0.00  0.00    +0.000 HD
BRANCH  30  34
ATOM     34  C   UNL     1       6.876   4.542  13.853  0.00  0.00    +0.000 C 
BRANCH  34  36
ATOM     35  C   UNL     1       5.816   3.160  12.012  0.00  0.00    +0.000 C 
ATOM     36  C   UNL     1       5.689   3.678  13.439  0.00  0.00    +0.000 C 
ENDBRANCH  34  36
ENDBRANCH  30  34
ENDBRANCH  23  32
ENDBRANCH   1  23
TORSDOF 7
ENDMDL
MODEL 6
REMARK VINA RESULT:      -7.3      1.200      1.790
REMARK  Name = 
REMARK  8 active torsions:
REMARK  status: ('A' for Active; 'I' for Inactive)
REMARK    1  A    between atoms: C_1  and  C_2
REMARK    2  A    between atoms: C_2  and  C_3
REMARK    3  A    between atoms: C_3  and  C_4
REMARK    4  A    between atoms: N_6  and  C_7
REMARK    5  A    between atoms: C_7  and  C_8
REMARK    6  A    between atoms: C_7  and  C_29
REMARK    7  A    between atoms: C_14  and  C_15
REMARK    8  A    between atoms: C_20  and  C_21
REMARK                            x       y       z     vdW  Elec       q    Type
REMARK                         _______ _______ _______ _____ _____    ______ ____
ROOT
ATOM      1  C   UNL     1       6.159   4.742  17.834  0.00  0.00    +0.000 C 
ATOM      2  O   UNL     1       7.091   4.017  18.206  0.00  0.00    +0.000 OA
ATOM      3  N   UNL     1       4.857   4.467  18.232  0.00  0.00    +0.000 N 
ATOM      4  C   UNL     1       4.551   3.524  19.284  0.00  0.00    +0.000 C 
ATOM      5  C   UNL     1       3.345   2.794  18.735  0.00  0.00    +0.000 C 
ATOM      6  C   UNL     1       2.580   3.877  17.971  0.00  0.00    +0.000 C 
ATOM      7  C   UNL     1       3.611   4.982  17.653  0.00  0.00    +0.000 C 
ENDROOT
BRANCH   7   8
ATOM      8  C   UNL     1       3.303   6.375  18.272  0.00  0.00    +0.000 C 
ATOM      9  O   UNL     1       4.053   6.882  19.107  0.00  0.00    +0.000 OA
ATOM     10  N   UNL     1       2.198   7.025  17.745  0.00  0.00    +0.000 N 
ATOM     11  C   UNL     1       1.881   8.193  18.389  0.00  0.00    +0.000 A 
ATOM     12  N   UNL     1       1.104   8.281  19.436  0.00  0.00    +0.000 NA
ATOM     13  C   UNL     1       0.955   9.620  19.755  0.00  0.00    +0.000 A 
ATOM     14  C   UNL     1       1.523  10.502  18.850  0.00  0.00    +0.000 A 
ATOM     15  S   UNL     1       2.378   9.634  17.641  0.00  0.00    +0.000 S 
ATOM     16  H   UNL     1       1.389   6.424  17.761  0.00  0.00    +0.000 HD
BRANCH  13  17
ATOM     17  C   UNL     1       0.242  10.045  20.950  0.00  0.00    +0.000 A 
ATOM     18  C   UNL     1      -0.508  11.230  20.937  0.00  0.00    +0.000 A 
ATOM     19  C   UNL     1      -1.226  11.625  22.070  0.00  0.00    +0.000 A 
ATOM     20  C   UNL     1      -1.193  10.842  23.224  0.00  0.00    +0.000 A 
ATOM     21  C   UNL     1      -0.442   9.669  23.249  0.00  0.00    +0.000 A 
ATOM     22  C   UNL     1       0.272   9.272  22.117  0.00  0.00    +0.000 A 
ENDBRANCH  13  17
ENDBRANCH   7   8
BRANCH   1  23
ATOM     23  C   UNL     1       6.395   5.917  16.837  0.00  0.00    +0.000 C 
BRANCH  23  24
ATOM     24  C   UNL     1       7.166   7.068  17.471  0.00  0.00    +0.000 A 
ATOM     25  C   UNL     1       8.013   6.803  18.560  0.00  0.00    +0.000 A 
ATOM     26  C   UNL     1       8.740   7.829  19.165  0.00  0.00    +0.000 A 
ATOM     27  C   UNL     1       8.624   9.134  18.694  0.00  0.00    +0.000 A 
ATOM     28  C   UNL     1       7.784   9.413  17.618  0.00  0.00    +0.000 A 
ATOM     29  C   UNL     1       7.068   8.386  16.999  0.00  0.00    +0.000 A 
ENDBRANCH  23  24
BRANCH  23  32
ATOM     30  C   UNL     1       6.423   4.684  14.698  0.00  0.00    +0.000 C 
ATOM     31  O   UNL     1       5.280   4.258  14.839  0.00  0.00    +0.000 OA
ATOM     32  N   UNL     1       7.067   5.463  15.626  0.00  0.00    +0.000 N 
ATOM     33  H   UNL     1       7.983   5.840  15.433  0.00  0.00    +0.000 HD
BRANCH  30  34
ATOM     34  C   UNL     1       7.245   4.350  13.469  0.00  0.00    +0.000 C 
BRANCH  34  36
ATOM     35  C   UNL     1       6.040   2.687  11.983  0.00  0.00    +0.000 C 
ATOM     36  C   UNL     1       6.382   4.152  12.227  0.00  0.00    +0.000 C 
ENDBRANCH  34  36
ENDBRANCH  30  34
ENDBRANCH  23  32
ENDBRANCH   1  23
TORSDOF 7
ENDMDL
MODEL 7
REMARK VINA RESULT:      -7.2      3.862     10.200
REMARK  Name = 
REMARK  8 active torsions:
REMARK  status: ('A' for Active; 'I' for Inactive)
REMARK    1  A    between atoms: C_1  and  C_2
REMARK    2  A    between atoms: C_2  and  C_3
REMARK    3  A    between atoms: C_3  and  C_4
REMARK    4  A    between atoms: N_6  and  C_7
REMARK    5  A    between atoms: C_7  and  C_8
REMARK    6  A    between atoms: C_7  and  C_29
REMARK    7  A    between atoms: C_14  and  C_15
REMARK    8  A    between atoms: C_20  and  C_21
REMARK                            x       y       z     vdW  Elec       q    Type
REMARK                         _______ _______ _______ _____ _____    ______ ____
ROOT
ATOM      1  C   UNL     1      -1.049  14.037  20.655  0.00  0.00    +0.000 C 
ATOM      2  O   UNL     1      -1.340  15.027  21.338  0.00  0.00    +0.000 OA
ATOM      3  N   UNL     1       0.111  14.031  19.891  0.00  0.00    +0.000 N 
ATOM      4  C   UNL     1       1.151  15.022  20.052  0.00  0.00    +0.000 C 
ATOM      5  C   UNL     1       1.550  15.318  18.622  0.00  0.00    +0.000 C 
ATOM      6  C   UNL     1       1.419  13.965  17.920  0.00  0.00    +0.000 C 
ATOM      7  C   UNL     1       0.458  13.125  18.789  0.00  0.00    +0.000 C 
ENDROOT
BRANCH   7   8
ATOM      8  C   UNL     1       1.066  11.821  19.378  0.00  0.00    +0.000 C 
ATOM      9  O   UNL     1       2.142  11.831  19.977  0.00  0.00    +0.000 OA
ATOM     10  N   UNL     1       0.267  10.693  19.264  0.00  0.00    +0.000 N 
ATOM     11  C   UNL     1       0.875   9.538  19.683  0.00  0.00    +0.000 A 
ATOM     12  N   UNL     1       1.614   8.767  18.928  0.00  0.00    +0.000 NA
ATOM     13  C   UNL     1       1.986   7.660  19.672  0.00  0.00    +0.000 A 
ATOM     14  C   UNL     1       1.399   7.574  20.924  0.00  0.00    +0.000 A 
ATOM     15  S   UNL     1       0.463   8.978  21.231  0.00  0.00    +0.000 S 
ATOM     16  H   UNL     1      -0.036  10.565  18.311  0.00  0.00    +0.000 HD
BRANCH  13  17
ATOM     17  C   UNL     1       2.916   6.669  19.151  0.00  0.00    +0.000 A 
ATOM     18  C   UNL     1       3.156   5.486  19.866  0.00  0.00    +0.000 A 
ATOM     19  C   UNL     1       4.019   4.514  19.354  0.00  0.00    +0.000 A 
ATOM     20  C   UNL     1       4.654   4.720  18.129  0.00  0.00    +0.000 A 
ATOM     21  C   UNL     1       4.430   5.897  17.418  0.00  0.00    +0.000 A 
ATOM     22  C   UNL     1       3.566   6.867  17.927  0.00  0.00    +0.000 A 
ENDBRANCH  13  17
ENDBRANCH   7   8
BRANCH   1  23
ATOM     23  C   UNL     1      -2.012  12.815  20.549  0.00  0.00    +0.000 C 
BRANCH  23  24
ATOM     24  C   UNL     1      -2.976  12.734  21.726  0.00  0.00    +0.000 A 
ATOM     25  C   UNL     1      -4.313  13.123  21.539  0.00  0.00    +0.000 A 
ATOM     26  C   UNL     1      -5.228  13.058  22.591  0.00  0.00    +0.000 A 
ATOM     27  C   UNL     1      -4.817  12.612  23.843  0.00  0.00    +0.000 A 
ATOM     28  C   UNL     1      -3.493  12.227  24.045  0.00  0.00    +0.000 A 
ATOM     29  C   UNL     1      -2.578  12.275  22.990  0.00  0.00    +0.000 A 
ENDBRANCH  23  24
BRANCH  23  32
ATOM     30  C   UNL     1      -2.957  11.670  18.576  0.00  0.00    +0.000 C 
ATOM     31  O   UNL     1      -2.498  10.577  18.894  0.00  0.00    +0.000 OA
ATOM     32  N   UNL     1      -2.747  12.822  19.291  0.00  0.00    +0.000 N 
ATOM     33  H   UNL     1      -3.200  13.684  19.022  0.00  0.00    +0.000 HD
BRANCH  30  34
ATOM     34  C   UNL     1      -3.791  11.843  17.323  0.00  0.00    +0.000 C 
BRANCH  34  36
ATOM     35  C   UNL     1      -2.865  10.615  15.309  0.00  0.00    +0.000 C 
ATOM     36  C   UNL     1      -3.843  10.575  16.476  0.00  0.00    +0.000 C 
ENDBRANCH  34  36
ENDBRANCH  30  34
ENDBRANCH  23  32
ENDBRANCH   1  23
TORSDOF 7
ENDMDL
MODEL 8
REMARK VINA RESULT:      -7.1      1.778      2.448
REMARK  Name = 
REMARK  8 active torsions:
REMARK  status: ('A' for Active; 'I' for Inactive)
REMARK    1  A    between atoms: C_1  and  C_2
REMARK    2  A    between atoms: C_2  and  C_3
REMARK    3  A    between atoms: C_3  and  C_4
REMARK    4  A    between atoms: N_6  and  C_7
REMARK    5  A    between atoms: C_7  and  C_8
REMARK    6  A    between atoms: C_7  and  C_29
REMARK    7  A    between atoms: C_14  and  C_15
REMARK    8  A    between atoms: C_20  and  C_21
REMARK                            x       y       z     vdW  Elec       q    Type
REMARK                         _______ _______ _______ _____ _____    ______ ____
ROOT
ATOM      1  C   UNL     1       5.615   4.433  18.115  0.00  0.00    +0.000 C 
ATOM      2  O   UNL     1       6.665   4.013  18.618  0.00  0.00    +0.000 OA
ATOM      3  N   UNL     1       4.438   3.708  18.247  0.00  0.00    +0.000 N 
ATOM      4  C   UNL     1       4.305   2.606  19.173  0.00  0.00    +0.000 C 
ATOM      5  C   UNL     1       3.522   1.590  18.370  0.00  0.00    +0.000 C 
ATOM      6  C   UNL     1       2.569   2.444  17.533  0.00  0.00    +0.000 C 
ATOM      7  C   UNL     1       3.200   3.852  17.471  0.00  0.00    +0.000 C 
ENDROOT
BRANCH   7   8
ATOM      8  C   UNL     1       2.344   4.992  18.091  0.00  0.00    +0.000 C 
ATOM      9  O   UNL     1       1.173   5.168  17.751  0.00  0.00    +0.000 OA
ATOM     10  N   UNL     1       2.960   5.710  19.105  0.00  0.00    +0.000 N 
ATOM     11  C   UNL     1       2.229   6.781  19.550  0.00  0.00    +0.000 A 
ATOM     12  N   UNL     1       2.273   7.981  19.033  0.00  0.00    +0.000 NA
ATOM     13  C   UNL     1       1.465   8.810  19.793  0.00  0.00    +0.000 A 
ATOM     14  C   UNL     1       0.944   8.229  20.937  0.00  0.00    +0.000 A 
ATOM     15  S   UNL     1       1.368   6.567  20.997  0.00  0.00    +0.000 S 
ATOM     16  H   UNL     1       3.864   6.042  18.808  0.00  0.00    +0.000 HD
BRANCH  13  17
ATOM     17  C   UNL     1       1.206  10.188  19.402  0.00  0.00    +0.000 A 
ATOM     18  C   UNL     1       2.028  10.816  18.456  0.00  0.00    +0.000 A 
ATOM     19  C   UNL     1       1.763  12.127  18.048  0.00  0.00    +0.000 A 
ATOM     20  C   UNL     1       0.679  12.819  18.589  0.00  0.00    +0.000 A 
ATOM     21  C   UNL     1      -0.136  12.206  19.537  0.00  0.00    +0.000 A 
ATOM     22  C   UNL     1       0.126  10.896  19.943  0.00  0.00    +0.000 A 
ENDBRANCH  13  17
ENDBRANCH   7   8
BRANCH   1  23
ATOM     23  C   UNL     1       5.595   5.725  17.241  0.00  0.00    +0.000 C 
BRANCH  23  24
ATOM     24  C   UNL     1       6.644   6.737  17.681  0.00  0.00    +0.000 A 
ATOM     25  C   UNL     1       7.557   6.379  18.688  0.00  0.00    +0.000 A 
ATOM     26  C   UNL     1       8.537   7.276  19.115  0.00  0.00    +0.000 A 
ATOM     27  C   UNL     1       8.612   8.545  18.548  0.00  0.00    +0.000 A 
ATOM     28  C   UNL     1       7.711   8.917  17.551  0.00  0.00    +0.000 A 
ATOM     29  C   UNL     1       6.739   8.015  17.110  0.00  0.00    +0.000 A 
ENDBRANCH  23  24
BRANCH  23  32
ATOM     30  C   UNL     1       6.884   4.808  15.345  0.00  0.00    +0.000 C 
ATOM     31  O   UNL     1       7.864   4.546  16.037  0.00  0.00    +0.000 OA
ATOM     32  N   UNL     1       5.751   5.414  15.826  0.00  0.00    +0.000 N 
ATOM     33  H   UNL     1       4.948   5.549  15.229  0.00  0.00    +0.000 HD
BRANCH  30  34
ATOM     34  C   UNL     1       6.860   4.500  13.861  0.00  0.00    +0.000 C 
BRANCH  34  36
ATOM     35  C   UNL     1       5.731   3.117  12.063  0.00  0.00    +0.000 C 
ATOM     36  C   UNL     1       5.599   3.752  13.441  0.00  0.00    +0.000 C 
ENDBRANCH  34  36
ENDBRANCH  30  34
ENDBRANCH  23  32
ENDBRANCH   1  23
TORSDOF 7
ENDMDL
MODEL 9
REMARK VINA RESULT:      -7.1      4.215     10.498
REMARK  Name = 
REMARK  8 active torsions:
REMARK  status: ('A' for Active; 'I' for Inactive)
REMARK    1  A    between atoms: C_1  and  C_2
REMARK    2  A    between atoms: C_2  and  C_3
REMARK    3  A    between atoms: C_3  and  C_4
REMARK    4  A    between atoms: N_6  and  C_7
REMARK    5  A    between atoms: C_7  and  C_8
REMARK    6  A    between atoms: C_7  and  C_29
REMARK    7  A    between atoms: C_14  and  C_15
REMARK    8  A    between atoms: C_20  and  C_21
REMARK                            x       y       z     vdW  Elec       q    Type
REMARK                         _______ _______ _______ _____ _____    ______ ____
ROOT
ATOM      1  C   UNL     1      -1.636  14.296  20.751  0.00  0.00    +0.000 C 
ATOM      2  O   UNL     1      -2.009  15.272  21.415  0.00  0.00    +0.000 OA
ATOM      3  N   UNL     1      -0.473  14.367  19.997  0.00  0.00    +0.000 N 
ATOM      4  C   UNL     1       0.486  15.438  20.148  0.00  0.00    +0.000 C 
ATOM      5  C   UNL     1       0.873  15.741  18.717  0.00  0.00    +0.000 C 
ATOM      6  C   UNL     1       0.853  14.371  18.036  0.00  0.00    +0.000 C 
ATOM      7  C   UNL     1      -0.046  13.473  18.913  0.00  0.00    +0.000 C 
ENDROOT
BRANCH   7   8
ATOM      8  C   UNL     1       0.655  12.230  19.529  0.00  0.00    +0.000 C 
ATOM      9  O   UNL     1       1.839  12.266  19.866  0.00  0.00    +0.000 OA
ATOM     10  N   UNL     1      -0.169  11.137  19.753  0.00  0.00    +0.000 N 
ATOM     11  C   UNL     1       0.497  10.019  20.184  0.00  0.00    +0.000 A 
ATOM     12  N   UNL     1       1.032   9.120  19.399  0.00  0.00    +0.000 NA
ATOM     13  C   UNL     1       1.542   8.104  20.189  0.00  0.00    +0.000 A 
ATOM     14  C   UNL     1       1.253   8.213  21.540  0.00  0.00    +0.000 A 
ATOM     15  S   UNL     1       0.436   9.690  21.848  0.00  0.00    +0.000 S 
ATOM     16  H   UNL     1      -0.682  10.900  18.919  0.00  0.00    +0.000 HD
BRANCH  13  17
ATOM     17  C   UNL     1       2.312   7.009  19.619  0.00  0.00    +0.000 A 
ATOM     18  C   UNL     1       3.013   7.194  18.418  0.00  0.00    +0.000 A 
ATOM     19  C   UNL     1       3.786   6.158  17.884  0.00  0.00    +0.000 A 
ATOM     20  C   UNL     1       3.857   4.931  18.542  0.00  0.00    +0.000 A 
ATOM     21  C   UNL     1       3.155   4.735  19.730  0.00  0.00    +0.000 A 
ATOM     22  C   UNL     1       2.386   5.769  20.266  0.00  0.00    +0.000 A 
ENDBRANCH  13  17
ENDBRANCH   7   8
BRANCH   1  23
ATOM     23  C   UNL     1      -2.501  13.001  20.659  0.00  0.00    +0.000 C 
BRANCH  23  24
ATOM     24  C   UNL     1      -3.422  12.834  21.860  0.00  0.00    +0.000 A 
ATOM     25  C   UNL     1      -2.880  12.390  23.078  0.00  0.00    +0.000 A 
ATOM     26  C   UNL     1      -3.690  12.229  24.204  0.00  0.00    +0.000 A 
ATOM     27  C   UNL     1      -5.052  12.502  24.124  0.00  0.00    +0.000 A 
ATOM     28  C   UNL     1      -5.606  12.939  22.921  0.00  0.00    +0.000 A 
ATOM     29  C   UNL     1      -4.795  13.117  21.798  0.00  0.00    +0.000 A 
ENDBRANCH  23  24
BRANCH  23  32
ATOM     30  C   UNL     1      -3.380  11.807  18.685  0.00  0.00    +0.000 C 
ATOM     31  O   UNL     1      -2.802  10.760  18.964  0.00  0.00    +0.000 OA
ATOM     32  N   UNL     1      -3.268  12.959  19.421  0.00  0.00    +0.000 N 
ATOM     33  H   UNL     1      -3.815  13.775  19.185  0.00  0.00    +0.000 HD
BRANCH  30  34
ATOM     34  C   UNL     1      -4.262  11.919  17.458  0.00  0.00    +0.000 C 
BRANCH  34  36
ATOM     35  C   UNL     1      -3.130  10.924  15.421  0.00  0.00    +0.000 C 
ATOM     36  C   UNL     1      -4.142  10.707  16.539  0.00  0.00    +0.000 C 
ENDBRANCH  34  36
ENDBRANCH  30  34
ENDBRANCH  23  32
ENDBRANCH   1  23
TORSDOF 7
ENDMDL
