MODEL 1
REMARK VINA RESULT:      -7.4      0.000      0.000
REMARK  Name = 
REMARK  15 active torsions:
REMARK  status: ('A' for Active; 'I' for Inactive)
REMARK    1  A    between atoms: C_1  and  C_2
REMARK    2  A    between atoms: C_2  and  O_3
REMARK    3  A    between atoms: O_3  and  C_4
REMARK    4  A    between atoms: C_7  and  C_8
REMARK    5  A    between atoms: C_8  and  C_9
REMARK    6  A    between atoms: C_11  and  C_12
REMARK    7  A    between atoms: C_14  and  C_15
REMARK    8  A    between atoms: N_16  and  O_17
REMARK    9  A    between atoms: O_17  and  C_18
REMARK   10  A    between atoms: C_18  and  C_19
REMARK   11  A    between atoms: C_19  and  O_20
REMARK   12  A    between atoms: O_20  and  C_21
REMARK   13  A    between atoms: C_22  and  O_23
REMARK   14  A    between atoms: C_24  and  O_25
REMARK   15  A    between atoms: C_26  and  O_27
REMARK                            x       y       z     vdW  Elec       q    Type
REMARK                         _______ _______ _______ _____ _____    ______ ____
ROOT
ATOM      1  C   UNL     1       2.076   7.627  20.054  0.00  0.00    +0.000 C 
ATOM      2  O   UNL     1       1.012   7.925  20.964  0.00  0.00    +0.000 OA
ATOM      3  C   UNL     1       0.912   9.338  21.197  0.00  0.00    +0.000 C 
ATOM      4  C   UNL     1       0.556  10.090  19.900  0.00  0.00    +0.000 C 
ATOM      5  C   UNL     1       1.579   9.768  18.805  0.00  0.00    +0.000 C 
ATOM      6  C   UNL     1       1.792   8.266  18.665  0.00  0.00    +0.000 C 
ENDROOT
BRANCH   1   9
ATOM      7  C   UNL     1       3.901   4.416  19.215  0.00  0.00    +0.000 A 
ATOM      8  C   UNL     1       3.328   5.685  19.008  0.00  0.00    +0.000 A 
ATOM      9  C   UNL     1       2.264   6.134  19.807  0.00  0.00    +0.000 A 
ATOM     10  C   UNL     1       1.624   5.231  20.665  0.00  0.00    +0.000 A 
ATOM     11  C   UNL     1       2.162   3.960  20.857  0.00  0.00    +0.000 A 
ATOM     12  C   UNL     1       3.319   3.575  20.177  0.00  0.00    +0.000 A 
ATOM     13 CL   UNL     1       4.008   2.051  20.615  0.00  0.00    +0.000 Cl
BRANCH   7  14
ATOM     14  C   UNL     1       5.167   4.065  18.460  0.00  0.00    +0.000 C 
BRANCH  14  18
ATOM     15  C   UNL     1       7.753   7.483  17.813  0.00  0.00    +0.000 A 
ATOM     16  C   UNL     1       6.737   7.184  16.907  0.00  0.00    +0.000 A 
ATOM     17  C   UNL     1       5.917   6.072  17.101  0.00  0.00    +0.000 A 
ATOM     18  C   UNL     1       6.105   5.226  18.204  0.00  0.00    +0.000 A 
ATOM     19  C   UNL     1       7.171   5.499  19.075  0.00  0.00    +0.000 A 
ATOM     20  C   UNL     1       7.989   6.618  18.884  0.00  0.00    +0.000 A 
BRANCH  15  21
ATOM     21  O   UNL     1       8.447   8.634  17.556  0.00  0.00    +0.000 OA
BRANCH  21  23
ATOM     22  C   UNL     1       9.060  10.852  18.183  0.00  0.00    +0.000 C 
ATOM     23  C   UNL     1       8.719   9.462  18.688  0.00  0.00    +0.000 C 
ENDBRANCH  21  23
ENDBRANCH  15  21
ENDBRANCH  14  18
ENDBRANCH   7  14
ENDBRANCH   1   9
BRANCH   3  24
ATOM     24  C   UNL     1      -0.170   9.636  22.218  0.00  0.00    +0.000 C 
ATOM     25  N   UNL     1      -0.173  10.755  22.864  0.00  0.00    +0.000 NA
BRANCH  25  26
ATOM     26  O   UNL     1      -1.340  10.844  23.645  0.00  0.00    +0.000 OA
BRANCH  26  27
ATOM     27  C   UNL     1      -2.163  11.881  23.106  0.00  0.00    +0.000 C 
BRANCH  27  28
ATOM     28  C   UNL     1      -1.302  13.108  22.834  0.00  0.00    +0.000 C 
BRANCH  28  29
ATOM     29  O   UNL     1      -1.399  13.482  21.460  0.00  0.00    +0.000 OA
ATOM     30  C   UNL     1      -2.590  12.978  20.866  0.00  0.00    +0.000 C 
ENDBRANCH  28  29
ENDBRANCH  27  28
ENDBRANCH  26  27
ENDBRANCH  25  26
ENDBRANCH   3  24
BRANCH   4  31
ATOM     31  O   UNL     1       0.528  11.503  20.126  0.00  0.00    +0.000 OA
ATOM     32  H   UNL     1       1.246  11.914  19.612  0.00  0.00    +0.000 HD
ENDBRANCH   4  31
BRANCH   5  33
ATOM     33  O   UNL     1       1.140  10.355  17.578  0.00  0.00    +0.000 OA
ATOM     34  H   UNL     1       1.804  11.002  17.286  0.00  0.00    +0.000 HD
ENDBRANCH   5  33
BRANCH   6  35
ATOM     35  O   UNL     1       2.837   8.041  17.704  0.00  0.00    +0.000 OA
ATOM     36  H   UNL     1       2.446   7.972  16.816  0.00  0.00    +0.000 HD
ENDBRANCH   6  35
TORSDOF 13
ENDMDL
MODEL 2
REMARK VINA RESULT:      -7.1      2.139      3.048
REMARK  Name = 
REMARK  15 active torsions:
REMARK  status: ('A' for Active; 'I' for Inactive)
REMARK    1  A    between atoms: C_1  and  C_2
REMARK    2  A    between atoms: C_2  and  O_3
REMARK    3  A    between atoms: O_3  and  C_4
REMARK    4  A    between atoms: C_7  and  C_8
REMARK    5  A    between atoms: C_8  and  C_9
REMARK    6  A    between atoms: C_11  and  C_12
REMARK    7  A    between atoms: C_14  and  C_15
REMARK    8  A    between atoms: N_16  and  O_17
REMARK    9  A    between atoms: O_17  and  C_18
REMARK   10  A    between atoms: C_18  and  C_19
REMARK   11  A    between atoms: C_19  and  O_20
REMARK   12  A    between atoms: O_20  and  C_21
REMARK   13  A    between atoms: C_22  and  O_23
REMARK   14  A    between atoms: C_24  and  O_25
REMARK   15  A    between atoms: C_26  and  O_27
REMARK                            x       y       z     vdW  Elec       q    Type
REMARK                         _______ _______ _______ _____ _____    ______ ____
ROOT
ATOM      1  C   UNL     1       2.063   7.815  20.047  0.00  0.00    +0.000 C 
ATOM      2  O   UNL     1       0.936   8.141  20.867  0.00  0.00    +0.000 OA
ATOM      3  C   UNL     1       0.843   9.558  21.076  0.00  0.00    +0.000 C 
ATOM      4  C   UNL     1       0.603  10.300  19.747  0.00  0.00    +0.000 C 
ATOM      5  C   UNL     1       1.703   9.948  18.739  0.00  0.00    +0.000 C 
ATOM      6  C   UNL     1       1.901   8.441  18.633  0.00  0.00    +0.000 C 
ENDROOT
BRANCH   1   9
ATOM      7  C   UNL     1       3.901   4.524  19.675  0.00  0.00    +0.000 A 
ATOM      8  C   UNL     1       3.464   5.820  19.344  0.00  0.00    +0.000 A 
ATOM      9  C   UNL     1       2.244   6.316  19.832  0.00  0.00    +0.000 A 
ATOM     10  C   UNL     1       1.354   5.440  20.465  0.00  0.00    +0.000 A 
ATOM     11  C   UNL     1       1.761   4.143  20.771  0.00  0.00    +0.000 A 
ATOM     12  C   UNL     1       3.041   3.705  20.425  0.00  0.00    +0.000 A 
ATOM     13 CL   UNL     1       3.515   2.147  21.005  0.00  0.00    +0.000 Cl
BRANCH   7  14
ATOM     14  C   UNL     1       5.308   4.116  19.286  0.00  0.00    +0.000 C 
BRANCH  14  18
ATOM     15  C   UNL     1       6.123   4.480  15.044  0.00  0.00    +0.000 A 
ATOM     16  C   UNL     1       4.894   3.997  15.489  0.00  0.00    +0.000 A 
ATOM     17  C   UNL     1       4.637   3.857  16.853  0.00  0.00    +0.000 A 
ATOM     18  C   UNL     1       5.612   4.190  17.805  0.00  0.00    +0.000 A 
ATOM     19  C   UNL     1       6.868   4.615  17.346  0.00  0.00    +0.000 A 
ATOM     20  C   UNL     1       7.124   4.760  15.977  0.00  0.00    +0.000 A 
BRANCH  15  21
ATOM     21  O   UNL     1       6.235   4.637  13.690  0.00  0.00    +0.000 OA
BRANCH  21  23
ATOM     22  C   UNL     1       5.099   3.446  11.964  0.00  0.00    +0.000 C 
ATOM     23  C   UNL     1       6.273   3.431  12.925  0.00  0.00    +0.000 C 
ENDBRANCH  21  23
ENDBRANCH  15  21
ENDBRANCH  14  18
ENDBRANCH   7  14
ENDBRANCH   1   9
BRANCH   3  24
ATOM     24  C   UNL     1      -0.310   9.887  22.005  0.00  0.00    +0.000 C 
ATOM     25  N   UNL     1      -0.304  10.975  22.701  0.00  0.00    +0.000 NA
BRANCH  25  26
ATOM     26  O   UNL     1      -1.531  11.112  23.374  0.00  0.00    +0.000 OA
BRANCH  26  27
ATOM     27  C   UNL     1      -1.950  12.475  23.273  0.00  0.00    +0.000 C 
BRANCH  27  28
ATOM     28  C   UNL     1      -3.071  12.576  22.247  0.00  0.00    +0.000 C 
BRANCH  28  29
ATOM     29  O   UNL     1      -4.154  13.339  22.778  0.00  0.00    +0.000 OA
ATOM     30  C   UNL     1      -5.405  12.898  22.263  0.00  0.00    +0.000 C 
ENDBRANCH  28  29
ENDBRANCH  27  28
ENDBRANCH  26  27
ENDBRANCH  25  26
ENDBRANCH   3  24
BRANCH   4  31
ATOM     31  O   UNL     1       0.583  11.716  19.954  0.00  0.00    +0.000 OA
ATOM     32  H   UNL     1       1.357  12.107  19.513  0.00  0.00    +0.000 HD
ENDBRANCH   4  31
BRANCH   5  33
ATOM     33  O   UNL     1       1.372  10.527  17.475  0.00  0.00    +0.000 OA
ATOM     34  H   UNL     1       2.154  10.991  17.129  0.00  0.00    +0.000 HD
ENDBRANCH   5  33
BRANCH   6  35
ATOM     35  O   UNL     1       3.014   8.187  17.760  0.00  0.00    +0.000 OA
ATOM     36  H   UNL     1       3.644   7.596  18.207  0.00  0.00    +0.000 HD
ENDBRANCH   6  35
TORSDOF 13
ENDMDL
MODEL 3
REMARK VINA RESULT:      -6.9      3.725      9.735
REMARK  Name = 
REMARK  15 active torsions:
REMARK  status: ('A' for Active; 'I' for Inactive)
REMARK    1  A    between atoms: C_1  and  C_2
REMARK    2  A    between atoms: C_2  and  O_3
REMARK    3  A    between atoms: O_3  and  C_4
REMARK    4  A    between atoms: C_7  and  C_8
REMARK    5  A    between atoms: C_8  and  C_9
REMARK    6  A    between atoms: C_11  and  C_12
REMARK    7  A    between atoms: C_14  and  C_15
REMARK    8  A    between atoms: N_16  and  O_17
REMARK    9  A    between atoms: O_17  and  C_18
REMARK   10  A    between atoms: C_18  and  C_19
REMARK   11  A    between atoms: C_19  and  O_20
REMARK   12  A    between atoms: O_20  and  C_21
REMARK   13  A    between atoms: C_22  and  O_23
REMARK   14  A    between atoms: C_24  and  O_25
REMARK   15  A    between atoms: C_26  and  O_27
REMARK                            x       y       z     vdW  Elec       q    Type
REMARK                         _______ _______ _______ _____ _____    ______ ____
ROOT
ATOM      1  C   UNL     1       3.094   6.104  19.648  0.00  0.00    +0.000 C 
ATOM      2  O   UNL     1       4.234   5.955  18.795  0.00  0.00    +0.000 OA
ATOM      3  C   UNL     1       5.051   4.852  19.215  0.00  0.00    +0.000 C 
ATOM      4  C   UNL     1       4.286   3.519  19.102  0.00  0.00    +0.000 C 
ATOM      5  C   UNL     1       2.979   3.591  19.900  0.00  0.00    +0.000 C 
ATOM      6  C   UNL     1       2.185   4.845  19.558  0.00  0.00    +0.000 C 
ENDROOT
BRANCH   1   9
ATOM      7  C   UNL     1       1.328   9.425  20.089  0.00  0.00    +0.000 A 
ATOM      8  C   UNL     1       1.618   8.063  20.294  0.00  0.00    +0.000 A 
ATOM      9  C   UNL     1       2.213   7.294  19.281  0.00  0.00    +0.000 A 
ATOM     10  C   UNL     1       2.312   7.823  17.989  0.00  0.00    +0.000 A 
ATOM     11  C   UNL     1       1.998   9.161  17.764  0.00  0.00    +0.000 A 
ATOM     12  C   UNL     1       1.559   9.969  18.815  0.00  0.00    +0.000 A 
ATOM     13 CL   UNL     1       1.368  11.653  18.477  0.00  0.00    +0.000 Cl
BRANCH   7  14
ATOM     14  C   UNL     1       0.872  10.251  21.276  0.00  0.00    +0.000 C 
BRANCH  14  18
ATOM     15  C   UNL     1      -2.613  12.741  20.613  0.00  0.00    +0.000 A 
ATOM     16  C   UNL     1      -2.311  11.701  19.737  0.00  0.00    +0.000 A 
ATOM     17  C   UNL     1      -1.178  10.912  19.935  0.00  0.00    +0.000 A 
ATOM     18  C   UNL     1      -0.313  11.156  21.012  0.00  0.00    +0.000 A 
ATOM     19  C   UNL     1      -0.591  12.245  21.852  0.00  0.00    +0.000 A 
ATOM     20  C   UNL     1      -1.732  13.033  21.656  0.00  0.00    +0.000 A 
BRANCH  15  21
ATOM     21  O   UNL     1      -3.784  13.402  20.357  0.00  0.00    +0.000 OA
BRANCH  21  23
ATOM     22  C   UNL     1      -5.822  12.372  21.047  0.00  0.00    +0.000 C 
ATOM     23  C   UNL     1      -4.865  12.592  19.890  0.00  0.00    +0.000 C 
ENDBRANCH  21  23
ENDBRANCH  15  21
ENDBRANCH  14  18
ENDBRANCH   7  14
ENDBRANCH   1   9
BRANCH   3  24
ATOM     24  C   UNL     1       6.294   4.748  18.351  0.00  0.00    +0.000 C 
ATOM     25  N   UNL     1       6.201   4.439  17.100  0.00  0.00    +0.000 NA
BRANCH  25  26
ATOM     26  O   UNL     1       7.467   4.536  16.495  0.00  0.00    +0.000 OA
BRANCH  26  27
ATOM     27  C   UNL     1       7.280   4.813  15.105  0.00  0.00    +0.000 C 
BRANCH  27  28
ATOM     28  C   UNL     1       5.793   5.000  14.832  0.00  0.00    +0.000 C 
BRANCH  28  29
ATOM     29  O   UNL     1       5.342   4.033  13.884  0.00  0.00    +0.000 OA
ATOM     30  C   UNL     1       6.336   3.762  12.903  0.00  0.00    +0.000 C 
ENDBRANCH  28  29
ENDBRANCH  27  28
ENDBRANCH  26  27
ENDBRANCH  25  26
ENDBRANCH   3  24
BRANCH   4  31
ATOM     31  O   UNL     1       5.083   2.435  19.589  0.00  0.00    +0.000 OA
ATOM     32  H   UNL     1       6.012   2.598  19.348  0.00  0.00    +0.000 HD
ENDBRANCH   4  31
BRANCH   5  33
ATOM     33  O   UNL     1       2.224   2.403  19.653  0.00  0.00    +0.000 OA
ATOM     34  H   UNL     1       2.759   1.798  19.113  0.00  0.00    +0.000 HD
ENDBRANCH   5  33
BRANCH   6  35
ATOM     35  O   UNL     1       1.034   4.904  20.416  0.00  0.00    +0.000 OA
ATOM     36  H   UNL     1       1.270   4.557  21.294  0.00  0.00    +0.000 HD
ENDBRANCH   6  35
TORSDOF 13
ENDMDL
MODEL 4
REMARK VINA RESULT:      -6.9      3.284      7.344
REMARK  Name = 
REMARK  15 active torsions:
REMARK  status: ('A' for Active; 'I' for Inactive)
REMARK    1  A    between atoms: C_1  and  C_2
REMARK    2  A    between atoms: C_2  and  O_3
REMARK    3  A    between atoms: O_3  and  C_4
REMARK    4  A    between atoms: C_7  and  C_8
REMARK    5  A    between atoms: C_8  and  C_9
REMARK    6  A    between atoms: C_11  and  C_12
REMARK    7  A    between atoms: C_14  and  C_15
REMARK    8  A    between atoms: N_16  and  O_17
REMARK    9  A    between atoms: O_17  and  C_18
REMARK   10  A    between atoms: C_18  and  C_19
REMARK   11  A    between atoms: C_19  and  O_20
REMARK   12  A    between atoms: O_20  and  C_21
REMARK   13  A    between atoms: C_22  and  O_23
REMARK   14  A    between atoms: C_24  and  O_25
REMARK   15  A    between atoms: C_26  and  O_27
REMARK                            x       y       z     vdW  Elec       q    Type
REMARK                         _______ _______ _______ _____ _____    ______ ____
ROOT
ATOM      1  C   UNL     1       5.812   4.453  18.351  0.00  0.00    +0.000 C 
ATOM      2  O   UNL     1       6.149   5.844  18.324  0.00  0.00    +0.000 OA
ATOM      3  C   UNL     1       7.136   6.115  17.319  0.00  0.00    +0.000 C 
ATOM      4  C   UNL     1       6.594   5.805  15.911  0.00  0.00    +0.000 C 
ATOM      5  C   UNL     1       6.101   4.355  15.842  0.00  0.00    +0.000 C 
ATOM      6  C   UNL     1       5.168   4.028  17.001  0.00  0.00    +0.000 C 
ENDROOT
BRANCH   1   9
ATOM      7  C   UNL     1       2.660   4.719  20.435  0.00  0.00    +0.000 A 
ATOM      8  C   UNL     1       3.926   5.072  19.931  0.00  0.00    +0.000 A 
ATOM      9  C   UNL     1       4.803   4.093  19.437  0.00  0.00    +0.000 A 
ATOM     10  C   UNL     1       4.510   2.741  19.652  0.00  0.00    +0.000 A 
ATOM     11  C   UNL     1       3.273   2.377  20.180  0.00  0.00    +0.000 A 
ATOM     12  C   UNL     1       2.336   3.356  20.520  0.00  0.00    +0.000 A 
ATOM     13 CL   UNL     1       0.769   2.802  20.996  0.00  0.00    +0.000 Cl
BRANCH   7  14
ATOM     14  C   UNL     1       1.683   5.829  20.768  0.00  0.00    +0.000 C 
BRANCH  14  18
ATOM     15  C   UNL     1       2.111   9.381  18.323  0.00  0.00    +0.000 A 
ATOM     16  C   UNL     1       1.485   9.450  19.566  0.00  0.00    +0.000 A 
ATOM     17  C   UNL     1       1.325   8.304  20.345  0.00  0.00    +0.000 A 
ATOM     18  C   UNL     1       1.782   7.058  19.890  0.00  0.00    +0.000 A 
ATOM     19  C   UNL     1       2.354   6.988  18.611  0.00  0.00    +0.000 A 
ATOM     20  C   UNL     1       2.519   8.139  17.832  0.00  0.00    +0.000 A 
BRANCH  15  21
ATOM     21  O   UNL     1       2.271  10.579  17.680  0.00  0.00    +0.000 OA
BRANCH  21  23
ATOM     22  C   UNL     1       2.677  12.907  17.998  0.00  0.00    +0.000 C 
ATOM     23  C   UNL     1       1.802  11.730  18.384  0.00  0.00    +0.000 C 
ENDBRANCH  21  23
ENDBRANCH  15  21
ENDBRANCH  14  18
ENDBRANCH   7  14
ENDBRANCH   1   9
BRANCH   3  24
ATOM     24  C   UNL     1       7.540   7.577  17.348  0.00  0.00    +0.000 C 
ATOM     25  N   UNL     1       8.272   8.039  18.308  0.00  0.00    +0.000 NA
BRANCH  25  26
ATOM     26  O   UNL     1       8.615   9.376  18.039  0.00  0.00    +0.000 OA
BRANCH  26  27
ATOM     27  C   UNL     1       9.110   9.963  19.244  0.00  0.00    +0.000 C 
BRANCH  27  28
ATOM     28  C   UNL     1      10.042  11.115  18.889  0.00  0.00    +0.000 C 
BRANCH  28  29
ATOM     29  O   UNL     1       9.590  12.320  19.506  0.00  0.00    +0.000 OA
ATOM     30  C   UNL     1       8.953  13.178  18.567  0.00  0.00    +0.000 C 
ENDBRANCH  28  29
ENDBRANCH  27  28
ENDBRANCH  26  27
ENDBRANCH  25  26
ENDBRANCH   3  24
BRANCH   4  31
ATOM     31  O   UNL     1       7.607   6.012  14.921  0.00  0.00    +0.000 OA
ATOM     32  H   UNL     1       7.673   6.965  14.736  0.00  0.00    +0.000 HD
ENDBRANCH   4  31
BRANCH   5  33
ATOM     33  O   UNL     1       5.468   4.144  14.578  0.00  0.00    +0.000 OA
ATOM     34  H   UNL     1       6.115   3.758  13.964  0.00  0.00    +0.000 HD
ENDBRANCH   5  33
BRANCH   6  35
ATOM     35  O   UNL     1       4.834   2.631  16.937  0.00  0.00    +0.000 OA
ATOM     36  H   UNL     1       4.483   2.426  16.053  0.00  0.00    +0.000 HD
ENDBRANCH   6  35
TORSDOF 13
ENDMDL
MODEL 5
REMARK VINA RESULT:      -6.9      1.873      2.600
REMARK  Name = 
REMARK  15 active torsions:
REMARK  status: ('A' for Active; 'I' for Inactive)
REMARK    1  A    between atoms: C_1  and  C_2
REMARK    2  A    between atoms: C_2  and  O_3
REMARK    3  A    between atoms: O_3  and  C_4
REMARK    4  A    between atoms: C_7  and  C_8
REMARK    5  A    between atoms: C_8  and  C_9
REMARK    6  A    between atoms: C_11  and  C_12
REMARK    7  A    between atoms: C_14  and  C_15
REMARK    8  A    between atoms: N_16  and  O_17
REMARK    9  A    between atoms: O_17  and  C_18
REMARK   10  A    between atoms: C_18  and  C_19
REMARK   11  A    between atoms: C_19  and  O_20
REMARK   12  A    between atoms: O_20  and  C_21
REMARK   13  A    between atoms: C_22  and  O_23
REMARK   14  A    between atoms: C_24  and  O_25
REMARK   15  A    between atoms: C_26  and  O_27
REMARK                            x       y       z     vdW  Elec       q    Type
REMARK                         _______ _______ _______ _____ _____    ______ ____
ROOT
ATOM      1  C   UNL     1       2.119   7.761  20.032  0.00  0.00    +0.000 C 
ATOM      2  O   UNL     1       1.138   8.256  20.950  0.00  0.00    +0.000 OA
ATOM      3  C   UNL     1       1.232   9.682  21.085  0.00  0.00    +0.000 C 
ATOM      4  C   UNL     1       0.927  10.387  19.750  0.00  0.00    +0.000 C 
ATOM      5  C   UNL     1       1.856   9.861  18.650  0.00  0.00    +0.000 C 
ATOM      6  C   UNL     1       1.868   8.338  18.611  0.00  0.00    +0.000 C 
ENDROOT
BRANCH   1   9
ATOM      7  C   UNL     1       3.510   4.244  19.835  0.00  0.00    +0.000 A 
ATOM      8  C   UNL     1       3.252   5.570  19.441  0.00  0.00    +0.000 A 
ATOM      9  C   UNL     1       2.103   6.243  19.886  0.00  0.00    +0.000 A 
ATOM     10  C   UNL     1       1.098   5.522  20.542  0.00  0.00    +0.000 A 
ATOM     11  C   UNL     1       1.327   4.198  20.911  0.00  0.00    +0.000 A 
ATOM     12  C   UNL     1       2.542   3.581  20.606  0.00  0.00    +0.000 A 
ATOM     13 CL   UNL     1       2.799   2.001  21.261  0.00  0.00    +0.000 Cl
BRANCH   7  14
ATOM     14  C   UNL     1       4.855   3.637  19.487  0.00  0.00    +0.000 C 
BRANCH  14  18
ATOM     15  C   UNL     1       6.770   5.021  15.854  0.00  0.00    +0.000 A 
ATOM     16  C   UNL     1       7.279   5.378  17.101  0.00  0.00    +0.000 A 
ATOM     17  C   UNL     1       6.651   4.953  18.272  0.00  0.00    +0.000 A 
ATOM     18  C   UNL     1       5.491   4.167  18.220  0.00  0.00    +0.000 A 
ATOM     19  C   UNL     1       4.951   3.865  16.960  0.00  0.00    +0.000 A 
ATOM     20  C   UNL     1       5.584   4.287  15.785  0.00  0.00    +0.000 A 
BRANCH  15  21
ATOM     21  O   UNL     1       7.507   5.439  14.779  0.00  0.00    +0.000 OA
BRANCH  21  23
ATOM     22  C   UNL     1       7.952   5.543  12.438  0.00  0.00    +0.000 C 
ATOM     23  C   UNL     1       7.208   4.804  13.535  0.00  0.00    +0.000 C 
ENDBRANCH  21  23
ENDBRANCH  15  21
ENDBRANCH  14  18
ENDBRANCH   7  14
ENDBRANCH   1   9
BRANCH   3  24
ATOM     24  C   UNL     1       0.238  10.188  22.114  0.00  0.00    +0.000 C 
ATOM     25  N   UNL     1      -0.873  10.732  21.742  0.00  0.00    +0.000 NA
BRANCH  25  26
ATOM     26  O   UNL     1      -1.671  10.994  22.871  0.00  0.00    +0.000 OA
BRANCH  26  27
ATOM     27  C   UNL     1      -1.747  12.410  23.048  0.00  0.00    +0.000 C 
BRANCH  27  28
ATOM     28  C   UNL     1      -3.082  12.759  23.693  0.00  0.00    +0.000 C 
BRANCH  28  29
ATOM     29  O   UNL     1      -4.155  12.409  22.820  0.00  0.00    +0.000 OA
ATOM     30  C   UNL     1      -5.407  12.856  23.328  0.00  0.00    +0.000 C 
ENDBRANCH  28  29
ENDBRANCH  27  28
ENDBRANCH  26  27
ENDBRANCH  25  26
ENDBRANCH   3  24
BRANCH   4  31
ATOM     31  O   UNL     1       1.091  11.803  19.875  0.00  0.00    +0.000 OA
ATOM     32  H   UNL     1       1.074  12.199  18.986  0.00  0.00    +0.000 HD
ENDBRANCH   4  31
BRANCH   5  33
ATOM     33  O   UNL     1       1.451  10.419  17.398  0.00  0.00    +0.000 OA
ATOM     34  H   UNL     1       2.168  10.297  16.754  0.00  0.00    +0.000 HD
ENDBRANCH   5  33
BRANCH   6  35
ATOM     35  O   UNL     1       2.837   7.915  17.637  0.00  0.00    +0.000 OA
ATOM     36  H   UNL     1       2.617   8.305  16.774  0.00  0.00    +0.000 HD
ENDBRANCH   6  35
TORSDOF 13
ENDMDL
MODEL 6
REMARK VINA RESULT:      -6.8      0.980      1.432
REMARK  Name = 
REMARK  15 active torsions:
REMARK  status: ('A' for Active; 'I' for Inactive)
REMARK    1  A    between atoms: C_1  and  C_2
REMARK    2  A    between atoms: C_2  and  O_3
REMARK    3  A    between atoms: O_3  and  C_4
REMARK    4  A    between atoms: C_7  and  C_8
REMARK    5  A    between atoms: C_8  and  C_9
REMARK    6  A    between atoms: C_11  and  C_12
REMARK    7  A    between atoms: C_14  and  C_15
REMARK    8  A    between atoms: N_16  and  O_17
REMARK    9  A    between atoms: O_17  and  C_18
REMARK   10  A    between atoms: C_18  and  C_19
REMARK   11  A    between atoms: C_19  and  O_20
REMARK   12  A    between atoms: O_20  and  C_21
REMARK   13  A    between atoms: C_22  and  O_23
REMARK   14  A    between atoms: C_24  and  O_25
REMARK   15  A    between atoms: C_26  and  O_27
REMARK                            x       y       z     vdW  Elec       q    Type
REMARK                         _______ _______ _______ _____ _____    ______ ____
ROOT
ATOM      1  C   UNL     1       1.865   7.859  20.221  0.00  0.00    +0.000 C 
ATOM      2  O   UNL     1       0.712   8.181  21.005  0.00  0.00    +0.000 OA
ATOM      3  C   UNL     1       0.638   9.591  21.259  0.00  0.00    +0.000 C 
ATOM      4  C   UNL     1       0.467  10.383  19.948  0.00  0.00    +0.000 C 
ATOM      5  C   UNL     1       1.601  10.042  18.974  0.00  0.00    +0.000 C 
ATOM      6  C   UNL     1       1.774   8.536  18.824  0.00  0.00    +0.000 C 
ENDROOT
BRANCH   1   9
ATOM      7  C   UNL     1       3.653   4.599  19.496  0.00  0.00    +0.000 A 
ATOM      8  C   UNL     1       3.147   5.891  19.261  0.00  0.00    +0.000 A 
ATOM      9  C   UNL     1       2.026   6.364  19.961  0.00  0.00    +0.000 A 
ATOM     10  C   UNL     1       1.273   5.470  20.732  0.00  0.00    +0.000 A 
ATOM     11  C   UNL     1       1.745   4.177  20.947  0.00  0.00    +0.000 A 
ATOM     12  C   UNL     1       2.950   3.762  20.378  0.00  0.00    +0.000 A 
ATOM     13 CL   UNL     1       3.539   2.206  20.848  0.00  0.00    +0.000 Cl
BRANCH   7  14
ATOM     14  C   UNL     1       4.975   4.216  18.862  0.00  0.00    +0.000 C 
BRANCH  14  18
ATOM     15  C   UNL     1       7.664   7.441  17.786  0.00  0.00    +0.000 A 
ATOM     16  C   UNL     1       7.930   6.639  18.895  0.00  0.00    +0.000 A 
ATOM     17  C   UNL     1       7.054   5.615  19.257  0.00  0.00    +0.000 A 
ATOM     18  C   UNL     1       5.885   5.377  18.520  0.00  0.00    +0.000 A 
ATOM     19  C   UNL     1       5.594   6.230  17.444  0.00  0.00    +0.000 A 
ATOM     20  C   UNL     1       6.476   7.254  17.078  0.00  0.00    +0.000 A 
BRANCH  15  21
ATOM     21  O   UNL     1       8.627   8.367  17.490  0.00  0.00    +0.000 OA
BRANCH  21  23
ATOM     22  C   UNL     1       9.274  10.031  19.071  0.00  0.00    +0.000 C 
ATOM     23  C   UNL     1       8.353   9.704  17.911  0.00  0.00    +0.000 C 
ENDBRANCH  21  23
ENDBRANCH  15  21
ENDBRANCH  14  18
ENDBRANCH   7  14
ENDBRANCH   1   9
BRANCH   3  24
ATOM     24  C   UNL     1      -0.546   9.912  22.152  0.00  0.00    +0.000 C 
ATOM     25  N   UNL     1      -0.499  10.909  22.973  0.00  0.00    +0.000 NA
BRANCH  25  26
ATOM     26  O   UNL     1      -1.755  11.075  23.584  0.00  0.00    +0.000 OA
BRANCH  26  27
ATOM     27  C   UNL     1      -2.495  12.041  22.833  0.00  0.00    +0.000 C 
BRANCH  27  28
ATOM     28  C   UNL     1      -2.961  13.148  23.770  0.00  0.00    +0.000 C 
BRANCH  28  29
ATOM     29  O   UNL     1      -4.033  12.679  24.589  0.00  0.00    +0.000 OA
ATOM     30  C   UNL     1      -5.297  12.939  23.991  0.00  0.00    +0.000 C 
ENDBRANCH  28  29
ENDBRANCH  27  28
ENDBRANCH  26  27
ENDBRANCH  25  26
ENDBRANCH   3  24
BRANCH   4  31
ATOM     31  O   UNL     1       0.466  11.791  20.204  0.00  0.00    +0.000 OA
ATOM     32  H   UNL     1       0.368  12.261  19.357  0.00  0.00    +0.000 HD
ENDBRANCH   4  31
BRANCH   5  33
ATOM     33  O   UNL     1       1.334  10.671  17.719  0.00  0.00    +0.000 OA
ATOM     34  H   UNL     1       0.382  10.857  17.659  0.00  0.00    +0.000 HD
ENDBRANCH   5  33
BRANCH   6  35
ATOM     35  O   UNL     1       2.917   8.289  17.988  0.00  0.00    +0.000 OA
ATOM     36  H   UNL     1       3.479   7.614  18.405  0.00  0.00    +0.000 HD
ENDBRANCH   6  35
TORSDOF 13
ENDMDL
MODEL 7
REMARK VINA RESULT:      -6.8      3.721      9.869
REMARK  Name = 
REMARK  15 active torsions:
REMARK  status: ('A' for Active; 'I' for Inactive)
REMARK    1  A    between atoms: C_1  and  C_2
REMARK    2  A    between atoms: C_2  and  O_3
REMARK    3  A    between atoms: O_3  and  C_4
REMARK    4  A    between atoms: C_7  and  C_8
REMARK    5  A    between atoms: C_8  and  C_9
REMARK    6  A    between atoms: C_11  and  C_12
REMARK    7  A    between atoms: C_14  and  C_15
REMARK    8  A    between atoms: N_16  and  O_17
REMARK    9  A    between atoms: O_17  and  C_18
REMARK   10  A    between atoms: C_18  and  C_19
REMARK   11  A    between atoms: C_19  and  O_20
REMARK   12  A    between atoms: O_20  and  C_21
REMARK   13  A    between atoms: C_22  and  O_23
REMARK   14  A    between atoms: C_24  and  O_25
REMARK   15  A    between atoms: C_26  and  O_27
REMARK                            x       y       z     vdW  Elec       q    Type
REMARK                         _______ _______ _______ _____ _____    ______ ____
ROOT
ATOM      1  C   UNL     1       2.911   6.082  19.784  0.00  0.00    +0.000 C 
ATOM      2  O   UNL     1       4.089   6.047  18.972  0.00  0.00    +0.000 OA
ATOM      3  C   UNL     1       4.917   4.925  19.313  0.00  0.00    +0.000 C 
ATOM      4  C   UNL     1       4.193   3.595  19.029  0.00  0.00    +0.000 C 
ATOM      5  C   UNL     1       2.852   3.555  19.771  0.00  0.00    +0.000 C 
ATOM      6  C   UNL     1       2.040   4.820  19.525  0.00  0.00    +0.000 C 
ENDROOT
BRANCH   1   9
ATOM      7  C   UNL     1       1.386   9.512  20.289  0.00  0.00    +0.000 A 
ATOM      8  C   UNL     1       1.666   8.157  20.545  0.00  0.00    +0.000 A 
ATOM      9  C   UNL     1       2.014   7.284  19.503  0.00  0.00    +0.000 A 
ATOM     10  C   UNL     1       1.866   7.708  18.177  0.00  0.00    +0.000 A 
ATOM     11  C   UNL     1       1.558   9.040  17.907  0.00  0.00    +0.000 A 
ATOM     12  C   UNL     1       1.371   9.945  18.953  0.00  0.00    +0.000 A 
ATOM     13 CL   UNL     1       1.172  11.607  18.519  0.00  0.00    +0.000 Cl
BRANCH   7  14
ATOM     14  C   UNL     1       1.211  10.448  21.468  0.00  0.00    +0.000 C 
BRANCH  14  18
ATOM     15  C   UNL     1      -2.723  12.183  22.018  0.00  0.00    +0.000 A 
ATOM     16  C   UNL     1      -2.068  11.564  23.081  0.00  0.00    +0.000 A 
ATOM     17  C   UNL     1      -0.812  10.985  22.902  0.00  0.00    +0.000 A 
ATOM     18  C   UNL     1      -0.186  11.003  21.647  0.00  0.00    +0.000 A 
ATOM     19  C   UNL     1      -0.880  11.573  20.568  0.00  0.00    +0.000 A 
ATOM     20  C   UNL     1      -2.138  12.159  20.750  0.00  0.00    +0.000 A 
BRANCH  15  21
ATOM     21  O   UNL     1      -3.917  12.773  22.329  0.00  0.00    +0.000 OA
BRANCH  21  23
ATOM     22  C   UNL     1      -6.236  13.182  21.950  0.00  0.00    +0.000 C 
ATOM     23  C   UNL     1      -4.952  12.633  21.355  0.00  0.00    +0.000 C 
ENDBRANCH  21  23
ENDBRANCH  15  21
ENDBRANCH  14  18
ENDBRANCH   7  14
ENDBRANCH   1   9
BRANCH   3  24
ATOM     24  C   UNL     1       6.197   4.939  18.498  0.00  0.00    +0.000 C 
ATOM     25  N   UNL     1       6.238   4.393  17.328  0.00  0.00    +0.000 NA
BRANCH  25  26
ATOM     26  O   UNL     1       7.484   4.652  16.730  0.00  0.00    +0.000 OA
BRANCH  26  27
ATOM     27  C   UNL     1       7.268   4.930  15.344  0.00  0.00    +0.000 C 
BRANCH  27  28
ATOM     28  C   UNL     1       5.875   4.453  14.953  0.00  0.00    +0.000 C 
BRANCH  28  29
ATOM     29  O   UNL     1       5.967   3.425  13.967  0.00  0.00    +0.000 OA
ATOM     30  C   UNL     1       6.583   3.899  12.776  0.00  0.00    +0.000 C 
ENDBRANCH  28  29
ENDBRANCH  27  28
ENDBRANCH  26  27
ENDBRANCH  25  26
ENDBRANCH   3  24
BRANCH   4  31
ATOM     31  O   UNL     1       4.997   2.484  19.437  0.00  0.00    +0.000 OA
ATOM     32  H   UNL     1       5.603   2.254  18.711  0.00  0.00    +0.000 HD
ENDBRANCH   4  31
BRANCH   5  33
ATOM     33  O   UNL     1       2.139   2.383  19.371  0.00  0.00    +0.000 OA
ATOM     34  H   UNL     1       2.771   1.745  18.997  0.00  0.00    +0.000 HD
ENDBRANCH   5  33
BRANCH   6  35
ATOM     35  O   UNL     1       0.853   4.764  20.333  0.00  0.00    +0.000 OA
ATOM     36  H   UNL     1       0.714   3.850  20.637  0.00  0.00    +0.000 HD
ENDBRANCH   6  35
TORSDOF 13
ENDMDL
MODEL 8
REMARK VINA RESULT:      -6.8      3.702      9.991
REMARK  Name = 
REMARK  15 active torsions:
REMARK  status: ('A' for Active; 'I' for Inactive)
REMARK    1  A    between atoms: C_1  and  C_2
REMARK    2  A    between atoms: C_2  and  O_3
REMARK    3  A    between atoms: O_3  and  C_4
REMARK    4  A    between atoms: C_7  and  C_8
REMARK    5  A    between atoms: C_8  and  C_9
REMARK    6  A    between atoms: C_11  and  C_12
REMARK    7  A    between atoms: C_14  and  C_15
REMARK    8  A    between atoms: N_16  and  O_17
REMARK    9  A    between atoms: O_17  and  C_18
REMARK   10  A    between atoms: C_18  and  C_19
REMARK   11  A    between atoms: C_19  and  O_20
REMARK   12  A    between atoms: O_20  and  C_21
REMARK   13  A    between atoms: C_22  and  O_23
REMARK   14  A    between atoms: C_24  and  O_25
REMARK   15  A    between atoms: C_26  and  O_27
REMARK                            x       y       z     vdW  Elec       q    Type
REMARK                         _______ _______ _______ _____ _____    ______ ____
ROOT
ATOM      1  C   UNL     1       2.982   6.590  19.532  0.00  0.00    +0.000 C 
ATOM      2  O   UNL     1       3.829   6.373  18.398  0.00  0.00    +0.000 OA
ATOM      3  C   UNL     1       4.777   5.327  18.655  0.00  0.00    +0.000 C 
ATOM      4  C   UNL     1       4.066   3.980  18.892  0.00  0.00    +0.000 C 
ATOM      5  C   UNL     1       3.048   4.113  20.030  0.00  0.00    +0.000 C 
ATOM      6  C   UNL     1       2.139   5.318  19.827  0.00  0.00    +0.000 C 
ENDROOT
BRANCH   1   9
ATOM      7  C   UNL     1       1.312   9.932  20.154  0.00  0.00    +0.000 A 
ATOM      8  C   UNL     1       1.705   8.603  20.398  0.00  0.00    +0.000 A 
ATOM      9  C   UNL     1       1.986   7.728  19.337  0.00  0.00    +0.000 A 
ATOM     10  C   UNL     1       1.659   8.110  18.030  0.00  0.00    +0.000 A 
ATOM     11  C   UNL     1       1.238   9.414  17.776  0.00  0.00    +0.000 A 
ATOM     12  C   UNL     1       1.116  10.332  18.822  0.00  0.00    +0.000 A 
ATOM     13 CL   UNL     1       0.763  11.967  18.386  0.00  0.00    +0.000 Cl
BRANCH   7  14
ATOM     14  C   UNL     1       1.215  10.883  21.330  0.00  0.00    +0.000 C 
BRANCH  14  18
ATOM     15  C   UNL     1      -2.751  12.175  22.511  0.00  0.00    +0.000 A 
ATOM     16  C   UNL     1      -2.050  11.250  23.282  0.00  0.00    +0.000 A 
ATOM     17  C   UNL     1      -0.783  10.815  22.893  0.00  0.00    +0.000 A 
ATOM     18  C   UNL     1      -0.192  11.291  21.713  0.00  0.00    +0.000 A 
ATOM     19  C   UNL     1      -0.932  12.174  20.910  0.00  0.00    +0.000 A 
ATOM     20  C   UNL     1      -2.201  12.614  21.305  0.00  0.00    +0.000 A 
BRANCH  15  21
ATOM     21  O   UNL     1      -3.953  12.577  23.027  0.00  0.00    +0.000 OA
BRANCH  21  23
ATOM     22  C   UNL     1      -5.503  12.208  24.801  0.00  0.00    +0.000 C 
ATOM     23  C   UNL     1      -4.063  12.534  24.450  0.00  0.00    +0.000 C 
ENDBRANCH  21  23
ENDBRANCH  15  21
ENDBRANCH  14  18
ENDBRANCH   7  14
ENDBRANCH   1   9
BRANCH   3  24
ATOM     24  C   UNL     1       5.715   5.154  17.476  0.00  0.00    +0.000 C 
ATOM     25  N   UNL     1       6.894   4.653  17.641  0.00  0.00    +0.000 NA
BRANCH  25  26
ATOM     26  O   UNL     1       7.512   4.476  16.390  0.00  0.00    +0.000 OA
BRANCH  26  27
ATOM     27  C   UNL     1       6.536   3.975  15.474  0.00  0.00    +0.000 C 
BRANCH  27  28
ATOM     28  C   UNL     1       6.852   4.493  14.077  0.00  0.00    +0.000 C 
BRANCH  28  29
ATOM     29  O   UNL     1       7.898   5.463  14.139  0.00  0.00    +0.000 OA
ATOM     30  C   UNL     1       8.370   5.803  12.841  0.00  0.00    +0.000 C 
ENDBRANCH  28  29
ENDBRANCH  27  28
ENDBRANCH  26  27
ENDBRANCH  25  26
ENDBRANCH   3  24
BRANCH   4  31
ATOM     31  O   UNL     1       5.014   2.958  19.217  0.00  0.00    +0.000 OA
ATOM     32  H   UNL     1       4.532   2.131  19.393  0.00  0.00    +0.000 HD
ENDBRANCH   4  31
BRANCH   5  33
ATOM     33  O   UNL     1       2.302   2.898  20.124  0.00  0.00    +0.000 OA
ATOM     34  H   UNL     1       2.236   2.643  21.060  0.00  0.00    +0.000 HD
ENDBRANCH   5  33
BRANCH   6  35
ATOM     35  O   UNL     1       1.287   5.446  20.978  0.00  0.00    +0.000 OA
ATOM     36  H   UNL     1       1.571   6.214  21.504  0.00  0.00    +0.000 HD
ENDBRANCH   6  35
TORSDOF 13
ENDMDL
MODEL 9
REMARK VINA RESULT:      -6.8      2.946      7.449
REMARK  Name = 
REMARK  15 active torsions:
REMARK  status: ('A' for Active; 'I' for Inactive)
REMARK    1  A    between atoms: C_1  and  C_2
REMARK    2  A    between atoms: C_2  and  O_3
REMARK    3  A    between atoms: O_3  and  C_4
REMARK    4  A    between atoms: C_7  and  C_8
REMARK    5  A    between atoms: C_8  and  C_9
REMARK    6  A    between atoms: C_11  and  C_12
REMARK    7  A    between atoms: C_14  and  C_15
REMARK    8  A    between atoms: N_16  and  O_17
REMARK    9  A    between atoms: O_17  and  C_18
REMARK   10  A    between atoms: C_18  and  C_19
REMARK   11  A    between atoms: C_19  and  O_20
REMARK   12  A    between atoms: O_20  and  C_21
REMARK   13  A    between atoms: C_22  and  O_23
REMARK   14  A    between atoms: C_24  and  O_25
REMARK   15  A    between atoms: C_26  and  O_27
REMARK                            x       y       z     vdW  Elec       q    Type
REMARK                         _______ _______ _______ _____ _____    ______ ____
ROOT
ATOM      1  C   UNL     1       5.729   4.379  18.265  0.00  0.00    +0.000 C 
ATOM      2  O   UNL     1       6.401   5.497  18.853  0.00  0.00    +0.000 OA
ATOM      3  C   UNL     1       7.474   5.953  18.016  0.00  0.00    +0.000 C 
ATOM      4  C   UNL     1       6.943   6.467  16.664  0.00  0.00    +0.000 C 
ATOM      5  C   UNL     1       6.111   5.380  15.975  0.00  0.00    +0.000 C 
ATOM      6  C   UNL     1       5.069   4.792  16.919  0.00  0.00    +0.000 C 
ENDROOT
BRANCH   1   9
ATOM      7  C   UNL     1       2.571   4.394  20.356  0.00  0.00    +0.000 A 
ATOM      8  C   UNL     1       3.907   4.663  20.007  0.00  0.00    +0.000 A 
ATOM      9  C   UNL     1       4.609   3.816  19.134  0.00  0.00    +0.000 A 
ATOM     10  C   UNL     1       4.051   2.580  18.785  0.00  0.00    +0.000 A 
ATOM     11  C   UNL     1       2.739   2.286  19.150  0.00  0.00    +0.000 A 
ATOM     12  C   UNL     1       1.988   3.206  19.884  0.00  0.00    +0.000 A 
ATOM     13 CL   UNL     1       0.320   2.829  20.133  0.00  0.00    +0.000 Cl
BRANCH   7  14
ATOM     14  C   UNL     1       1.805   5.442  21.139  0.00  0.00    +0.000 C 
BRANCH  14  18
ATOM     15  C   UNL     1       1.356   9.272  19.160  0.00  0.00    +0.000 A 
ATOM     16  C   UNL     1       1.986   8.211  18.512  0.00  0.00    +0.000 A 
ATOM     17  C   UNL     1       2.152   6.984  19.154  0.00  0.00    +0.000 A 
ATOM     18  C   UNL     1       1.699   6.795  20.469  0.00  0.00    +0.000 A 
ATOM     19  C   UNL     1       1.123   7.888  21.135  0.00  0.00    +0.000 A 
ATOM     20  C   UNL     1       0.952   9.118  20.487  0.00  0.00    +0.000 A 
BRANCH  15  21
ATOM     21  O   UNL     1       1.191  10.403  18.407  0.00  0.00    +0.000 OA
BRANCH  21  23
ATOM     22  C   UNL     1      -1.110  10.286  17.792  0.00  0.00    +0.000 C 
ATOM     23  C   UNL     1      -0.062  11.072  18.558  0.00  0.00    +0.000 C 
ENDBRANCH  21  23
ENDBRANCH  15  21
ENDBRANCH  14  18
ENDBRANCH   7  14
ENDBRANCH   1   9
BRANCH   3  24
ATOM     24  C   UNL     1       8.225   7.090  18.682  0.00  0.00    +0.000 C 
ATOM     25  N   UNL     1       8.170   8.287  18.198  0.00  0.00    +0.000 NA
BRANCH  25  26
ATOM     26  O   UNL     1       8.836   9.175  19.061  0.00  0.00    +0.000 OA
BRANCH  26  27
ATOM     27  C   UNL     1       9.051  10.403  18.362  0.00  0.00    +0.000 C 
BRANCH  27  28
ATOM     28  C   UNL     1       9.413  11.490  19.367  0.00  0.00    +0.000 C 
BRANCH  28  29
ATOM     29  O   UNL     1       9.526  10.931  20.675  0.00  0.00    +0.000 OA
ATOM     30  C   UNL     1       8.979  11.799  21.661  0.00  0.00    +0.000 C 
ENDBRANCH  28  29
ENDBRANCH  27  28
ENDBRANCH  26  27
ENDBRANCH  25  26
ENDBRANCH   3  24
BRANCH   4  31
ATOM     31  O   UNL     1       8.024   6.853  15.810  0.00  0.00    +0.000 OA
ATOM     32  H   UNL     1       8.675   7.351  16.335  0.00  0.00    +0.000 HD
ENDBRANCH   4  31
BRANCH   5  33
ATOM     33  O   UNL     1       5.510   5.933  14.803  0.00  0.00    +0.000 OA
ATOM     34  H   UNL     1       5.754   6.872  14.740  0.00  0.00    +0.000 HD
ENDBRANCH   5  33
BRANCH   6  35
ATOM     35  O   UNL     1       4.403   3.710  16.247  0.00  0.00    +0.000 OA
ATOM     36  H   UNL     1       4.874   2.879  16.432  0.00  0.00    +0.000 HD
ENDBRANCH   6  35
TORSDOF 13
ENDMDL
