MODEL 1
REMARK VINA RESULT:      -8.5      0.000      0.000
REMARK  Name = 
REMARK  4 active torsions:
REMARK  status: ('A' for Active; 'I' for Inactive)
REMARK    1  A    between atoms: C_2  and  C_4
REMARK    2  A    between atoms: C_7  and  N_8
REMARK    3  A    between atoms: N_8  and  C_9
REMARK    4  A    between atoms: C_14  and  C_15
REMARK                            x       y       z     vdW  Elec       q    Type
REMARK                         _______ _______ _______ _____ _____    ______ ____
ROOT
ATOM      1  N   UNL     1       2.089   8.394  19.504  0.00  0.00    +0.000 N 
ATOM      2  H   UNL     1       2.776   9.033  19.116  0.00  0.00    +0.000 HD
ENDROOT
BRANCH   1   6
ATOM      3  C   UNL     1       3.141   4.280  19.423  0.00  0.00    +0.000 A 
ATOM      4  C   UNL     1       2.260   4.788  20.387  0.00  0.00    +0.000 A 
ATOM      5  C   UNL     1       1.892   6.131  20.389  0.00  0.00    +0.000 A 
ATOM      6  C   UNL     1       2.377   7.022  19.430  0.00  0.00    +0.000 A 
ATOM      7  C   UNL     1       3.282   6.488  18.449  0.00  0.00    +0.000 A 
ATOM      8  C   UNL     1       3.890   7.256  17.449  0.00  0.00    +0.000 A 
ATOM      9  N   UNL     1       4.733   6.788  16.504  0.00  0.00    +0.000 NA
ATOM     10  C   UNL     1       5.006   5.489  16.575  0.00  0.00    +0.000 A 
ATOM     11  N   UNL     1       4.519   4.640  17.489  0.00  0.00    +0.000 NA
ATOM     12  C   UNL     1       3.666   5.119  18.429  0.00  0.00    +0.000 A 
BRANCH   3  14
ATOM     13  N   UNL     1       4.761   2.460  19.818  0.00  0.00    +0.000 N 
ATOM     14  C   UNL     1       3.470   2.821  19.559  0.00  0.00    +0.000 C 
ATOM     15  O   UNL     1       2.603   1.959  19.461  0.00  0.00    +0.000 OA
ATOM     16  H   UNL     1       4.986   1.478  19.907  0.00  0.00    +0.000 HD
ATOM     17  H   UNL     1       5.496   3.157  19.892  0.00  0.00    +0.000 HD
ENDBRANCH   3  14
ENDBRANCH   1   6
BRANCH   1  18
ATOM     18  C   UNL     1       0.711   8.950  19.601  0.00  0.00    +0.000 C 
ATOM     19  C   UNL     1       0.406   9.361  21.071  0.00  0.00    +0.000 C 
ATOM     20  N   UNL     1       1.035  10.591  21.557  0.00  0.00    +0.000 NA
ATOM     21  C   UNL     1       0.918  11.714  20.636  0.00  0.00    +0.000 C 
ATOM     22  C   UNL     1       1.273  11.375  19.189  0.00  0.00    +0.000 C 
ATOM     23  C   UNL     1       0.493  10.159  18.641  0.00  0.00    +0.000 C 
ATOM     24  H   UNL     1       2.002  10.423  21.821  0.00  0.00    +0.000 HD
BRANCH  23  25
ATOM     25  C   UNL     1      -0.969  10.490  18.280  0.00  0.00    +0.000 A 
ATOM     26  C   UNL     1      -1.615   9.748  17.269  0.00  0.00    +0.000 A 
ATOM     27  C   UNL     1      -2.964   9.960  16.955  0.00  0.00    +0.000 A 
ATOM     28  C   UNL     1      -3.690  10.912  17.653  0.00  0.00    +0.000 A 
ATOM     29  F   UNL     1      -4.986  11.098  17.375  0.00  0.00    +0.000 F 
ATOM     30  C   UNL     1      -3.089  11.661  18.651  0.00  0.00    +0.000 A 
ATOM     31  C   UNL     1      -1.740  11.448  18.964  0.00  0.00    +0.000 A 
ENDBRANCH  23  25
ENDBRANCH   1  18
TORSDOF 4
ENDMDL
MODEL 2
REMARK VINA RESULT:      -8.4      4.183      8.152
REMARK  Name = 
REMARK  4 active torsions:
REMARK  status: ('A' for Active; 'I' for Inactive)
REMARK    1  A    between atoms: C_2  and  C_4
REMARK    2  A    between atoms: C_7  and  N_8
REMARK    3  A    between atoms: N_8  and  C_9
REMARK    4  A    between atoms: C_14  and  C_15
REMARK                            x       y       z     vdW  Elec       q    Type
REMARK                         _______ _______ _______ _____ _____    ______ ____
ROOT
ATOM      1  N   UNL     1       2.144   6.699  20.189  0.00  0.00    +0.000 N 
ATOM      2  H   UNL     1       1.483   6.150  20.730  0.00  0.00    +0.000 HD
ENDROOT
BRANCH   1   6
ATOM      3  C   UNL     1       1.088  10.639  19.006  0.00  0.00    +0.000 A 
ATOM      4  C   UNL     1       1.773   9.777  18.139  0.00  0.00    +0.000 A 
ATOM      5  C   UNL     1       2.087   8.474  18.520  0.00  0.00    +0.000 A 
ATOM      6  C   UNL     1       1.728   7.973  19.772  0.00  0.00    +0.000 A 
ATOM      7  C   UNL     1       1.029   8.869  20.652  0.00  0.00    +0.000 A 
ATOM      8  C   UNL     1       0.638   8.536  21.955  0.00  0.00    +0.000 A 
ATOM      9  N   UNL     1      -0.031   9.345  22.803  0.00  0.00    +0.000 NA
ATOM     10  C   UNL     1      -0.302  10.561  22.339  0.00  0.00    +0.000 A 
ATOM     11  N   UNL     1       0.032  11.024  21.128  0.00  0.00    +0.000 NA
ATOM     12  C   UNL     1       0.696  10.200  20.279  0.00  0.00    +0.000 A 
BRANCH   3  14
ATOM     13  N   UNL     1      -0.437  12.385  18.159  0.00  0.00    +0.000 N 
ATOM     14  C   UNL     1       0.841  12.021  18.474  0.00  0.00    +0.000 C 
ATOM     15  O   UNL     1       1.755  12.826  18.338  0.00  0.00    +0.000 OA
ATOM     16  H   UNL     1      -0.606  13.315  17.798  0.00  0.00    +0.000 HD
ATOM     17  H   UNL     1      -1.208  11.730  18.254  0.00  0.00    +0.000 HD
ENDBRANCH   3  14
ENDBRANCH   1   6
BRANCH   1  18
ATOM     18  C   UNL     1       3.195   5.901  19.500  0.00  0.00    +0.000 C 
ATOM     19  C   UNL     1       3.391   4.538  20.227  0.00  0.00    +0.000 C 
ATOM     20  N   UNL     1       2.355   3.523  20.018  0.00  0.00    +0.000 NA
ATOM     21  C   UNL     1       1.972   3.354  18.622  0.00  0.00    +0.000 C 
ATOM     22  C   UNL     1       1.704   4.664  17.884  0.00  0.00    +0.000 C 
ATOM     23  C   UNL     1       2.870   5.672  17.993  0.00  0.00    +0.000 C 
ATOM     24  H   UNL     1       1.547   3.705  20.608  0.00  0.00    +0.000 HD
BRANCH  23  25
ATOM     25  C   UNL     1       4.062   5.320  17.081  0.00  0.00    +0.000 A 
ATOM     26  C   UNL     1       4.922   6.348  16.640  0.00  0.00    +0.000 A 
ATOM     27  C   UNL     1       6.060   6.071  15.873  0.00  0.00    +0.000 A 
ATOM     28  C   UNL     1       6.362   4.760  15.541  0.00  0.00    +0.000 A 
ATOM     29  F   UNL     1       7.464   4.488  14.832  0.00  0.00    +0.000 F 
ATOM     30  C   UNL     1       5.540   3.724  15.954  0.00  0.00    +0.000 A 
ATOM     31  C   UNL     1       4.402   4.002  16.721  0.00  0.00    +0.000 A 
ENDBRANCH  23  25
ENDBRANCH   1  18
TORSDOF 4
ENDMDL
MODEL 3
REMARK VINA RESULT:      -8.3      0.640      1.124
REMARK  Name = 
REMARK  4 active torsions:
REMARK  status: ('A' for Active; 'I' for Inactive)
REMARK    1  A    between atoms: C_2  and  C_4
REMARK    2  A    between atoms: C_7  and  N_8
REMARK    3  A    between atoms: N_8  and  C_9
REMARK    4  A    between atoms: C_14  and  C_15
REMARK                            x       y       z     vdW  Elec       q    Type
REMARK                         _______ _______ _______ _____ _____    ______ ____
ROOT
ATOM      1  N   UNL     1       2.013   8.278  19.792  0.00  0.00    +0.000 N 
ATOM      2  H   UNL     1       2.751   8.911  19.500  0.00  0.00    +0.000 HD
ENDROOT
BRANCH   1   6
ATOM      3  C   UNL     1       2.918   4.140  19.488  0.00  0.00    +0.000 A 
ATOM      4  C   UNL     1       2.065   4.627  20.487  0.00  0.00    +0.000 A 
ATOM      5  C   UNL     1       1.744   5.981  20.562  0.00  0.00    +0.000 A 
ATOM      6  C   UNL     1       2.251   6.902  19.644  0.00  0.00    +0.000 A 
ATOM      7  C   UNL     1       3.127   6.389  18.627  0.00  0.00    +0.000 A 
ATOM      8  C   UNL     1       3.752   7.187  17.660  0.00  0.00    +0.000 A 
ATOM      9  N   UNL     1       4.569   6.739  16.683  0.00  0.00    +0.000 NA
ATOM     10  C   UNL     1       4.796   5.429  16.684  0.00  0.00    +0.000 A 
ATOM     11  N   UNL     1       4.289   4.552  17.559  0.00  0.00    +0.000 NA
ATOM     12  C   UNL     1       3.462   5.011  18.533  0.00  0.00    +0.000 A 
BRANCH   3  14
ATOM     13  N   UNL     1       2.522   1.836  18.695  0.00  0.00    +0.000 N 
ATOM     14  C   UNL     1       3.196   2.665  19.545  0.00  0.00    +0.000 C 
ATOM     15  O   UNL     1       4.025   2.202  20.320  0.00  0.00    +0.000 OA
ATOM     16  H   UNL     1       2.707   0.842  18.733  0.00  0.00    +0.000 HD
ATOM     17  H   UNL     1       1.824   2.198  18.052  0.00  0.00    +0.000 HD
ENDBRANCH   3  14
ENDBRANCH   1   6
BRANCH   1  18
ATOM     18  C   UNL     1       0.654   8.887  19.828  0.00  0.00    +0.000 C 
ATOM     19  C   UNL     1       0.356   9.438  21.253  0.00  0.00    +0.000 C 
ATOM     20  N   UNL     1       1.024  10.686  21.632  0.00  0.00    +0.000 NA
ATOM     21  C   UNL     1       0.951  11.724  20.613  0.00  0.00    +0.000 C 
ATOM     22  C   UNL     1       1.301  11.245  19.205  0.00  0.00    +0.000 C 
ATOM     23  C   UNL     1       0.482  10.011  18.762  0.00  0.00    +0.000 C 
ATOM     24  H   UNL     1       1.983  10.509  21.918  0.00  0.00    +0.000 HD
BRANCH  23  25
ATOM     25  C   UNL     1      -0.965  10.358  18.361  0.00  0.00    +0.000 A 
ATOM     26  C   UNL     1      -1.654  11.367  19.067  0.00  0.00    +0.000 A 
ATOM     27  C   UNL     1      -2.942  11.771  18.694  0.00  0.00    +0.000 A 
ATOM     28  C   UNL     1      -3.559  11.178  17.604  0.00  0.00    +0.000 A 
ATOM     29  F   UNL     1      -4.779  11.581  17.227  0.00  0.00    +0.000 F 
ATOM     30  C   UNL     1      -2.915  10.183  16.888  0.00  0.00    +0.000 A 
ATOM     31  C   UNL     1      -1.627   9.780  17.261  0.00  0.00    +0.000 A 
ENDBRANCH  23  25
ENDBRANCH   1  18
TORSDOF 4
ENDMDL
MODEL 4
REMARK VINA RESULT:      -8.2      4.361      8.229
REMARK  Name = 
REMARK  4 active torsions:
REMARK  status: ('A' for Active; 'I' for Inactive)
REMARK    1  A    between atoms: C_2  and  C_4
REMARK    2  A    between atoms: C_7  and  N_8
REMARK    3  A    between atoms: N_8  and  C_9
REMARK    4  A    between atoms: C_14  and  C_15
REMARK                            x       y       z     vdW  Elec       q    Type
REMARK                         _______ _______ _______ _____ _____    ______ ____
ROOT
ATOM      1  N   UNL     1       1.463   6.812  20.380  0.00  0.00    +0.000 N 
ATOM      2  H   UNL     1       0.604   6.324  20.612  0.00  0.00    +0.000 HD
ENDROOT
BRANCH   1   6
ATOM      3  C   UNL     1       1.311  10.834  19.024  0.00  0.00    +0.000 A 
ATOM      4  C   UNL     1       1.914   9.828  18.256  0.00  0.00    +0.000 A 
ATOM      5  C   UNL     1       1.932   8.505  18.690  0.00  0.00    +0.000 A 
ATOM      6  C   UNL     1       1.345   8.125  19.898  0.00  0.00    +0.000 A 
ATOM      7  C   UNL     1       0.734   9.167  20.677  0.00  0.00    +0.000 A 
ATOM      8  C   UNL     1       0.143   8.960  21.930  0.00  0.00    +0.000 A 
ATOM      9  N   UNL     1      -0.452   9.909  22.682  0.00  0.00    +0.000 NA
ATOM     10  C   UNL     1      -0.435  11.137  22.172  0.00  0.00    +0.000 A 
ATOM     11  N   UNL     1       0.115  11.486  21.002  0.00  0.00    +0.000 NA
ATOM     12  C   UNL     1       0.703  10.522  20.249  0.00  0.00    +0.000 A 
BRANCH   3  14
ATOM     13  N   UNL     1       0.234  12.847  18.086  0.00  0.00    +0.000 N 
ATOM     14  C   UNL     1       1.391  12.217  18.446  0.00  0.00    +0.000 C 
ATOM     15  O   UNL     1       2.465  12.793  18.313  0.00  0.00    +0.000 OA
ATOM     16  H   UNL     1       0.285  13.778  17.694  0.00  0.00    +0.000 HD
ATOM     17  H   UNL     1      -0.666  12.384  18.178  0.00  0.00    +0.000 HD
ENDBRANCH   3  14
ENDBRANCH   1   6
BRANCH   1  18
ATOM     18  C   UNL     1       2.622   5.922  20.091  0.00  0.00    +0.000 C 
ATOM     19  C   UNL     1       2.432   4.552  20.806  0.00  0.00    +0.000 C 
ATOM     20  N   UNL     1       1.459   3.629  20.217  0.00  0.00    +0.000 NA
ATOM     21  C   UNL     1       1.587   3.483  18.773  0.00  0.00    +0.000 C 
ATOM     22  C   UNL     1       1.709   4.806  18.020  0.00  0.00    +0.000 C 
ATOM     23  C   UNL     1       2.839   5.712  18.562  0.00  0.00    +0.000 C 
ATOM     24  H   UNL     1       0.512   3.883  20.485  0.00  0.00    +0.000 HD
BRANCH  23  25
ATOM     25  C   UNL     1       4.244   5.252  18.126  0.00  0.00    +0.000 A 
ATOM     26  C   UNL     1       4.421   4.696  16.842  0.00  0.00    +0.000 A 
ATOM     27  C   UNL     1       5.689   4.332  16.371  0.00  0.00    +0.000 A 
ATOM     28  C   UNL     1       6.801   4.526  17.174  0.00  0.00    +0.000 A 
ATOM     29  F   UNL     1       8.018   4.206  16.717  0.00  0.00    +0.000 F 
ATOM     30  C   UNL     1       6.667   5.068  18.441  0.00  0.00    +0.000 A 
ATOM     31  C   UNL     1       5.399   5.431  18.911  0.00  0.00    +0.000 A 
ENDBRANCH  23  25
ENDBRANCH   1  18
TORSDOF 4
ENDMDL
MODEL 5
REMARK VINA RESULT:      -8.0      4.209      8.129
REMARK  Name = 
REMARK  4 active torsions:
REMARK  status: ('A' for Active; 'I' for Inactive)
REMARK    1  A    between atoms: C_2  and  C_4
REMARK    2  A    between atoms: C_7  and  N_8
REMARK    3  A    between atoms: N_8  and  C_9
REMARK    4  A    between atoms: C_14  and  C_15
REMARK                            x       y       z     vdW  Elec       q    Type
REMARK                         _______ _______ _______ _____ _____    ______ ____
ROOT
ATOM      1  N   UNL     1       2.037   6.728  20.169  0.00  0.00    +0.000 N 
ATOM      2  H   UNL     1       1.321   6.152  20.600  0.00  0.00    +0.000 HD
ENDROOT
BRANCH   1   6
ATOM      3  C   UNL     1       1.105  10.702  18.994  0.00  0.00    +0.000 A 
ATOM      4  C   UNL     1       1.751   9.817  18.121  0.00  0.00    +0.000 A 
ATOM      5  C   UNL     1       2.024   8.504  18.499  0.00  0.00    +0.000 A 
ATOM      6  C   UNL     1       1.661   8.016  19.755  0.00  0.00    +0.000 A 
ATOM      7  C   UNL     1       1.002   8.936  20.642  0.00  0.00    +0.000 A 
ATOM      8  C   UNL     1       0.614   8.616  21.949  0.00  0.00    +0.000 A 
ATOM      9  N   UNL     1      -0.018   9.448  22.804  0.00  0.00    +0.000 NA
ATOM     10  C   UNL     1      -0.252  10.672  22.342  0.00  0.00    +0.000 A 
ATOM     11  N   UNL     1       0.085  11.124  21.128  0.00  0.00    +0.000 NA
ATOM     12  C   UNL     1       0.712  10.277  20.272  0.00  0.00    +0.000 A 
BRANCH   3  14
ATOM     13  N   UNL     1       1.986  12.799  18.036  0.00  0.00    +0.000 N 
ATOM     14  C   UNL     1       0.900  12.092  18.465  0.00  0.00    +0.000 C 
ATOM     15  O   UNL     1      -0.218  12.589  18.393  0.00  0.00    +0.000 OA
ATOM     16  H   UNL     1       1.851  13.736  17.681  0.00  0.00    +0.000 HD
ATOM     17  H   UNL     1       2.923  12.410  18.096  0.00  0.00    +0.000 HD
ENDBRANCH   3  14
ENDBRANCH   1   6
BRANCH   1  18
ATOM     18  C   UNL     1       3.176   5.967  19.584  0.00  0.00    +0.000 C 
ATOM     19  C   UNL     1       3.344   4.608  20.325  0.00  0.00    +0.000 C 
ATOM     20  N   UNL     1       2.366   3.562  20.015  0.00  0.00    +0.000 NA
ATOM     21  C   UNL     1       2.127   3.386  18.588  0.00  0.00    +0.000 C 
ATOM     22  C   UNL     1       1.889   4.690  17.829  0.00  0.00    +0.000 C 
ATOM     23  C   UNL     1       3.006   5.735  18.052  0.00  0.00    +0.000 C 
ATOM     24  H   UNL     1       1.500   3.715  20.524  0.00  0.00    +0.000 HD
BRANCH  23  25
ATOM     25  C   UNL     1       4.292   5.424  17.260  0.00  0.00    +0.000 A 
ATOM     26  C   UNL     1       4.369   4.233  16.508  0.00  0.00    +0.000 A 
ATOM     27  C   UNL     1       5.484   3.941  15.713  0.00  0.00    +0.000 A 
ATOM     28  C   UNL     1       6.537   4.839  15.651  0.00  0.00    +0.000 A 
ATOM     29  F   UNL     1       7.592   4.577  14.870  0.00  0.00    +0.000 F 
ATOM     30  C   UNL     1       6.498   6.018  16.376  0.00  0.00    +0.000 A 
ATOM     31  C   UNL     1       5.383   6.310  17.171  0.00  0.00    +0.000 A 
ENDBRANCH  23  25
ENDBRANCH   1  18
TORSDOF 4
ENDMDL
MODEL 6
REMARK VINA RESULT:      -7.9      4.508      8.396
REMARK  Name = 
REMARK  4 active torsions:
REMARK  status: ('A' for Active; 'I' for Inactive)
REMARK    1  A    between atoms: C_2  and  C_4
REMARK    2  A    between atoms: C_7  and  N_8
REMARK    3  A    between atoms: N_8  and  C_9
REMARK    4  A    between atoms: C_14  and  C_15
REMARK                            x       y       z     vdW  Elec       q    Type
REMARK                         _______ _______ _______ _____ _____    ______ ____
ROOT
ATOM      1  N   UNL     1       1.341   7.703  18.820  0.00  0.00    +0.000 N 
ATOM      2  H   UNL     1       0.737   7.330  18.095  0.00  0.00    +0.000 HD
ENDROOT
BRANCH   1   6
ATOM      3  C   UNL     1       1.308  11.858  19.697  0.00  0.00    +0.000 A 
ATOM      4  C   UNL     1       1.849  11.371  18.501  0.00  0.00    +0.000 A 
ATOM      5  C   UNL     1       1.828  10.010  18.203  0.00  0.00    +0.000 A 
ATOM      6  C   UNL     1       1.261   9.081  19.076  0.00  0.00    +0.000 A 
ATOM      7  C   UNL     1       0.712   9.594  20.301  0.00  0.00    +0.000 A 
ATOM      8  C   UNL     1       0.148   8.791  21.300  0.00  0.00    +0.000 A 
ATOM      9  N   UNL     1      -0.389   9.238  22.456  0.00  0.00    +0.000 NA
ATOM     10  C   UNL     1      -0.338  10.554  22.637  0.00  0.00    +0.000 A 
ATOM     11  N   UNL     1       0.192  11.438  21.783  0.00  0.00    +0.000 NA
ATOM     12  C   UNL     1       0.721  10.979  20.621  0.00  0.00    +0.000 A 
BRANCH   3  14
ATOM     13  N   UNL     1       2.150  13.806  20.958  0.00  0.00    +0.000 N 
ATOM     14  C   UNL     1       1.425  13.341  19.898  0.00  0.00    +0.000 C 
ATOM     15  O   UNL     1       0.902  14.134  19.123  0.00  0.00    +0.000 OA
ATOM     16  H   UNL     1       2.228  14.805  21.097  0.00  0.00    +0.000 HD
ATOM     17  H   UNL     1       2.584  13.167  21.618  0.00  0.00    +0.000 HD
ENDBRANCH   3  14
ENDBRANCH   1   6
BRANCH   1  18
ATOM     18  C   UNL     1       2.541   6.871  19.115  0.00  0.00    +0.000 C 
ATOM     19  C   UNL     1       2.312   6.049  20.417  0.00  0.00    +0.000 C 
ATOM     20  N   UNL     1       1.420   4.891  20.319  0.00  0.00    +0.000 NA
ATOM     21  C   UNL     1       1.691   4.038  19.169  0.00  0.00    +0.000 C 
ATOM     22  C   UNL     1       1.857   4.796  17.854  0.00  0.00    +0.000 C 
ATOM     23  C   UNL     1       2.909   5.925  17.932  0.00  0.00    +0.000 C 
ATOM     24  H   UNL     1       0.447   5.181  20.349  0.00  0.00    +0.000 HD
BRANCH  23  25
ATOM     25  C   UNL     1       4.359   5.405  17.897  0.00  0.00    +0.000 A 
ATOM     26  C   UNL     1       4.857   4.827  16.710  0.00  0.00    +0.000 A 
ATOM     27  C   UNL     1       6.189   4.407  16.604  0.00  0.00    +0.000 A 
ATOM     28  C   UNL     1       7.047   4.566  17.681  0.00  0.00    +0.000 A 
ATOM     29  F   UNL     1       8.328   4.192  17.574  0.00  0.00    +0.000 F 
ATOM     30  C   UNL     1       6.594   5.128  18.863  0.00  0.00    +0.000 A 
ATOM     31  C   UNL     1       5.262   5.547  18.968  0.00  0.00    +0.000 A 
ENDBRANCH  23  25
ENDBRANCH   1  18
TORSDOF 4
ENDMDL
MODEL 7
REMARK VINA RESULT:      -7.8      1.555      2.673
REMARK  Name = 
REMARK  4 active torsions:
REMARK  status: ('A' for Active; 'I' for Inactive)
REMARK    1  A    between atoms: C_2  and  C_4
REMARK    2  A    between atoms: C_7  and  N_8
REMARK    3  A    between atoms: N_8  and  C_9
REMARK    4  A    between atoms: C_14  and  C_15
REMARK                            x       y       z     vdW  Elec       q    Type
REMARK                         _______ _______ _______ _____ _____    ______ ____
ROOT
ATOM      1  N   UNL     1       1.787   7.765  20.665  0.00  0.00    +0.000 N 
ATOM      2  H   UNL     1       2.301   8.288  21.367  0.00  0.00    +0.000 HD
ENDROOT
BRANCH   1   6
ATOM      3  C   UNL     1       3.828   5.141  18.022  0.00  0.00    +0.000 A 
ATOM      4  C   UNL     1       3.717   6.510  17.747  0.00  0.00    +0.000 A 
ATOM      5  C   UNL     1       3.076   7.372  18.633  0.00  0.00    +0.000 A 
ATOM      6  C   UNL     1       2.527   6.912  19.831  0.00  0.00    +0.000 A 
ATOM      7  C   UNL     1       2.645   5.505  20.099  0.00  0.00    +0.000 A 
ATOM      8  C   UNL     1       2.111   4.878  21.232  0.00  0.00    +0.000 A 
ATOM      9  N   UNL     1       2.214   3.565  21.523  0.00  0.00    +0.000 NA
ATOM     10  C   UNL     1       2.862   2.829  20.625  0.00  0.00    +0.000 A 
ATOM     11  N   UNL     1       3.401   3.286  19.488  0.00  0.00    +0.000 NA
ATOM     12  C   UNL     1       3.299   4.610  19.208  0.00  0.00    +0.000 A 
BRANCH   3  14
ATOM     13  N   UNL     1       5.631   3.612  17.310  0.00  0.00    +0.000 N 
ATOM     14  C   UNL     1       4.520   4.328  16.966  0.00  0.00    +0.000 C 
ATOM     15  O   UNL     1       4.096   4.280  15.817  0.00  0.00    +0.000 OA
ATOM     16  H   UNL     1       6.100   3.066  16.600  0.00  0.00    +0.000 HD
ATOM     17  H   UNL     1       6.005   3.646  18.254  0.00  0.00    +0.000 HD
ENDBRANCH   3  14
ENDBRANCH   1   6
BRANCH   1  18
ATOM     18  C   UNL     1       0.472   8.358  20.292  0.00  0.00    +0.000 C 
ATOM     19  C   UNL     1      -0.521   8.244  21.486  0.00  0.00    +0.000 C 
ATOM     20  N   UNL     1      -0.318   9.169  22.603  0.00  0.00    +0.000 NA
ATOM     21  C   UNL     1      -0.107  10.551  22.191  0.00  0.00    +0.000 C 
ATOM     22  C   UNL     1       0.911  10.719  21.064  0.00  0.00    +0.000 C 
ATOM     23  C   UNL     1       0.602   9.841  19.830  0.00  0.00    +0.000 C 
ATOM     24  H   UNL     1       0.428   8.843  23.212  0.00  0.00    +0.000 HD
BRANCH  23  25
ATOM     25  C   UNL     1      -0.550  10.393  18.968  0.00  0.00    +0.000 A 
ATOM     26  C   UNL     1      -0.890   9.734  17.767  0.00  0.00    +0.000 A 
ATOM     27  C   UNL     1      -1.975  10.151  16.986  0.00  0.00    +0.000 A 
ATOM     28  C   UNL     1      -2.743  11.229  17.398  0.00  0.00    +0.000 A 
ATOM     29  F   UNL     1      -3.799  11.613  16.670  0.00  0.00    +0.000 F 
ATOM     30  C   UNL     1      -2.439  11.901  18.570  0.00  0.00    +0.000 A 
ATOM     31  C   UNL     1      -1.354  11.483  19.350  0.00  0.00    +0.000 A 
ENDBRANCH  23  25
ENDBRANCH   1  18
TORSDOF 4
ENDMDL
MODEL 8
REMARK VINA RESULT:      -7.7      4.455      8.464
REMARK  Name = 
REMARK  4 active torsions:
REMARK  status: ('A' for Active; 'I' for Inactive)
REMARK    1  A    between atoms: C_2  and  C_4
REMARK    2  A    between atoms: C_7  and  N_8
REMARK    3  A    between atoms: N_8  and  C_9
REMARK    4  A    between atoms: C_14  and  C_15
REMARK                            x       y       z     vdW  Elec       q    Type
REMARK                         _______ _______ _______ _____ _____    ______ ____
ROOT
ATOM      1  N   UNL     1       1.293   7.609  18.986  0.00  0.00    +0.000 N 
ATOM      2  H   UNL     1       0.633   7.206  18.328  0.00  0.00    +0.000 HD
ENDROOT
BRANCH   1   6
ATOM      3  C   UNL     1       1.210  11.772  19.822  0.00  0.00    +0.000 A 
ATOM      4  C   UNL     1       1.779  11.277  18.641  0.00  0.00    +0.000 A 
ATOM      5  C   UNL     1       1.774   9.914  18.356  0.00  0.00    +0.000 A 
ATOM      6  C   UNL     1       1.197   8.989  19.227  0.00  0.00    +0.000 A 
ATOM      7  C   UNL     1       0.620   9.509  20.436  0.00  0.00    +0.000 A 
ATOM      8  C   UNL     1       0.043   8.712  21.432  0.00  0.00    +0.000 A 
ATOM      9  N   UNL     1      -0.519   9.165  22.572  0.00  0.00    +0.000 NA
ATOM     10  C   UNL     1      -0.483  10.483  22.742  0.00  0.00    +0.000 A 
ATOM     11  N   UNL     1       0.057  11.363  21.889  0.00  0.00    +0.000 NA
ATOM     12  C   UNL     1       0.613  10.898  20.742  0.00  0.00    +0.000 A 
BRANCH   3  14
ATOM     13  N   UNL     1       0.162  13.989  20.106  0.00  0.00    +0.000 N 
ATOM     14  C   UNL     1       1.311  13.258  20.010  0.00  0.00    +0.000 C 
ATOM     15  O   UNL     1       2.399  13.818  20.099  0.00  0.00    +0.000 OA
ATOM     16  H   UNL     1       0.228  14.991  20.230  0.00  0.00    +0.000 HD
ATOM     17  H   UNL     1      -0.749  13.546  20.025  0.00  0.00    +0.000 HD
ENDBRANCH   3  14
ENDBRANCH   1   6
BRANCH   1  18
ATOM     18  C   UNL     1       2.540   6.817  19.176  0.00  0.00    +0.000 C 
ATOM     19  C   UNL     1       2.396   5.886  20.416  0.00  0.00    +0.000 C 
ATOM     20  N   UNL     1       1.556   4.696  20.254  0.00  0.00    +0.000 NA
ATOM     21  C   UNL     1       1.826   3.949  19.032  0.00  0.00    +0.000 C 
ATOM     22  C   UNL     1       1.910   4.815  17.776  0.00  0.00    +0.000 C 
ATOM     23  C   UNL     1       2.911   5.985  17.911  0.00  0.00    +0.000 C 
ATOM     24  H   UNL     1       0.572   4.935  20.337  0.00  0.00    +0.000 HD
BRANCH  23  25
ATOM     25  C   UNL     1       4.381   5.541  17.790  0.00  0.00    +0.000 A 
ATOM     26  C   UNL     1       5.241   5.689  18.900  0.00  0.00    +0.000 A 
ATOM     27  C   UNL     1       6.564   5.233  18.866  0.00  0.00    +0.000 A 
ATOM     28  C   UNL     1       7.048   4.614  17.725  0.00  0.00    +0.000 A 
ATOM     29  F   UNL     1       8.304   4.151  17.698  0.00  0.00    +0.000 F 
ATOM     30  C   UNL     1       6.235   4.452  16.615  0.00  0.00    +0.000 A 
ATOM     31  C   UNL     1       4.912   4.908  16.650  0.00  0.00    +0.000 A 
ENDBRANCH  23  25
ENDBRANCH   1  18
TORSDOF 4
ENDMDL
MODEL 9
REMARK VINA RESULT:      -7.7      2.762      4.313
REMARK  Name = 
REMARK  4 active torsions:
REMARK  status: ('A' for Active; 'I' for Inactive)
REMARK    1  A    between atoms: C_2  and  C_4
REMARK    2  A    between atoms: C_7  and  N_8
REMARK    3  A    between atoms: N_8  and  C_9
REMARK    4  A    between atoms: C_14  and  C_15
REMARK                            x       y       z     vdW  Elec       q    Type
REMARK                         _______ _______ _______ _____ _____    ______ ____
ROOT
ATOM      1  N   UNL     1       1.417   8.493  19.312  0.00  0.00    +0.000 N 
ATOM      2  H   UNL     1       1.022   8.369  20.238  0.00  0.00    +0.000 HD
ENDROOT
BRANCH   1   6
ATOM      3  C   UNL     1       4.250   5.644  17.935  0.00  0.00    +0.000 A 
ATOM      4  C   UNL     1       4.151   6.914  17.351  0.00  0.00    +0.000 A 
ATOM      5  C   UNL     1       3.243   7.856  17.828  0.00  0.00    +0.000 A 
ATOM      6  C   UNL     1       2.403   7.579  18.908  0.00  0.00    +0.000 A 
ATOM      7  C   UNL     1       2.513   6.272  19.495  0.00  0.00    +0.000 A 
ATOM      8  C   UNL     1       1.713   5.823  20.553  0.00  0.00    +0.000 A 
ATOM      9  N   UNL     1       1.796   4.609  21.138  0.00  0.00    +0.000 NA
ATOM     10  C   UNL     1       2.708   3.789  20.624  0.00  0.00    +0.000 A 
ATOM     11  N   UNL     1       3.521   4.073  19.600  0.00  0.00    +0.000 NA
ATOM     12  C   UNL     1       3.435   5.299  19.024  0.00  0.00    +0.000 A 
BRANCH   3  14
ATOM     13  N   UNL     1       6.180   4.114  18.097  0.00  0.00    +0.000 N 
ATOM     14  C   UNL     1       5.251   4.722  17.302  0.00  0.00    +0.000 C 
ATOM     15  O   UNL     1       5.235   4.492  16.097  0.00  0.00    +0.000 OA
ATOM     16  H   UNL     1       6.857   3.494  17.672  0.00  0.00    +0.000 HD
ATOM     17  H   UNL     1       6.217   4.298  19.095  0.00  0.00    +0.000 HD
ENDBRANCH   3  14
ENDBRANCH   1   6
BRANCH   1  18
ATOM     18  C   UNL     1       1.283   9.870  18.760  0.00  0.00    +0.000 C 
ATOM     19  C   UNL     1       0.006   9.967  17.875  0.00  0.00    +0.000 C 
ATOM     20  N   UNL     1      -1.280  10.025  18.575  0.00  0.00    +0.000 NA
ATOM     21  C   UNL     1      -1.303  10.971  19.683  0.00  0.00    +0.000 C 
ATOM     22  C   UNL     1      -0.100  10.868  20.618  0.00  0.00    +0.000 C 
ATOM     23  C   UNL     1       1.254  10.954  19.879  0.00  0.00    +0.000 C 
ATOM     24  H   UNL     1      -1.573   9.097  18.869  0.00  0.00    +0.000 HD
BRANCH  23  25
ATOM     25  C   UNL     1       1.620  12.389  19.451  0.00  0.00    +0.000 A 
ATOM     26  C   UNL     1       1.217  13.474  20.259  0.00  0.00    +0.000 A 
ATOM     27  C   UNL     1       1.588  14.790  19.954  0.00  0.00    +0.000 A 
ATOM     28  C   UNL     1       2.374  15.041  18.841  0.00  0.00    +0.000 A 
ATOM     29  F   UNL     1       2.754  16.294  18.562  0.00  0.00    +0.000 F 
ATOM     30  C   UNL     1       2.787  14.002  18.024  0.00  0.00    +0.000 A 
ATOM     31  C   UNL     1       2.416  12.687  18.329  0.00  0.00    +0.000 A 
ENDBRANCH  23  25
ENDBRANCH   1  18
TORSDOF 4
ENDMDL
