MODEL 1
REMARK VINA RESULT:      -8.0      0.000      0.000
REMARK  Name = 
REMARK  5 active torsions:
REMARK  status: ('A' for Active; 'I' for Inactive)
REMARK    1  A    between atoms: C_1  and  C_2
REMARK    2  A    between atoms: C_5  and  N_6
REMARK    3  A    between atoms: N_6  and  C_7
REMARK    4  A    between atoms: N_11  and  C_12
REMARK    5  A    between atoms: C_20  and  C_21
REMARK                            x       y       z     vdW  Elec       q    Type
REMARK                         _______ _______ _______ _____ _____    ______ ____
ROOT
ATOM      1  C   UNL     1       0.221   9.334  19.223  0.00  0.00    +0.000 C 
ATOM      2  C   UNL     1       1.259   8.521  19.432  0.00  0.00    +0.000 C 
ATOM      3  C   UNL     1       2.179   8.070  18.380  0.00  0.00    +0.000 C 
ATOM      4  O   UNL     1       2.333   8.725  17.356  0.00  0.00    +0.000 OA
ATOM      5  N   UNL     1       2.784   6.853  18.721  0.00  0.00    +0.000 N 
ATOM      6  C   UNL     1       2.659   6.512  20.152  0.00  0.00    +0.000 C 
ATOM      7  S   UNL     1       1.513   7.735  20.929  0.00  0.00    +0.000 S 
ATOM      8  O   UNL     1       2.274   8.599  21.814  0.00  0.00    +0.000 OA
ATOM      9  O   UNL     1       0.271   7.130  21.369  0.00  0.00    +0.000 OA
ENDROOT
BRANCH   5  10
ATOM     10  C   UNL     1       3.601   6.113  17.801  0.00  0.00    +0.000 A 
ATOM     11  C   UNL     1       3.232   4.810  17.414  0.00  0.00    +0.000 A 
ATOM     12  C   UNL     1       3.998   4.067  16.514  0.00  0.00    +0.000 A 
ATOM     13  C   UNL     1       5.168   4.606  16.005  0.00  0.00    +0.000 A 
ATOM     14  F   UNL     1       5.898   3.899  15.137  0.00  0.00    +0.000 F 
ATOM     15  C   UNL     1       5.585   5.872  16.386  0.00  0.00    +0.000 A 
ATOM     16  C   UNL     1       4.803   6.615  17.269  0.00  0.00    +0.000 A 
ATOM     17  F   UNL     1       5.222   7.854  17.563  0.00  0.00    +0.000 F 
ENDBRANCH   5  10
BRANCH   6  18
ATOM     18  C   UNL     1       2.136   5.142  20.502  0.00  0.00    +0.000 A 
ATOM     19  C   UNL     1       1.129   4.485  19.788  0.00  0.00    +0.000 A 
ATOM     20  C   UNL     1       0.709   3.220  20.191  0.00  0.00    +0.000 A 
ATOM     21  C   UNL     1       1.300   2.651  21.306  0.00  0.00    +0.000 A 
ATOM     22  N   UNL     1       2.261   3.257  22.032  0.00  0.00    +0.000 NA
ATOM     23  C   UNL     1       2.649   4.484  21.623  0.00  0.00    +0.000 A 
ENDBRANCH   6  18
BRANCH   1  24
ATOM     24  N   UNL     1      -0.117   9.967  18.048  0.00  0.00    +0.000 N 
ATOM     25  H   UNL     1       0.624  10.037  17.346  0.00  0.00    +0.000 HD
BRANCH  24  30
ATOM     26  C   UNL     1      -5.344  11.965  16.836  0.00  0.00    +0.000 C 
ATOM     27  C   UNL     1      -3.961  11.471  17.132  0.00  0.00    +0.000 A 
ATOM     28  C   UNL     1      -3.238  11.952  18.226  0.00  0.00    +0.000 A 
ATOM     29  C   UNL     1      -1.952  11.470  18.493  0.00  0.00    +0.000 A 
ATOM     30  C   UNL     1      -1.363  10.494  17.679  0.00  0.00    +0.000 A 
ATOM     31  C   UNL     1      -2.093  10.019  16.585  0.00  0.00    +0.000 A 
ATOM     32  C   UNL     1      -3.373  10.508  16.307  0.00  0.00    +0.000 A 
ENDBRANCH  24  30
ENDBRANCH   1  24
TORSDOF 4
ENDMDL
MODEL 2
REMARK VINA RESULT:      -7.8      6.250      9.012
REMARK  Name = 
REMARK  5 active torsions:
REMARK  status: ('A' for Active; 'I' for Inactive)
REMARK    1  A    between atoms: C_1  and  C_2
REMARK    2  A    between atoms: C_5  and  N_6
REMARK    3  A    between atoms: N_6  and  C_7
REMARK    4  A    between atoms: N_11  and  C_12
REMARK    5  A    between atoms: C_20  and  C_21
REMARK                            x       y       z     vdW  Elec       q    Type
REMARK                         _______ _______ _______ _____ _____    ______ ____
ROOT
ATOM      1  C   UNL     1      -0.703  16.562  22.376  0.00  0.00    +0.000 C 
ATOM      2  C   UNL     1      -1.081  15.374  22.850  0.00  0.00    +0.000 C 
ATOM      3  C   UNL     1      -0.416  14.105  22.526  0.00  0.00    +0.000 C 
ATOM      4  O   UNL     1       0.756  14.084  22.169  0.00  0.00    +0.000 OA
ATOM      5  N   UNL     1      -1.291  13.020  22.669  0.00  0.00    +0.000 N 
ATOM      6  C   UNL     1      -2.505  13.341  23.443  0.00  0.00    +0.000 C 
ATOM      7  S   UNL     1      -2.529  15.164  23.735  0.00  0.00    +0.000 S 
ATOM      8  O   UNL     1      -2.285  15.421  25.143  0.00  0.00    +0.000 OA
ATOM      9  O   UNL     1      -3.616  15.824  23.038  0.00  0.00    +0.000 OA
ENDROOT
BRANCH   5  10
ATOM     10  C   UNL     1      -0.942  11.688  22.261  0.00  0.00    +0.000 A 
ATOM     11  C   UNL     1      -0.780  10.672  23.221  0.00  0.00    +0.000 A 
ATOM     12  C   UNL     1      -0.450   9.365  22.858  0.00  0.00    +0.000 A 
ATOM     13  C   UNL     1      -0.247   9.057  21.523  0.00  0.00    +0.000 A 
ATOM     14  F   UNL     1       0.062   7.804  21.174  0.00  0.00    +0.000 F 
ATOM     15  C   UNL     1      -0.363  10.036  20.549  0.00  0.00    +0.000 A 
ATOM     16  C   UNL     1      -0.713  11.334  20.919  0.00  0.00    +0.000 A 
ATOM     17  F   UNL     1      -0.865  12.230  19.934  0.00  0.00    +0.000 F 
ENDBRANCH   5  10
BRANCH   6  18
ATOM     18  C   UNL     1      -3.838  12.979  22.837  0.00  0.00    +0.000 A 
ATOM     19  C   UNL     1      -4.065  12.868  21.461  0.00  0.00    +0.000 A 
ATOM     20  C   UNL     1      -5.334  12.533  20.995  0.00  0.00    +0.000 A 
ATOM     21  C   UNL     1      -6.345  12.329  21.919  0.00  0.00    +0.000 A 
ATOM     22  N   UNL     1      -6.172  12.442  23.251  0.00  0.00    +0.000 NA
ATOM     23  C   UNL     1      -4.934  12.771  23.678  0.00  0.00    +0.000 A 
ENDBRANCH   6  18
BRANCH   1  24
ATOM     24  N   UNL     1       0.402  16.837  21.602  0.00  0.00    +0.000 N 
ATOM     25  H   UNL     1       1.308  16.773  22.073  0.00  0.00    +0.000 HD
BRANCH  24  30
ATOM     26  C   UNL     1       0.795  18.405  16.109  0.00  0.00    +0.000 C 
ATOM     27  C   UNL     1       0.681  17.958  17.535  0.00  0.00    +0.000 A 
ATOM     28  C   UNL     1       1.768  17.391  18.206  0.00  0.00    +0.000 A 
ATOM     29  C   UNL     1       1.646  16.992  19.540  0.00  0.00    +0.000 A 
ATOM     30  C   UNL     1       0.443  17.155  20.237  0.00  0.00    +0.000 A 
ATOM     31  C   UNL     1      -0.641  17.722  19.557  0.00  0.00    +0.000 A 
ATOM     32  C   UNL     1      -0.528  18.110  18.219  0.00  0.00    +0.000 A 
ENDBRANCH  24  30
ENDBRANCH   1  24
TORSDOF 4
ENDMDL
MODEL 3
REMARK VINA RESULT:      -7.7      0.836      1.209
REMARK  Name = 
REMARK  5 active torsions:
REMARK  status: ('A' for Active; 'I' for Inactive)
REMARK    1  A    between atoms: C_1  and  C_2
REMARK    2  A    between atoms: C_5  and  N_6
REMARK    3  A    between atoms: N_6  and  C_7
REMARK    4  A    between atoms: N_11  and  C_12
REMARK    5  A    between atoms: C_20  and  C_21
REMARK                            x       y       z     vdW  Elec       q    Type
REMARK                         _______ _______ _______ _____ _____    ______ ____
ROOT
ATOM      1  C   UNL     1       0.180   9.287  19.241  0.00  0.00    +0.000 C 
ATOM      2  C   UNL     1       1.228   8.497  19.478  0.00  0.00    +0.000 C 
ATOM      3  C   UNL     1       2.180   8.057  18.451  0.00  0.00    +0.000 C 
ATOM      4  O   UNL     1       2.343   8.707  17.425  0.00  0.00    +0.000 OA
ATOM      5  N   UNL     1       2.802   6.854  18.814  0.00  0.00    +0.000 N 
ATOM      6  C   UNL     1       2.653   6.522  20.244  0.00  0.00    +0.000 C 
ATOM      7  S   UNL     1       1.466   7.727  20.986  0.00  0.00    +0.000 S 
ATOM      8  O   UNL     1       2.190   8.612  21.881  0.00  0.00    +0.000 OA
ATOM      9  O   UNL     1       0.227   7.099  21.405  0.00  0.00    +0.000 OA
ENDROOT
BRANCH   5  10
ATOM     10  C   UNL     1       3.654   6.125  17.917  0.00  0.00    +0.000 A 
ATOM     11  C   UNL     1       4.957   6.584  17.646  0.00  0.00    +0.000 A 
ATOM     12  C   UNL     1       5.815   5.894  16.787  0.00  0.00    +0.000 A 
ATOM     13  C   UNL     1       5.371   4.743  16.158  0.00  0.00    +0.000 A 
ATOM     14  F   UNL     1       6.193   4.078  15.341  0.00  0.00    +0.000 F 
ATOM     15  C   UNL     1       4.083   4.276  16.370  0.00  0.00    +0.000 A 
ATOM     16  C   UNL     1       3.241   4.959  17.246  0.00  0.00    +0.000 A 
ATOM     17  F   UNL     1       2.025   4.436  17.458  0.00  0.00    +0.000 F 
ENDBRANCH   5  10
BRANCH   6  18
ATOM     18  C   UNL     1       2.150   5.143  20.593  0.00  0.00    +0.000 A 
ATOM     19  C   UNL     1       1.046   4.538  19.985  0.00  0.00    +0.000 A 
ATOM     20  C   UNL     1       0.654   3.261  20.379  0.00  0.00    +0.000 A 
ATOM     21  C   UNL     1       1.371   2.629  21.380  0.00  0.00    +0.000 A 
ATOM     22  N   UNL     1       2.430   3.184  22.003  0.00  0.00    +0.000 NA
ATOM     23  C   UNL     1       2.789   4.423  21.606  0.00  0.00    +0.000 A 
ENDBRANCH   6  18
BRANCH   1  24
ATOM     24  N   UNL     1      -0.146   9.904  18.054  0.00  0.00    +0.000 N 
ATOM     25  H   UNL     1       0.597   9.948  17.352  0.00  0.00    +0.000 HD
BRANCH  24  30
ATOM     26  C   UNL     1      -5.336  11.968  16.794  0.00  0.00    +0.000 C 
ATOM     27  C   UNL     1      -3.961  11.457  17.102  0.00  0.00    +0.000 A 
ATOM     28  C   UNL     1      -3.245  11.923  18.208  0.00  0.00    +0.000 A 
ATOM     29  C   UNL     1      -1.969  11.425  18.486  0.00  0.00    +0.000 A 
ATOM     30  C   UNL     1      -1.381  10.448  17.674  0.00  0.00    +0.000 A 
ATOM     31  C   UNL     1      -2.104   9.988  16.568  0.00  0.00    +0.000 A 
ATOM     32  C   UNL     1      -3.375  10.492  16.278  0.00  0.00    +0.000 A 
ENDBRANCH  24  30
ENDBRANCH   1  24
TORSDOF 4
ENDMDL
MODEL 4
REMARK VINA RESULT:      -7.6      4.219      8.524
REMARK  Name = 
REMARK  5 active torsions:
REMARK  status: ('A' for Active; 'I' for Inactive)
REMARK    1  A    between atoms: C_1  and  C_2
REMARK    2  A    between atoms: C_5  and  N_6
REMARK    3  A    between atoms: N_6  and  C_7
REMARK    4  A    between atoms: N_11  and  C_12
REMARK    5  A    between atoms: C_20  and  C_21
REMARK                            x       y       z     vdW  Elec       q    Type
REMARK                         _______ _______ _______ _____ _____    ______ ____
ROOT
ATOM      1  C   UNL     1       1.281   9.158  18.276  0.00  0.00    +0.000 C 
ATOM      2  C   UNL     1       0.797  10.396  18.389  0.00  0.00    +0.000 C 
ATOM      3  C   UNL     1       1.626  11.608  18.408  0.00  0.00    +0.000 C 
ATOM      4  O   UNL     1       2.740  11.616  17.897  0.00  0.00    +0.000 OA
ATOM      5  N   UNL     1       0.978  12.658  19.073  0.00  0.00    +0.000 N 
ATOM      6  C   UNL     1      -0.470  12.435  19.256  0.00  0.00    +0.000 C 
ATOM      7  S   UNL     1      -0.848  10.703  18.738  0.00  0.00    +0.000 S 
ATOM      8  O   UNL     1      -1.614  10.735  17.505  0.00  0.00    +0.000 OA
ATOM      9  O   UNL     1      -1.265   9.870  19.850  0.00  0.00    +0.000 OA
ENDROOT
BRANCH   5  10
ATOM     10  C   UNL     1       1.631  13.901  19.374  0.00  0.00    +0.000 A 
ATOM     11  C   UNL     1       1.317  15.062  18.642  0.00  0.00    +0.000 A 
ATOM     12  C   UNL     1       1.926  16.288  18.915  0.00  0.00    +0.000 A 
ATOM     13  C   UNL     1       2.886  16.368  19.910  0.00  0.00    +0.000 A 
ATOM     14  F   UNL     1       3.464  17.544  20.177  0.00  0.00    +0.000 F 
ATOM     15  C   UNL     1       3.249  15.242  20.631  0.00  0.00    +0.000 A 
ATOM     16  C   UNL     1       2.620  14.026  20.367  0.00  0.00    +0.000 A 
ATOM     17  F   UNL     1       2.968  12.979  21.128  0.00  0.00    +0.000 F 
ENDBRANCH   5  10
BRANCH   6  18
ATOM     18  C   UNL     1      -1.035  12.609  20.643  0.00  0.00    +0.000 A 
ATOM     19  C   UNL     1      -2.288  13.170  20.910  0.00  0.00    +0.000 A 
ATOM     20  C   UNL     1      -2.724  13.294  22.227  0.00  0.00    +0.000 A 
ATOM     21  C   UNL     1      -1.887  12.862  23.243  0.00  0.00    +0.000 A 
ATOM     22  N   UNL     1      -0.667  12.332  23.029  0.00  0.00    +0.000 NA
ATOM     23  C   UNL     1      -0.266  12.226  21.744  0.00  0.00    +0.000 A 
ENDBRANCH   6  18
BRANCH   1  24
ATOM     24  N   UNL     1       2.591   8.792  18.061  0.00  0.00    +0.000 N 
ATOM     25  H   UNL     1       3.278   9.552  18.073  0.00  0.00    +0.000 HD
BRANCH  24  30
ATOM     26  C   UNL     1       4.640   3.571  16.911  0.00  0.00    +0.000 C 
ATOM     27  C   UNL     1       4.124   4.938  17.246  0.00  0.00    +0.000 A 
ATOM     28  C   UNL     1       4.815   6.088  16.857  0.00  0.00    +0.000 A 
ATOM     29  C   UNL     1       4.311   7.355  17.168  0.00  0.00    +0.000 A 
ATOM     30  C   UNL     1       3.107   7.504  17.866  0.00  0.00    +0.000 A 
ATOM     31  C   UNL     1       2.423   6.346  18.253  0.00  0.00    +0.000 A 
ATOM     32  C   UNL     1       2.929   5.077  17.956  0.00  0.00    +0.000 A 
ENDBRANCH  24  30
ENDBRANCH   1  24
TORSDOF 4
ENDMDL
MODEL 5
REMARK VINA RESULT:      -7.6      4.378      8.592
REMARK  Name = 
REMARK  5 active torsions:
REMARK  status: ('A' for Active; 'I' for Inactive)
REMARK    1  A    between atoms: C_1  and  C_2
REMARK    2  A    between atoms: C_5  and  N_6
REMARK    3  A    between atoms: N_6  and  C_7
REMARK    4  A    between atoms: N_11  and  C_12
REMARK    5  A    between atoms: C_20  and  C_21
REMARK                            x       y       z     vdW  Elec       q    Type
REMARK                         _______ _______ _______ _____ _____    ______ ____
ROOT
ATOM      1  C   UNL     1       1.071   9.264  17.950  0.00  0.00    +0.000 C 
ATOM      2  C   UNL     1       0.595  10.473  18.251  0.00  0.00    +0.000 C 
ATOM      3  C   UNL     1       1.434  11.644  18.536  0.00  0.00    +0.000 C 
ATOM      4  O   UNL     1       2.578  11.717  18.104  0.00  0.00    +0.000 OA
ATOM      5  N   UNL     1       0.756  12.574  19.336  0.00  0.00    +0.000 N 
ATOM      6  C   UNL     1      -0.702  12.355  19.388  0.00  0.00    +0.000 C 
ATOM      7  S   UNL     1      -1.066  10.750  18.548  0.00  0.00    +0.000 S 
ATOM      8  O   UNL     1      -1.751  11.016  17.296  0.00  0.00    +0.000 OA
ATOM      9  O   UNL     1      -1.562   9.743  19.467  0.00  0.00    +0.000 OA
ENDROOT
BRANCH   5  10
ATOM     10  C   UNL     1       1.403  13.729  19.893  0.00  0.00    +0.000 A 
ATOM     11  C   UNL     1       2.324  13.586  20.948  0.00  0.00    +0.000 A 
ATOM     12  C   UNL     1       2.977  14.686  21.506  0.00  0.00    +0.000 A 
ATOM     13  C   UNL     1       2.697  15.958  21.035  0.00  0.00    +0.000 A 
ATOM     14  F   UNL     1       3.328  17.012  21.563  0.00  0.00    +0.000 F 
ATOM     15  C   UNL     1       1.771  16.146  20.021  0.00  0.00    +0.000 A 
ATOM     16  C   UNL     1       1.139  15.040  19.455  0.00  0.00    +0.000 A 
ATOM     17  F   UNL     1       0.293  15.270  18.441  0.00  0.00    +0.000 F 
ENDBRANCH   5  10
BRANCH   6  18
ATOM     18  C   UNL     1      -1.354  12.293  20.747  0.00  0.00    +0.000 A 
ATOM     19  C   UNL     1      -0.735  11.767  21.885  0.00  0.00    +0.000 A 
ATOM     20  C   UNL     1      -1.420  11.749  23.098  0.00  0.00    +0.000 A 
ATOM     21  C   UNL     1      -2.711  12.249  23.135  0.00  0.00    +0.000 A 
ATOM     22  N   UNL     1      -3.348  12.749  22.058  0.00  0.00    +0.000 NA
ATOM     23  C   UNL     1      -2.665  12.752  20.893  0.00  0.00    +0.000 A 
ENDBRANCH   6  18
BRANCH   1  24
ATOM     24  N   UNL     1       2.388   8.913  17.754  0.00  0.00    +0.000 N 
ATOM     25  H   UNL     1       3.003   9.653  17.404  0.00  0.00    +0.000 HD
BRANCH  24  30
ATOM     26  C   UNL     1       5.020   4.011  19.107  0.00  0.00    +0.000 C 
ATOM     27  C   UNL     1       4.306   5.274  18.730  0.00  0.00    +0.000 A 
ATOM     28  C   UNL     1       3.218   5.740  19.472  0.00  0.00    +0.000 A 
ATOM     29  C   UNL     1       2.572   6.927  19.112  0.00  0.00    +0.000 A 
ATOM     30  C   UNL     1       3.000   7.678  18.011  0.00  0.00    +0.000 A 
ATOM     31  C   UNL     1       4.090   7.203  17.273  0.00  0.00    +0.000 A 
ATOM     32  C   UNL     1       4.730   6.010  17.621  0.00  0.00    +0.000 A 
ENDBRANCH  24  30
ENDBRANCH   1  24
TORSDOF 4
ENDMDL
MODEL 6
REMARK VINA RESULT:      -7.5      4.276      8.543
REMARK  Name = 
REMARK  5 active torsions:
REMARK  status: ('A' for Active; 'I' for Inactive)
REMARK    1  A    between atoms: C_1  and  C_2
REMARK    2  A    between atoms: C_5  and  N_6
REMARK    3  A    between atoms: N_6  and  C_7
REMARK    4  A    between atoms: N_11  and  C_12
REMARK    5  A    between atoms: C_20  and  C_21
REMARK                            x       y       z     vdW  Elec       q    Type
REMARK                         _______ _______ _______ _____ _____    ______ ____
ROOT
ATOM      1  C   UNL     1       1.307   9.039  18.285  0.00  0.00    +0.000 C 
ATOM      2  C   UNL     1       0.789  10.261  18.416  0.00  0.00    +0.000 C 
ATOM      3  C   UNL     1       1.584  11.495  18.464  0.00  0.00    +0.000 C 
ATOM      4  O   UNL     1       2.701  11.542  17.963  0.00  0.00    +0.000 OA
ATOM      5  N   UNL     1       0.901  12.514  19.143  0.00  0.00    +0.000 N 
ATOM      6  C   UNL     1      -0.541  12.248  19.308  0.00  0.00    +0.000 C 
ATOM      7  S   UNL     1      -0.867  10.517  18.756  0.00  0.00    +0.000 S 
ATOM      8  O   UNL     1      -1.624  10.550  17.517  0.00  0.00    +0.000 OA
ATOM      9  O   UNL     1      -1.271   9.652  19.849  0.00  0.00    +0.000 OA
ENDROOT
BRANCH   5  10
ATOM     10  C   UNL     1       1.518  13.768  19.472  0.00  0.00    +0.000 A 
ATOM     11  C   UNL     1       2.677  13.800  20.271  0.00  0.00    +0.000 A 
ATOM     12  C   UNL     1       3.308  15.001  20.602  0.00  0.00    +0.000 A 
ATOM     13  C   UNL     1       2.770  16.199  20.161  0.00  0.00    +0.000 A 
ATOM     14  F   UNL     1       3.377  17.349  20.471  0.00  0.00    +0.000 F 
ATOM     15  C   UNL     1       1.611  16.214  19.401  0.00  0.00    +0.000 A 
ATOM     16  C   UNL     1       1.000  15.009  19.058  0.00  0.00    +0.000 A 
ATOM     17  F   UNL     1      -0.087  15.075  18.277  0.00  0.00    +0.000 F 
ENDBRANCH   5  10
BRANCH   6  18
ATOM     18  C   UNL     1      -1.122  12.382  20.694  0.00  0.00    +0.000 A 
ATOM     19  C   UNL     1      -2.417  12.840  20.955  0.00  0.00    +0.000 A 
ATOM     20  C   UNL     1      -2.865  12.934  22.271  0.00  0.00    +0.000 A 
ATOM     21  C   UNL     1      -2.000  12.576  23.290  0.00  0.00    +0.000 A 
ATOM     22  N   UNL     1      -0.739  12.145  23.082  0.00  0.00    +0.000 NA
ATOM     23  C   UNL     1      -0.327  12.066  21.798  0.00  0.00    +0.000 A 
ENDBRANCH   6  18
BRANCH   1  24
ATOM     24  N   UNL     1       2.629   8.713  18.075  0.00  0.00    +0.000 N 
ATOM     25  H   UNL     1       3.296   9.487  18.130  0.00  0.00    +0.000 HD
BRANCH  24  30
ATOM     26  C   UNL     1       4.806   3.589  16.737  0.00  0.00    +0.000 C 
ATOM     27  C   UNL     1       4.257   4.930  17.121  0.00  0.00    +0.000 A 
ATOM     28  C   UNL     1       4.909   6.111  16.757  0.00  0.00    +0.000 A 
ATOM     29  C   UNL     1       4.375   7.353  17.114  0.00  0.00    +0.000 A 
ATOM     30  C   UNL     1       3.177   7.446  17.833  0.00  0.00    +0.000 A 
ATOM     31  C   UNL     1       2.532   6.258  18.195  0.00  0.00    +0.000 A 
ATOM     32  C   UNL     1       3.069   5.014  17.852  0.00  0.00    +0.000 A 
ENDBRANCH  24  30
ENDBRANCH   1  24
TORSDOF 4
ENDMDL
MODEL 7
REMARK VINA RESULT:      -7.5      3.899      9.226
REMARK  Name = 
REMARK  5 active torsions:
REMARK  status: ('A' for Active; 'I' for Inactive)
REMARK    1  A    between atoms: C_1  and  C_2
REMARK    2  A    between atoms: C_5  and  N_6
REMARK    3  A    between atoms: N_6  and  C_7
REMARK    4  A    between atoms: N_11  and  C_12
REMARK    5  A    between atoms: C_20  and  C_21
REMARK                            x       y       z     vdW  Elec       q    Type
REMARK                         _______ _______ _______ _____ _____    ______ ____
ROOT
ATOM      1  C   UNL     1       1.449   9.919  19.372  0.00  0.00    +0.000 C 
ATOM      2  C   UNL     1       0.357  10.588  19.746  0.00  0.00    +0.000 C 
ATOM      3  C   UNL     1      -0.965  10.422  19.129  0.00  0.00    +0.000 C 
ATOM      4  O   UNL     1      -1.262   9.384  18.549  0.00  0.00    +0.000 OA
ATOM      5  N   UNL     1      -1.752  11.570  19.293  0.00  0.00    +0.000 N 
ATOM      6  C   UNL     1      -1.241  12.491  20.327  0.00  0.00    +0.000 C 
ATOM      7  S   UNL     1       0.418  11.882  20.862  0.00  0.00    +0.000 S 
ATOM      8  O   UNL     1       0.319  11.368  22.217  0.00  0.00    +0.000 OA
ATOM      9  O   UNL     1       1.488  12.787  20.488  0.00  0.00    +0.000 OA
ENDROOT
BRANCH   5  10
ATOM     10  C   UNL     1      -3.024  11.733  18.647  0.00  0.00    +0.000 A 
ATOM     11  C   UNL     1      -4.162  12.079  19.401  0.00  0.00    +0.000 A 
ATOM     12  C   UNL     1      -5.412  12.254  18.804  0.00  0.00    +0.000 A 
ATOM     13  C   UNL     1      -5.552  12.056  17.440  0.00  0.00    +0.000 A 
ATOM     14  F   UNL     1      -6.746  12.231  16.866  0.00  0.00    +0.000 F 
ATOM     15  C   UNL     1      -4.464  11.681  16.668  0.00  0.00    +0.000 A 
ATOM     16  C   UNL     1      -3.215  11.529  17.269  0.00  0.00    +0.000 A 
ATOM     17  F   UNL     1      -2.185  11.219  16.469  0.00  0.00    +0.000 F 
ENDBRANCH   5  10
BRANCH   6  18
ATOM     18  C   UNL     1      -1.073  13.942  19.951  0.00  0.00    +0.000 A 
ATOM     19  C   UNL     1      -0.394  14.378  18.809  0.00  0.00    +0.000 A 
ATOM     20  C   UNL     1      -0.286  15.742  18.548  0.00  0.00    +0.000 A 
ATOM     21  C   UNL     1      -0.852  16.633  19.444  0.00  0.00    +0.000 A 
ATOM     22  N   UNL     1      -1.500  16.255  20.564  0.00  0.00    +0.000 NA
ATOM     23  C   UNL     1      -1.588  14.928  20.797  0.00  0.00    +0.000 A 
ENDBRANCH   6  18
BRANCH   1  24
ATOM     24  N   UNL     1       1.528   8.909  18.440  0.00  0.00    +0.000 N 
ATOM     25  H   UNL     1       0.907   8.993  17.632  0.00  0.00    +0.000 HD
BRANCH  24  30
ATOM     26  C   UNL     1       5.183   4.511  18.739  0.00  0.00    +0.000 C 
ATOM     27  C   UNL     1       4.201   5.639  18.641  0.00  0.00    +0.000 A 
ATOM     28  C   UNL     1       3.215   5.829  19.613  0.00  0.00    +0.000 A 
ATOM     29  C   UNL     1       2.316   6.895  19.511  0.00  0.00    +0.000 A 
ATOM     30  C   UNL     1       2.383   7.798  18.443  0.00  0.00    +0.000 A 
ATOM     31  C   UNL     1       3.372   7.599  17.473  0.00  0.00    +0.000 A 
ATOM     32  C   UNL     1       4.265   6.528  17.564  0.00  0.00    +0.000 A 
ENDBRANCH  24  30
ENDBRANCH   1  24
TORSDOF 4
ENDMDL
MODEL 8
REMARK VINA RESULT:      -7.4      4.327      8.646
REMARK  Name = 
REMARK  5 active torsions:
REMARK  status: ('A' for Active; 'I' for Inactive)
REMARK    1  A    between atoms: C_1  and  C_2
REMARK    2  A    between atoms: C_5  and  N_6
REMARK    3  A    between atoms: N_6  and  C_7
REMARK    4  A    between atoms: N_11  and  C_12
REMARK    5  A    between atoms: C_20  and  C_21
REMARK                            x       y       z     vdW  Elec       q    Type
REMARK                         _______ _______ _______ _____ _____    ______ ____
ROOT
ATOM      1  C   UNL     1       1.135   9.300  18.141  0.00  0.00    +0.000 C 
ATOM      2  C   UNL     1       0.689  10.549  18.289  0.00  0.00    +0.000 C 
ATOM      3  C   UNL     1       1.557  11.730  18.379  0.00  0.00    +0.000 C 
ATOM      4  O   UNL     1       2.685  11.719  17.901  0.00  0.00    +0.000 OA
ATOM      5  N   UNL     1       0.925  12.775  19.067  0.00  0.00    +0.000 N 
ATOM      6  C   UNL     1      -0.534  12.595  19.199  0.00  0.00    +0.000 C 
ATOM      7  S   UNL     1      -0.954  10.898  18.603  0.00  0.00    +0.000 S 
ATOM      8  O   UNL     1      -1.682  11.004  17.351  0.00  0.00    +0.000 OA
ATOM      9  O   UNL     1      -1.431  10.038  19.670  0.00  0.00    +0.000 OA
ENDROOT
BRANCH   5  10
ATOM     10  C   UNL     1       1.610  13.982  19.434  0.00  0.00    +0.000 A 
ATOM     11  C   UNL     1       1.369  15.177  18.729  0.00  0.00    +0.000 A 
ATOM     12  C   UNL     1       2.010  16.370  19.066  0.00  0.00    +0.000 A 
ATOM     13  C   UNL     1       2.930  16.382  20.101  0.00  0.00    +0.000 A 
ATOM     14  F   UNL     1       3.540  17.526  20.430  0.00  0.00    +0.000 F 
ATOM     15  C   UNL     1       3.222  15.221  20.799  0.00  0.00    +0.000 A 
ATOM     16  C   UNL     1       2.561  14.038  20.469  0.00  0.00    +0.000 A 
ATOM     17  F   UNL     1       2.839  12.956  21.209  0.00  0.00    +0.000 F 
ENDBRANCH   5  10
BRANCH   6  18
ATOM     18  C   UNL     1      -1.134  12.735  20.576  0.00  0.00    +0.000 A 
ATOM     19  C   UNL     1      -0.509  12.297  21.747  0.00  0.00    +0.000 A 
ATOM     20  C   UNL     1      -1.145  12.466  22.975  0.00  0.00    +0.000 A 
ATOM     21  C   UNL     1      -2.396  13.059  22.995  0.00  0.00    +0.000 A 
ATOM     22  N   UNL     1      -3.040  13.480  21.887  0.00  0.00    +0.000 NA
ATOM     23  C   UNL     1      -2.404  13.302  20.710  0.00  0.00    +0.000 A 
ENDBRANCH   6  18
BRANCH   1  24
ATOM     24  N   UNL     1       2.438   8.898  17.949  0.00  0.00    +0.000 N 
ATOM     25  H   UNL     1       3.090   9.621  17.633  0.00  0.00    +0.000 HD
BRANCH  24  30
ATOM     26  C   UNL     1       4.845   3.844  19.153  0.00  0.00    +0.000 C 
ATOM     27  C   UNL     1       4.188   5.148  18.815  0.00  0.00    +0.000 A 
ATOM     28  C   UNL     1       3.142   5.655  19.591  0.00  0.00    +0.000 A 
ATOM     29  C   UNL     1       2.550   6.879  19.267  0.00  0.00    +0.000 A 
ATOM     30  C   UNL     1       2.991   7.629  18.170  0.00  0.00    +0.000 A 
ATOM     31  C   UNL     1       4.038   7.113  17.398  0.00  0.00    +0.000 A 
ATOM     32  C   UNL     1       4.625   5.883  17.710  0.00  0.00    +0.000 A 
ENDBRANCH  24  30
ENDBRANCH   1  24
TORSDOF 4
ENDMDL
MODEL 9
REMARK VINA RESULT:      -7.4      4.880      9.759
REMARK  Name = 
REMARK  5 active torsions:
REMARK  status: ('A' for Active; 'I' for Inactive)
REMARK    1  A    between atoms: C_1  and  C_2
REMARK    2  A    between atoms: C_5  and  N_6
REMARK    3  A    between atoms: N_6  and  C_7
REMARK    4  A    between atoms: N_11  and  C_12
REMARK    5  A    between atoms: C_20  and  C_21
REMARK                            x       y       z     vdW  Elec       q    Type
REMARK                         _______ _______ _______ _____ _____    ______ ____
ROOT
ATOM      1  C   UNL     1       1.938  11.277  18.666  0.00  0.00    +0.000 C 
ATOM      2  C   UNL     1       1.345  11.997  19.621  0.00  0.00    +0.000 C 
ATOM      3  C   UNL     1       0.031  11.683  20.196  0.00  0.00    +0.000 C 
ATOM      4  O   UNL     1      -0.410  10.540  20.169  0.00  0.00    +0.000 OA
ATOM      5  N   UNL     1      -0.582  12.830  20.720  0.00  0.00    +0.000 N 
ATOM      6  C   UNL     1       0.348  13.960  20.911  0.00  0.00    +0.000 C 
ATOM      7  S   UNL     1       1.964  13.503  20.142  0.00  0.00    +0.000 S 
ATOM      8  O   UNL     1       2.945  13.295  21.192  0.00  0.00    +0.000 OA
ATOM      9  O   UNL     1       2.277  14.319  18.984  0.00  0.00    +0.000 OA
ENDROOT
BRANCH   5  10
ATOM     10  C   UNL     1      -1.937  12.831  21.194  0.00  0.00    +0.000 A 
ATOM     11  C   UNL     1      -3.003  13.016  20.293  0.00  0.00    +0.000 A 
ATOM     12  C   UNL     1      -4.333  13.013  20.718  0.00  0.00    +0.000 A 
ATOM     13  C   UNL     1      -4.619  12.854  22.064  0.00  0.00    +0.000 A 
ATOM     14  F   UNL     1      -5.892  12.843  22.472  0.00  0.00    +0.000 F 
ATOM     15  C   UNL     1      -3.598  12.703  22.989  0.00  0.00    +0.000 A 
ATOM     16  C   UNL     1      -2.274  12.686  22.552  0.00  0.00    +0.000 A 
ATOM     17  F   UNL     1      -1.327  12.483  23.479  0.00  0.00    +0.000 F 
ENDBRANCH   5  10
BRANCH   6  18
ATOM     18  C   UNL     1      -0.048  15.296  20.334  0.00  0.00    +0.000 A 
ATOM     19  C   UNL     1      -0.458  15.484  19.010  0.00  0.00    +0.000 A 
ATOM     20  C   UNL     1      -0.800  16.759  18.567  0.00  0.00    +0.000 A 
ATOM     21  C   UNL     1      -0.710  17.815  19.459  0.00  0.00    +0.000 A 
ATOM     22  N   UNL     1      -0.303  17.679  20.737  0.00  0.00    +0.000 NA
ATOM     23  C   UNL     1       0.026  16.434  21.142  0.00  0.00    +0.000 A 
ENDBRANCH   6  18
BRANCH   1  24
ATOM     24  N   UNL     1       1.499  10.089  18.126  0.00  0.00    +0.000 N 
ATOM     25  H   UNL     1       0.743  10.159  17.440  0.00  0.00    +0.000 HD
BRANCH  24  30
ATOM     26  C   UNL     1       3.696   4.953  19.383  0.00  0.00    +0.000 C 
ATOM     27  C   UNL     1       3.090   6.280  19.038  0.00  0.00    +0.000 A 
ATOM     28  C   UNL     1       2.233   6.938  19.925  0.00  0.00    +0.000 A 
ATOM     29  C   UNL     1       1.687   8.180  19.590  0.00  0.00    +0.000 A 
ATOM     30  C   UNL     1       1.986   8.797  18.369  0.00  0.00    +0.000 A 
ATOM     31  C   UNL     1       2.844   8.131  17.487  0.00  0.00    +0.000 A 
ATOM     32  C   UNL     1       3.382   6.882  17.812  0.00  0.00    +0.000 A 
ENDBRANCH  24  30
ENDBRANCH   1  24
TORSDOF 4
ENDMDL
