MODEL 1
REMARK VINA RESULT:      -8.3      0.000      0.000
REMARK  Name = 
REMARK  11 active torsions:
REMARK  status: ('A' for Active; 'I' for Inactive)
REMARK    1  A    between atoms: C_1  and  C_2
REMARK    2  A    between atoms: C_2  and  N_3
REMARK    3  A    between atoms: N_3  and  C_4
REMARK    4  A    between atoms: N_3  and  C_6
REMARK    5  A    between atoms: C_4  and  C_5
REMARK    6  A    between atoms: C_6  and  C_7
REMARK    7  A    between atoms: C_6  and  C_19
REMARK    8  A    between atoms: N_9  and  C_10
REMARK    9  A    between atoms: C_13  and  C_14
REMARK   10  A    between atoms: C_14  and  C_15
REMARK   11  A    between atoms: C_14  and  C_16
REMARK                            x       y       z     vdW  Elec       q    Type
REMARK                         _______ _______ _______ _____ _____    ______ ____
ROOT
ATOM      1  C   UNL     1       3.657   4.064  18.617  0.00  0.00    +0.000 C 
ENDROOT
BRANCH   1   2
ATOM      2  C   UNL     1       4.957   4.511  17.969  0.00  0.00    +0.000 A 
ATOM      3  C   UNL     1       6.237   4.718  18.527  0.00  0.00    +0.000 A 
ATOM      4  C   UNL     1       7.322   4.976  17.662  0.00  0.00    +0.000 A 
ATOM      5  C   UNL     1       7.031   5.214  16.328  0.00  0.00    +0.000 A 
ATOM      6  C   UNL     1       5.755   5.426  15.904  0.00  0.00    +0.000 A 
ATOM      7  C   UNL     1       4.779   4.817  16.614  0.00  0.00    +0.000 A 
ATOM      8  O   UNL     1       5.644   5.651  14.569  0.00  0.00    +0.000 OA
ATOM      9  C   UNL     1       6.738   4.812  14.214  0.00  0.00    +0.000 C 
ATOM     10  O   UNL     1       7.793   4.892  15.224  0.00  0.00    +0.000 OA
ENDBRANCH   1   2
BRANCH   1  11
ATOM     11  C   UNL     1       2.645   5.260  18.518  0.00  0.00    +0.000 C 
ATOM     12  O   UNL     1       1.605   5.143  17.874  0.00  0.00    +0.000 OA
ATOM     13  N   UNL     1       3.047   6.429  19.128  0.00  0.00    +0.000 N 
ATOM     14  H   UNL     1       4.056   6.535  19.242  0.00  0.00    +0.000 HD
BRANCH  13  15
ATOM     15  C   UNL     1       2.279   7.605  19.118  0.00  0.00    +0.000 A 
ATOM     16  C   UNL     1       2.122   8.357  17.965  0.00  0.00    +0.000 A 
ATOM     17  C   UNL     1       1.345   9.521  17.973  0.00  0.00    +0.000 A 
ATOM     18  C   UNL     1       0.719   9.925  19.176  0.00  0.00    +0.000 A 
ATOM     19  C   UNL     1       0.894   9.178  20.318  0.00  0.00    +0.000 A 
ATOM     20  C   UNL     1       1.651   7.982  20.294  0.00  0.00    +0.000 A 
BRANCH  18  21
ATOM     21  C   UNL     1      -0.189  11.163  19.156  0.00  0.00    +0.000 C 
ATOM     22  C   UNL     1      -1.405  10.927  18.255  0.00  0.00    +0.000 C 
ATOM     23  C   UNL     1      -0.637  11.577  20.560  0.00  0.00    +0.000 C 
ENDBRANCH  18  21
ENDBRANCH  13  15
ENDBRANCH   1  11
BRANCH   1  24
ATOM     24  N   UNL     1       3.656   3.456  19.974  0.00  0.00    +0.000 NA
BRANCH  24  26
ATOM     25  C   UNL     1       1.892   2.623  21.604  0.00  0.00    +0.000 C 
ATOM     26  C   UNL     1       2.294   3.652  20.557  0.00  0.00    +0.000 C 
ENDBRANCH  24  26
BRANCH  24  27
ATOM     27  C   UNL     1       4.013   2.020  19.963  0.00  0.00    +0.000 C 
ATOM     28  C   UNL     1       3.785   1.222  18.675  0.00  0.00    +0.000 C 
ENDBRANCH  24  27
ENDBRANCH   1  24
TORSDOF 7
ENDMDL
MODEL 2
REMARK VINA RESULT:      -8.2      0.437      1.193
REMARK  Name = 
REMARK  11 active torsions:
REMARK  status: ('A' for Active; 'I' for Inactive)
REMARK    1  A    between atoms: C_1  and  C_2
REMARK    2  A    between atoms: C_2  and  N_3
REMARK    3  A    between atoms: N_3  and  C_4
REMARK    4  A    between atoms: N_3  and  C_6
REMARK    5  A    between atoms: C_4  and  C_5
REMARK    6  A    between atoms: C_6  and  C_7
REMARK    7  A    between atoms: C_6  and  C_19
REMARK    8  A    between atoms: N_9  and  C_10
REMARK    9  A    between atoms: C_13  and  C_14
REMARK   10  A    between atoms: C_14  and  C_15
REMARK   11  A    between atoms: C_14  and  C_16
REMARK                            x       y       z     vdW  Elec       q    Type
REMARK                         _______ _______ _______ _____ _____    ______ ____
ROOT
ATOM      1  C   UNL     1       3.492   3.994  18.525  0.00  0.00    +0.000 C 
ENDROOT
BRANCH   1   2
ATOM      2  C   UNL     1       4.818   4.438  17.929  0.00  0.00    +0.000 A 
ATOM      3  C   UNL     1       6.050   4.735  18.551  0.00  0.00    +0.000 A 
ATOM      4  C   UNL     1       7.182   4.964  17.741  0.00  0.00    +0.000 A 
ATOM      5  C   UNL     1       6.976   5.086  16.375  0.00  0.00    +0.000 A 
ATOM      6  C   UNL     1       5.726   5.217  15.854  0.00  0.00    +0.000 A 
ATOM      7  C   UNL     1       4.723   4.630  16.545  0.00  0.00    +0.000 A 
ATOM      8  O   UNL     1       5.698   5.332  14.501  0.00  0.00    +0.000 OA
ATOM      9  C   UNL     1       6.840   4.508  14.287  0.00  0.00    +0.000 C 
ATOM     10  O   UNL     1       7.821   4.707  15.354  0.00  0.00    +0.000 OA
ENDBRANCH   1   2
BRANCH   1  11
ATOM     11  C   UNL     1       2.520   5.227  18.479  0.00  0.00    +0.000 C 
ATOM     12  O   UNL     1       1.480   5.174  17.827  0.00  0.00    +0.000 OA
ATOM     13  N   UNL     1       2.957   6.351  19.146  0.00  0.00    +0.000 N 
ATOM     14  H   UNL     1       3.968   6.419  19.268  0.00  0.00    +0.000 HD
BRANCH  13  15
ATOM     15  C   UNL     1       2.227   7.551  19.188  0.00  0.00    +0.000 A 
ATOM     16  C   UNL     1       1.605   7.980  20.349  0.00  0.00    +0.000 A 
ATOM     17  C   UNL     1       0.891   9.183  20.373  0.00  0.00    +0.000 A 
ATOM     18  C   UNL     1       0.806   9.960  19.193  0.00  0.00    +0.000 A 
ATOM     19  C   UNL     1       1.415   9.516  18.042  0.00  0.00    +0.000 A 
ATOM     20  C   UNL     1       2.167   8.317  18.034  0.00  0.00    +0.000 A 
BRANCH  18  21
ATOM     21  C   UNL     1       0.081  11.312  19.250  0.00  0.00    +0.000 C 
ATOM     22  C   UNL     1       1.015  12.446  18.820  0.00  0.00    +0.000 C 
ATOM     23  C   UNL     1      -1.195  11.322  18.403  0.00  0.00    +0.000 C 
ENDBRANCH  18  21
ENDBRANCH  13  15
ENDBRANCH   1  11
BRANCH   1  24
ATOM     24  N   UNL     1       3.444   3.307  19.842  0.00  0.00    +0.000 NA
BRANCH  24  26
ATOM     25  C   UNL     1       1.686   2.956  21.644  0.00  0.00    +0.000 C 
ATOM     26  C   UNL     1       2.010   3.033  20.159  0.00  0.00    +0.000 C 
ENDBRANCH  24  26
BRANCH  24  27
ATOM     27  C   UNL     1       4.229   2.053  19.869  0.00  0.00    +0.000 C 
ATOM     28  C   UNL     1       3.987   1.019  18.764  0.00  0.00    +0.000 C 
ENDBRANCH  24  27
ENDBRANCH   1  24
TORSDOF 7
ENDMDL
MODEL 3
REMARK VINA RESULT:      -8.2      1.130      2.044
REMARK  Name = 
REMARK  11 active torsions:
REMARK  status: ('A' for Active; 'I' for Inactive)
REMARK    1  A    between atoms: C_1  and  C_2
REMARK    2  A    between atoms: C_2  and  N_3
REMARK    3  A    between atoms: N_3  and  C_4
REMARK    4  A    between atoms: N_3  and  C_6
REMARK    5  A    between atoms: C_4  and  C_5
REMARK    6  A    between atoms: C_6  and  C_7
REMARK    7  A    between atoms: C_6  and  C_19
REMARK    8  A    between atoms: N_9  and  C_10
REMARK    9  A    between atoms: C_13  and  C_14
REMARK   10  A    between atoms: C_14  and  C_15
REMARK   11  A    between atoms: C_14  and  C_16
REMARK                            x       y       z     vdW  Elec       q    Type
REMARK                         _______ _______ _______ _____ _____    ______ ____
ROOT
ATOM      1  C   UNL     1       3.607   4.233  18.409  0.00  0.00    +0.000 C 
ENDROOT
BRANCH   1   2
ATOM      2  C   UNL     1       4.812   4.738  17.633  0.00  0.00    +0.000 A 
ATOM      3  C   UNL     1       5.129   4.633  16.262  0.00  0.00    +0.000 A 
ATOM      4  C   UNL     1       6.242   5.343  15.765  0.00  0.00    +0.000 A 
ATOM      5  C   UNL     1       7.083   5.941  16.691  0.00  0.00    +0.000 A 
ATOM      6  C   UNL     1       6.985   5.668  18.021  0.00  0.00    +0.000 A 
ATOM      7  C   UNL     1       5.756   5.337  18.477  0.00  0.00    +0.000 A 
ATOM      8  O   UNL     1       7.886   6.331  18.791  0.00  0.00    +0.000 OA
ATOM      9  C   UNL     1       7.924   7.488  17.962  0.00  0.00    +0.000 C 
ATOM     10  O   UNL     1       7.799   7.112  16.554  0.00  0.00    +0.000 OA
ENDBRANCH   1   2
BRANCH   1  11
ATOM     11  C   UNL     1       2.549   5.393  18.442  0.00  0.00    +0.000 C 
ATOM     12  O   UNL     1       1.461   5.257  17.887  0.00  0.00    +0.000 OA
ATOM     13  N   UNL     1       2.962   6.555  19.057  0.00  0.00    +0.000 N 
ATOM     14  H   UNL     1       3.972   6.696  19.087  0.00  0.00    +0.000 HD
BRANCH  13  15
ATOM     15  C   UNL     1       2.154   7.700  19.156  0.00  0.00    +0.000 A 
ATOM     16  C   UNL     1       1.545   8.056  20.348  0.00  0.00    +0.000 A 
ATOM     17  C   UNL     1       0.752   9.206  20.428  0.00  0.00    +0.000 A 
ATOM     18  C   UNL     1       0.575  10.005  19.273  0.00  0.00    +0.000 A 
ATOM     19  C   UNL     1       1.173   9.633  18.091  0.00  0.00    +0.000 A 
ATOM     20  C   UNL     1       2.003   8.490  18.027  0.00  0.00    +0.000 A 
BRANCH  18  21
ATOM     21  C   UNL     1      -0.238  11.302  19.391  0.00  0.00    +0.000 C 
ATOM     22  C   UNL     1      -0.590  11.590  20.853  0.00  0.00    +0.000 C 
ATOM     23  C   UNL     1       0.487  12.500  18.772  0.00  0.00    +0.000 C 
ENDBRANCH  18  21
ENDBRANCH  13  15
ENDBRANCH   1  11
BRANCH   1  24
ATOM     24  N   UNL     1       3.774   3.606  19.747  0.00  0.00    +0.000 NA
BRANCH  24  26
ATOM     25  C   UNL     1       2.295   2.774  21.639  0.00  0.00    +0.000 C 
ATOM     26  C   UNL     1       2.477   3.738  20.476  0.00  0.00    +0.000 C 
ENDBRANCH  24  26
BRANCH  24  27
ATOM     27  C   UNL     1       4.184   2.186  19.672  0.00  0.00    +0.000 C 
ATOM     28  C   UNL     1       3.690   1.347  18.489  0.00  0.00    +0.000 C 
ENDBRANCH  24  27
ENDBRANCH   1  24
TORSDOF 7
ENDMDL
MODEL 4
REMARK VINA RESULT:      -8.0      1.086      1.662
REMARK  Name = 
REMARK  11 active torsions:
REMARK  status: ('A' for Active; 'I' for Inactive)
REMARK    1  A    between atoms: C_1  and  C_2
REMARK    2  A    between atoms: C_2  and  N_3
REMARK    3  A    between atoms: N_3  and  C_4
REMARK    4  A    between atoms: N_3  and  C_6
REMARK    5  A    between atoms: C_4  and  C_5
REMARK    6  A    between atoms: C_6  and  C_7
REMARK    7  A    between atoms: C_6  and  C_19
REMARK    8  A    between atoms: N_9  and  C_10
REMARK    9  A    between atoms: C_13  and  C_14
REMARK   10  A    between atoms: C_14  and  C_15
REMARK   11  A    between atoms: C_14  and  C_16
REMARK                            x       y       z     vdW  Elec       q    Type
REMARK                         _______ _______ _______ _____ _____    ______ ____
ROOT
ATOM      1  C   UNL     1       3.481   3.821  18.321  0.00  0.00    +0.000 C 
ENDROOT
BRANCH   1   2
ATOM      2  C   UNL     1       4.734   4.249  17.576  0.00  0.00    +0.000 A 
ATOM      3  C   UNL     1       5.190   3.920  16.282  0.00  0.00    +0.000 A 
ATOM      4  C   UNL     1       6.316   4.595  15.766  0.00  0.00    +0.000 A 
ATOM      5  C   UNL     1       7.035   5.396  16.639  0.00  0.00    +0.000 A 
ATOM      6  C   UNL     1       6.818   5.359  17.982  0.00  0.00    +0.000 A 
ATOM      7  C   UNL     1       5.565   5.043  18.378  0.00  0.00    +0.000 A 
ATOM      8  O   UNL     1       7.610   6.200  18.696  0.00  0.00    +0.000 OA
ATOM      9  C   UNL     1       7.683   7.191  17.675  0.00  0.00    +0.000 C 
ATOM     10  O   UNL     1       7.713   6.564  16.354  0.00  0.00    +0.000 OA
ENDBRANCH   1   2
BRANCH   1  11
ATOM     11  C   UNL     1       2.511   5.055  18.357  0.00  0.00    +0.000 C 
ATOM     12  O   UNL     1       1.425   5.009  17.784  0.00  0.00    +0.000 OA
ATOM     13  N   UNL     1       2.998   6.173  18.999  0.00  0.00    +0.000 N 
ATOM     14  H   UNL     1       4.016   6.239  19.046  0.00  0.00    +0.000 HD
BRANCH  13  15
ATOM     15  C   UNL     1       2.276   7.374  19.105  0.00  0.00    +0.000 A 
ATOM     16  C   UNL     1       2.119   8.222  18.022  0.00  0.00    +0.000 A 
ATOM     17  C   UNL     1       1.388   9.409  18.147  0.00  0.00    +0.000 A 
ATOM     18  C   UNL     1       0.810   9.737  19.396  0.00  0.00    +0.000 A 
ATOM     19  C   UNL     1       0.986   8.894  20.469  0.00  0.00    +0.000 A 
ATOM     20  C   UNL     1       1.695   7.677  20.327  0.00  0.00    +0.000 A 
BRANCH  18  21
ATOM     21  C   UNL     1      -0.049  11.006  19.502  0.00  0.00    +0.000 C 
ATOM     22  C   UNL     1      -1.207  10.960  18.500  0.00  0.00    +0.000 C 
ATOM     23  C   UNL     1      -0.580  11.230  20.921  0.00  0.00    +0.000 C 
ENDBRANCH  18  21
ENDBRANCH  13  15
ENDBRANCH   1  11
BRANCH   1  24
ATOM     24  N   UNL     1       3.575   3.158  19.648  0.00  0.00    +0.000 NA
BRANCH  24  26
ATOM     25  C   UNL     1       1.928   3.282  21.580  0.00  0.00    +0.000 C 
ATOM     26  C   UNL     1       2.183   2.904  20.128  0.00  0.00    +0.000 C 
ENDBRANCH  24  26
BRANCH  24  27
ATOM     27  C   UNL     1       4.349   1.897  19.611  0.00  0.00    +0.000 C 
ATOM     28  C   UNL     1       5.109   1.472  20.871  0.00  0.00    +0.000 C 
ENDBRANCH  24  27
ENDBRANCH   1  24
TORSDOF 7
ENDMDL
MODEL 5
REMARK VINA RESULT:      -7.6      0.653      1.435
REMARK  Name = 
REMARK  11 active torsions:
REMARK  status: ('A' for Active; 'I' for Inactive)
REMARK    1  A    between atoms: C_1  and  C_2
REMARK    2  A    between atoms: C_2  and  N_3
REMARK    3  A    between atoms: N_3  and  C_4
REMARK    4  A    between atoms: N_3  and  C_6
REMARK    5  A    between atoms: C_4  and  C_5
REMARK    6  A    between atoms: C_6  and  C_7
REMARK    7  A    between atoms: C_6  and  C_19
REMARK    8  A    between atoms: N_9  and  C_10
REMARK    9  A    between atoms: C_13  and  C_14
REMARK   10  A    between atoms: C_14  and  C_15
REMARK   11  A    between atoms: C_14  and  C_16
REMARK                            x       y       z     vdW  Elec       q    Type
REMARK                         _______ _______ _______ _____ _____    ______ ____
ROOT
ATOM      1  C   UNL     1       3.147   3.819  18.031  0.00  0.00    +0.000 C 
ENDROOT
BRANCH   1   2
ATOM      2  C   UNL     1       4.563   4.273  17.717  0.00  0.00    +0.000 A 
ATOM      3  C   UNL     1       5.684   4.429  18.560  0.00  0.00    +0.000 A 
ATOM      4  C   UNL     1       6.939   4.708  17.977  0.00  0.00    +0.000 A 
ATOM      5  C   UNL     1       6.960   5.015  16.625  0.00  0.00    +0.000 A 
ATOM      6  C   UNL     1       5.815   5.271  15.936  0.00  0.00    +0.000 A 
ATOM      7  C   UNL     1       4.699   4.647  16.374  0.00  0.00    +0.000 A 
ATOM      8  O   UNL     1       6.011   5.562  14.623  0.00  0.00    +0.000 OA
ATOM      9  C   UNL     1       7.151   4.720  14.483  0.00  0.00    +0.000 C 
ATOM     10  O   UNL     1       7.950   4.732  15.708  0.00  0.00    +0.000 OA
ENDBRANCH   1   2
BRANCH   1  11
ATOM     11  C   UNL     1       2.262   5.107  18.180  0.00  0.00    +0.000 C 
ATOM     12  O   UNL     1       1.101   5.114  17.778  0.00  0.00    +0.000 OA
ATOM     13  N   UNL     1       2.901   6.207  18.711  0.00  0.00    +0.000 N 
ATOM     14  H   UNL     1       3.916   6.215  18.603  0.00  0.00    +0.000 HD
BRANCH  13  15
ATOM     15  C   UNL     1       2.270   7.449  18.893  0.00  0.00    +0.000 A 
ATOM     16  C   UNL     1       2.163   8.365  17.860  0.00  0.00    +0.000 A 
ATOM     17  C   UNL     1       1.522   9.593  18.060  0.00  0.00    +0.000 A 
ATOM     18  C   UNL     1       0.983   9.892  19.333  0.00  0.00    +0.000 A 
ATOM     19  C   UNL     1       1.108   8.980  20.356  0.00  0.00    +0.000 A 
ATOM     20  C   UNL     1       1.724   7.725  20.137  0.00  0.00    +0.000 A 
BRANCH  18  21
ATOM     21  C   UNL     1       0.219  11.211  19.520  0.00  0.00    +0.000 C 
ATOM     22  C   UNL     1       0.944  12.360  18.813  0.00  0.00    +0.000 C 
ATOM     23  C   UNL     1      -1.230  11.117  19.036  0.00  0.00    +0.000 C 
ENDBRANCH  18  21
ENDBRANCH  13  15
ENDBRANCH   1  11
BRANCH   1  24
ATOM     24  N   UNL     1       2.887   2.845  19.124  0.00  0.00    +0.000 NA
BRANCH  24  26
ATOM     25  C   UNL     1       4.742   1.535  20.264  0.00  0.00    +0.000 C 
ATOM     26  C   UNL     1       3.903   1.756  19.014  0.00  0.00    +0.000 C 
ENDBRANCH  24  26
BRANCH  24  27
ATOM     27  C   UNL     1       2.931   3.462  20.469  0.00  0.00    +0.000 C 
ATOM     28  C   UNL     1       1.718   3.292  21.388  0.00  0.00    +0.000 C 
ENDBRANCH  24  27
ENDBRANCH   1  24
TORSDOF 7
ENDMDL
MODEL 6
REMARK VINA RESULT:      -7.5      0.693      1.724
REMARK  Name = 
REMARK  11 active torsions:
REMARK  status: ('A' for Active; 'I' for Inactive)
REMARK    1  A    between atoms: C_1  and  C_2
REMARK    2  A    between atoms: C_2  and  N_3
REMARK    3  A    between atoms: N_3  and  C_4
REMARK    4  A    between atoms: N_3  and  C_6
REMARK    5  A    between atoms: C_4  and  C_5
REMARK    6  A    between atoms: C_6  and  C_7
REMARK    7  A    between atoms: C_6  and  C_19
REMARK    8  A    between atoms: N_9  and  C_10
REMARK    9  A    between atoms: C_13  and  C_14
REMARK   10  A    between atoms: C_14  and  C_15
REMARK   11  A    between atoms: C_14  and  C_16
REMARK                            x       y       z     vdW  Elec       q    Type
REMARK                         _______ _______ _______ _____ _____    ______ ____
ROOT
ATOM      1  C   UNL     1       3.160   3.813  18.045  0.00  0.00    +0.000 C 
ENDROOT
BRANCH   1   2
ATOM      2  C   UNL     1       4.573   4.272  17.724  0.00  0.00    +0.000 A 
ATOM      3  C   UNL     1       5.701   4.419  18.558  0.00  0.00    +0.000 A 
ATOM      4  C   UNL     1       6.950   4.706  17.968  0.00  0.00    +0.000 A 
ATOM      5  C   UNL     1       6.960   5.030  16.620  0.00  0.00    +0.000 A 
ATOM      6  C   UNL     1       5.808   5.293  15.944  0.00  0.00    +0.000 A 
ATOM      7  C   UNL     1       4.696   4.663  16.385  0.00  0.00    +0.000 A 
ATOM      8  O   UNL     1       5.992   5.600  14.634  0.00  0.00    +0.000 OA
ATOM      9  C   UNL     1       7.131   4.761  14.472  0.00  0.00    +0.000 C 
ATOM     10  O   UNL     1       7.941   4.759  15.690  0.00  0.00    +0.000 OA
ENDBRANCH   1   2
BRANCH   1  11
ATOM     11  C   UNL     1       2.271   5.098  18.198  0.00  0.00    +0.000 C 
ATOM     12  O   UNL     1       1.105   5.097  17.811  0.00  0.00    +0.000 OA
ATOM     13  N   UNL     1       2.912   6.204  18.714  0.00  0.00    +0.000 N 
ATOM     14  H   UNL     1       3.925   6.216  18.592  0.00  0.00    +0.000 HD
BRANCH  13  15
ATOM     15  C   UNL     1       2.277   7.445  18.896  0.00  0.00    +0.000 A 
ATOM     16  C   UNL     1       1.721   7.801  20.113  0.00  0.00    +0.000 A 
ATOM     17  C   UNL     1       1.101   9.045  20.277  0.00  0.00    +0.000 A 
ATOM     18  C   UNL     1       1.045   9.939  19.181  0.00  0.00    +0.000 A 
ATOM     19  C   UNL     1       1.587   9.567  17.972  0.00  0.00    +0.000 A 
ATOM     20  C   UNL     1       2.245   8.323  17.824  0.00  0.00    +0.000 A 
BRANCH  18  21
ATOM     21  C   UNL     1       0.426  11.328  19.392  0.00  0.00    +0.000 C 
ATOM     22  C   UNL     1      -0.553  11.311  20.570  0.00  0.00    +0.000 C 
ATOM     23  C   UNL     1       1.488  12.411  19.597  0.00  0.00    +0.000 C 
ENDBRANCH  18  21
ENDBRANCH  13  15
ENDBRANCH   1  11
BRANCH   1  24
ATOM     24  N   UNL     1       2.909   2.839  19.140  0.00  0.00    +0.000 NA
BRANCH  24  26
ATOM     25  C   UNL     1       4.749   1.571  20.349  0.00  0.00    +0.000 C 
ATOM     26  C   UNL     1       3.965   1.786  19.063  0.00  0.00    +0.000 C 
ENDBRANCH  24  26
BRANCH  24  27
ATOM     27  C   UNL     1       2.899   3.467  20.480  0.00  0.00    +0.000 C 
ATOM     28  C   UNL     1       1.647   3.313  21.348  0.00  0.00    +0.000 C 
ENDBRANCH  24  27
ENDBRANCH   1  24
TORSDOF 7
ENDMDL
MODEL 7
REMARK VINA RESULT:      -7.5      1.758      2.527
REMARK  Name = 
REMARK  11 active torsions:
REMARK  status: ('A' for Active; 'I' for Inactive)
REMARK    1  A    between atoms: C_1  and  C_2
REMARK    2  A    between atoms: C_2  and  N_3
REMARK    3  A    between atoms: N_3  and  C_4
REMARK    4  A    between atoms: N_3  and  C_6
REMARK    5  A    between atoms: C_4  and  C_5
REMARK    6  A    between atoms: C_6  and  C_7
REMARK    7  A    between atoms: C_6  and  C_19
REMARK    8  A    between atoms: N_9  and  C_10
REMARK    9  A    between atoms: C_13  and  C_14
REMARK   10  A    between atoms: C_14  and  C_15
REMARK   11  A    between atoms: C_14  and  C_16
REMARK                            x       y       z     vdW  Elec       q    Type
REMARK                         _______ _______ _______ _____ _____    ______ ____
ROOT
ATOM      1  C   UNL     1       2.684   5.745  18.195  0.00  0.00    +0.000 C 
ENDROOT
BRANCH   1   2
ATOM      2  C   UNL     1       4.194   5.621  18.070  0.00  0.00    +0.000 A 
ATOM      3  C   UNL     1       5.188   5.493  19.063  0.00  0.00    +0.000 A 
ATOM      4  C   UNL     1       6.515   5.224  18.666  0.00  0.00    +0.000 A 
ATOM      5  C   UNL     1       6.804   5.304  17.312  0.00  0.00    +0.000 A 
ATOM      6  C   UNL     1       5.922   5.844  16.427  0.00  0.00    +0.000 A 
ATOM      7  C   UNL     1       4.612   5.724  16.738  0.00  0.00    +0.000 A 
ATOM      8  O   UNL     1       6.361   5.853  15.142  0.00  0.00    +0.000 OA
ATOM      9  C   UNL     1       7.117   4.653  15.265  0.00  0.00    +0.000 C 
ATOM     10  O   UNL     1       7.718   4.560  16.596  0.00  0.00    +0.000 OA
ENDBRANCH   1   2
BRANCH   1  11
ATOM     11  C   UNL     1       2.375   7.180  18.754  0.00  0.00    +0.000 C 
ATOM     12  O   UNL     1       2.399   7.394  19.964  0.00  0.00    +0.000 OA
ATOM     13  N   UNL     1       2.015   8.118  17.811  0.00  0.00    +0.000 N 
ATOM     14  H   UNL     1       1.623   7.740  16.948  0.00  0.00    +0.000 HD
BRANCH  13  15
ATOM     15  C   UNL     1       1.681   9.444  18.136  0.00  0.00    +0.000 A 
ATOM     16  C   UNL     1       0.460   9.764  18.706  0.00  0.00    +0.000 A 
ATOM     17  C   UNL     1       0.150  11.090  19.031  0.00  0.00    +0.000 A 
ATOM     18  C   UNL     1       1.100  12.106  18.767  0.00  0.00    +0.000 A 
ATOM     19  C   UNL     1       2.303  11.777  18.186  0.00  0.00    +0.000 A 
ATOM     20  C   UNL     1       2.624  10.430  17.894  0.00  0.00    +0.000 A 
BRANCH  18  21
ATOM     21  C   UNL     1       0.777  13.545  19.192  0.00  0.00    +0.000 C 
ATOM     22  C   UNL     1       1.869  14.507  18.715  0.00  0.00    +0.000 C 
ATOM     23  C   UNL     1      -0.595  14.005  18.691  0.00  0.00    +0.000 C 
ENDBRANCH  18  21
ENDBRANCH  13  15
ENDBRANCH   1  11
BRANCH   1  24
ATOM     24  N   UNL     1       1.891   4.701  18.896  0.00  0.00    +0.000 NA
BRANCH  24  26
ATOM     25  C   UNL     1       2.337   2.464  17.775  0.00  0.00    +0.000 C 
ATOM     26  C   UNL     1       1.456   3.701  17.876  0.00  0.00    +0.000 C 
ENDBRANCH  24  26
BRANCH  24  27
ATOM     27  C   UNL     1       2.644   4.038  19.984  0.00  0.00    +0.000 C 
ATOM     28  C   UNL     1       1.901   3.695  21.279  0.00  0.00    +0.000 C 
ENDBRANCH  24  27
ENDBRANCH   1  24
TORSDOF 7
ENDMDL
MODEL 8
REMARK VINA RESULT:      -7.5      0.948      1.047
REMARK  Name = 
REMARK  11 active torsions:
REMARK  status: ('A' for Active; 'I' for Inactive)
REMARK    1  A    between atoms: C_1  and  C_2
REMARK    2  A    between atoms: C_2  and  N_3
REMARK    3  A    between atoms: N_3  and  C_4
REMARK    4  A    between atoms: N_3  and  C_6
REMARK    5  A    between atoms: C_4  and  C_5
REMARK    6  A    between atoms: C_6  and  C_7
REMARK    7  A    between atoms: C_6  and  C_19
REMARK    8  A    between atoms: N_9  and  C_10
REMARK    9  A    between atoms: C_13  and  C_14
REMARK   10  A    between atoms: C_14  and  C_15
REMARK   11  A    between atoms: C_14  and  C_16
REMARK                            x       y       z     vdW  Elec       q    Type
REMARK                         _______ _______ _______ _____ _____    ______ ____
ROOT
ATOM      1  C   UNL     1       3.333   4.506  19.007  0.00  0.00    +0.000 C 
ENDROOT
BRANCH   1   2
ATOM      2  C   UNL     1       4.648   4.895  18.352  0.00  0.00    +0.000 A 
ATOM      3  C   UNL     1       5.856   5.350  18.921  0.00  0.00    +0.000 A 
ATOM      4  C   UNL     1       6.991   5.482  18.092  0.00  0.00    +0.000 A 
ATOM      5  C   UNL     1       6.800   5.354  16.725  0.00  0.00    +0.000 A 
ATOM      6  C   UNL     1       5.553   5.336  16.179  0.00  0.00    +0.000 A 
ATOM      7  C   UNL     1       4.565   4.836  16.955  0.00  0.00    +0.000 A 
ATOM      8  O   UNL     1       5.542   5.210  14.827  0.00  0.00    +0.000 OA
ATOM      9  C   UNL     1       6.719   4.412  14.770  0.00  0.00    +0.000 C 
ATOM     10  O   UNL     1       7.675   4.837  15.793  0.00  0.00    +0.000 OA
ENDBRANCH   1   2
BRANCH   1  11
ATOM     11  C   UNL     1       2.677   5.820  19.562  0.00  0.00    +0.000 C 
ATOM     12  O   UNL     1       2.256   5.866  20.716  0.00  0.00    +0.000 OA
ATOM     13  N   UNL     1       2.553   6.850  18.655  0.00  0.00    +0.000 N 
ATOM     14  H   UNL     1       2.533   6.566  17.674  0.00  0.00    +0.000 HD
BRANCH  13  15
ATOM     15  C   UNL     1       1.968   8.088  18.972  0.00  0.00    +0.000 A 
ATOM     16  C   UNL     1       1.822   9.084  18.021  0.00  0.00    +0.000 A 
ATOM     17  C   UNL     1       1.229  10.307  18.355  0.00  0.00    +0.000 A 
ATOM     18  C   UNL     1       0.779  10.517  19.680  0.00  0.00    +0.000 A 
ATOM     19  C   UNL     1       0.943   9.525  20.620  0.00  0.00    +0.000 A 
ATOM     20  C   UNL     1       1.510   8.278  20.266  0.00  0.00    +0.000 A 
BRANCH  18  21
ATOM     21  C   UNL     1       0.065  11.834  20.017  0.00  0.00    +0.000 C 
ATOM     22  C   UNL     1       0.504  12.947  19.061  0.00  0.00    +0.000 C 
ATOM     23  C   UNL     1      -1.459  11.689  20.002  0.00  0.00    +0.000 C 
ENDBRANCH  18  21
ENDBRANCH  13  15
ENDBRANCH   1  11
BRANCH   1  24
ATOM     24  N   UNL     1       3.277   3.403  20.003  0.00  0.00    +0.000 NA
BRANCH  24  26
ATOM     25  C   UNL     1       1.390   2.631  21.520  0.00  0.00    +0.000 C 
ATOM     26  C   UNL     1       1.855   2.958  20.108  0.00  0.00    +0.000 C 
ENDBRANCH  24  26
BRANCH  24  27
ATOM     27  C   UNL     1       4.153   2.263  19.651  0.00  0.00    +0.000 C 
ATOM     28  C   UNL     1       3.725   1.345  18.501  0.00  0.00    +0.000 C 
ENDBRANCH  24  27
ENDBRANCH   1  24
TORSDOF 7
ENDMDL
MODEL 9
REMARK VINA RESULT:      -7.5      1.431      2.046
REMARK  Name = 
REMARK  11 active torsions:
REMARK  status: ('A' for Active; 'I' for Inactive)
REMARK    1  A    between atoms: C_1  and  C_2
REMARK    2  A    between atoms: C_2  and  N_3
REMARK    3  A    between atoms: N_3  and  C_4
REMARK    4  A    between atoms: N_3  and  C_6
REMARK    5  A    between atoms: C_4  and  C_5
REMARK    6  A    between atoms: C_6  and  C_7
REMARK    7  A    between atoms: C_6  and  C_19
REMARK    8  A    between atoms: N_9  and  C_10
REMARK    9  A    between atoms: C_13  and  C_14
REMARK   10  A    between atoms: C_14  and  C_15
REMARK   11  A    between atoms: C_14  and  C_16
REMARK                            x       y       z     vdW  Elec       q    Type
REMARK                         _______ _______ _______ _____ _____    ______ ____
ROOT
ATOM      1  C   UNL     1       3.211   4.497  18.838  0.00  0.00    +0.000 C 
ENDROOT
BRANCH   1   2
ATOM      2  C   UNL     1       4.428   4.816  17.986  0.00  0.00    +0.000 A 
ATOM      3  C   UNL     1       4.684   4.564  16.621  0.00  0.00    +0.000 A 
ATOM      4  C   UNL     1       5.840   5.120  16.032  0.00  0.00    +0.000 A 
ATOM      5  C   UNL     1       6.765   5.712  16.878  0.00  0.00    +0.000 A 
ATOM      6  C   UNL     1       6.691   5.565  18.229  0.00  0.00    +0.000 A 
ATOM      7  C   UNL     1       5.453   5.393  18.746  0.00  0.00    +0.000 A 
ATOM      8  O   UNL     1       7.676   6.203  18.912  0.00  0.00    +0.000 OA
ATOM      9  C   UNL     1       7.792   7.275  17.982  0.00  0.00    +0.000 C 
ATOM     10  O   UNL     1       7.581   6.793  16.617  0.00  0.00    +0.000 OA
ENDBRANCH   1   2
BRANCH   1  11
ATOM     11  C   UNL     1       2.669   5.855  19.410  0.00  0.00    +0.000 C 
ATOM     12  O   UNL     1       2.376   5.955  20.600  0.00  0.00    +0.000 OA
ATOM     13  N   UNL     1       2.486   6.858  18.484  0.00  0.00    +0.000 N 
ATOM     14  H   UNL     1       2.350   6.544  17.522  0.00  0.00    +0.000 HD
BRANCH  13  15
ATOM     15  C   UNL     1       1.986   8.129  18.815  0.00  0.00    +0.000 A 
ATOM     16  C   UNL     1       2.009   9.175  17.908  0.00  0.00    +0.000 A 
ATOM     17  C   UNL     1       1.497  10.431  18.255  0.00  0.00    +0.000 A 
ATOM     18  C   UNL     1       0.956  10.623  19.549  0.00  0.00    +0.000 A 
ATOM     19  C   UNL     1       0.953   9.580  20.446  0.00  0.00    +0.000 A 
ATOM     20  C   UNL     1       1.438   8.303  20.076  0.00  0.00    +0.000 A 
BRANCH  18  21
ATOM     21  C   UNL     1       0.333  11.984  19.893  0.00  0.00    +0.000 C 
ATOM     22  C   UNL     1       1.353  12.882  20.600  0.00  0.00    +0.000 C 
ATOM     23  C   UNL     1      -0.236  12.691  18.660  0.00  0.00    +0.000 C 
ENDBRANCH  18  21
ENDBRANCH  13  15
ENDBRANCH   1  11
BRANCH   1  24
ATOM     24  N   UNL     1       3.273   3.446  19.887  0.00  0.00    +0.000 NA
BRANCH  24  26
ATOM     25  C   UNL     1       1.553   2.645  21.578  0.00  0.00    +0.000 C 
ATOM     26  C   UNL     1       1.880   2.960  20.125  0.00  0.00    +0.000 C 
ENDBRANCH  24  26
BRANCH  24  27
ATOM     27  C   UNL     1       4.160   2.318  19.523  0.00  0.00    +0.000 C 
ATOM     28  C   UNL     1       3.689   1.341  18.441  0.00  0.00    +0.000 C 
ENDBRANCH  24  27
ENDBRANCH   1  24
TORSDOF 7
ENDMDL
