MODEL 1
REMARK VINA RESULT:      -9.2      0.000      0.000
REMARK  Name = 
REMARK  13 active torsions:
REMARK  status: ('A' for Active; 'I' for Inactive)
REMARK    1  A    between atoms: C_1  and  O_2
REMARK    2  A    between atoms: O_2  and  C_3
REMARK    3  A    between atoms: C_5  and  C_6
REMARK    4  A    between atoms: C_6  and  C_7
REMARK    5  A    between atoms: C_6  and  C_14
REMARK    6  A    between atoms: C_8  and  C_9
REMARK    7  A    between atoms: C_12  and  O_13
REMARK    8  A    between atoms: C_15  and  C_16
REMARK    9  A    between atoms: C_19  and  O_20
REMARK   10  A    between atoms: C_23  and  O_24
REMARK   11  A    between atoms: O_24  and  C_25
REMARK   12  A    between atoms: C_25  and  C_27
REMARK   13  A    between atoms: C_31  and  C_32
REMARK                            x       y       z     vdW  Elec       q    Type
REMARK                         _______ _______ _______ _____ _____    ______ ____
ROOT
ATOM      1  C   UNL     1       4.438   4.743  19.218  0.00  0.00    +0.000 C 
ENDROOT
BRANCH   1   2
ATOM      2  C   UNL     1       3.577   3.564  18.849  0.00  0.00    +0.000 A 
ATOM      3  C   UNL     1       2.341   3.503  18.128  0.00  0.00    +0.000 A 
ATOM      4  C   UNL     1       1.524   4.594  17.534  0.00  0.00    +0.000 C 
ATOM      5  N   UNL     1       1.912   2.242  17.979  0.00  0.00    +0.000 NA
ATOM      6  N   UNL     1       2.845   1.505  18.588  0.00  0.00    +0.000 N 
ATOM      7  C   UNL     1       3.874   2.237  19.111  0.00  0.00    +0.000 A 
ATOM      8  H   UNL     1       2.721   0.497  18.598  0.00  0.00    +0.000 HD
BRANCH   7   9
ATOM      9  O   UNL     1       4.922   1.691  19.723  0.00  0.00    +0.000 OA
ATOM     10  H   UNL     1       5.705   1.735  19.153  0.00  0.00    +0.000 HD
ENDBRANCH   7   9
ENDBRANCH   1   2
BRANCH   1  11
ATOM     11  C   UNL     1       5.758   4.867  18.488  0.00  0.00    +0.000 A 
ATOM     12  C   UNL     1       5.967   4.590  17.093  0.00  0.00    +0.000 A 
ATOM     13  C   UNL     1       4.990   4.166  16.055  0.00  0.00    +0.000 C 
ATOM     14  N   UNL     1       7.239   4.773  16.720  0.00  0.00    +0.000 NA
ATOM     15  N   UNL     1       7.851   5.152  17.844  0.00  0.00    +0.000 N 
ATOM     16  C   UNL     1       7.025   5.231  18.928  0.00  0.00    +0.000 A 
ATOM     17  H   UNL     1       8.844   5.346  17.800  0.00  0.00    +0.000 HD
BRANCH  16  18
ATOM     18  O   UNL     1       7.469   5.607  20.121  0.00  0.00    +0.000 OA
ATOM     19  H   UNL     1       8.438   5.644  20.151  0.00  0.00    +0.000 HD
ENDBRANCH  16  18
ENDBRANCH   1  11
BRANCH   1  22
ATOM     20  C   UNL     1       1.906   7.528  19.999  0.00  0.00    +0.000 A 
ATOM     21  C   UNL     1       2.669   6.346  20.058  0.00  0.00    +0.000 A 
ATOM     22  C   UNL     1       3.582   5.995  19.042  0.00  0.00    +0.000 A 
ATOM     23  C   UNL     1       3.669   6.843  17.928  0.00  0.00    +0.000 A 
ATOM     24  C   UNL     1       2.963   8.043  17.878  0.00  0.00    +0.000 A 
ATOM     25  C   UNL     1       2.123   8.410  18.929  0.00  0.00    +0.000 A 
BRANCH  20  27
ATOM     26  C   UNL     1       1.429   8.792  21.940  0.00  0.00    +0.000 C 
ATOM     27  O   UNL     1       0.973   7.872  20.946  0.00  0.00    +0.000 OA
ENDBRANCH  20  27
BRANCH  25  28
ATOM     28  O   UNL     1       1.395   9.618  18.835  0.00  0.00    +0.000 OA
BRANCH  28  29
ATOM     29  C   UNL     1       0.242   9.596  18.055  0.00  0.00    +0.000 C 
ATOM     30  O   UNL     1       0.032   8.893  17.077  0.00  0.00    +0.000 OA
BRANCH  29  31
ATOM     31  C   UNL     1      -0.802  10.500  18.624  0.00  0.00    +0.000 A 
ATOM     32  C   UNL     1      -0.473  11.275  19.748  0.00  0.00    +0.000 A 
ATOM     33  C   UNL     1      -1.402  12.166  20.292  0.00  0.00    +0.000 A 
ATOM     34  C   UNL     1      -2.665  12.293  19.717  0.00  0.00    +0.000 A 
ATOM     35  C   UNL     1      -3.008  11.540  18.588  0.00  0.00    +0.000 A 
ATOM     36  C   UNL     1      -4.365  11.666  17.961  0.00  0.00    +0.000 C 
ATOM     37  C   UNL     1      -2.071  10.641  18.048  0.00  0.00    +0.000 A 
ENDBRANCH  29  31
ENDBRANCH  28  29
ENDBRANCH  25  28
ENDBRANCH   1  22
TORSDOF 9
ENDMDL
MODEL 2
REMARK VINA RESULT:      -9.2      0.888      1.417
REMARK  Name = 
REMARK  13 active torsions:
REMARK  status: ('A' for Active; 'I' for Inactive)
REMARK    1  A    between atoms: C_1  and  O_2
REMARK    2  A    between atoms: O_2  and  C_3
REMARK    3  A    between atoms: C_5  and  C_6
REMARK    4  A    between atoms: C_6  and  C_7
REMARK    5  A    between atoms: C_6  and  C_14
REMARK    6  A    between atoms: C_8  and  C_9
REMARK    7  A    between atoms: C_12  and  O_13
REMARK    8  A    between atoms: C_15  and  C_16
REMARK    9  A    between atoms: C_19  and  O_20
REMARK   10  A    between atoms: C_23  and  O_24
REMARK   11  A    between atoms: O_24  and  C_25
REMARK   12  A    between atoms: C_25  and  C_27
REMARK   13  A    between atoms: C_31  and  C_32
REMARK                            x       y       z     vdW  Elec       q    Type
REMARK                         _______ _______ _______ _____ _____    ______ ____
ROOT
ATOM      1  C   UNL     1       4.544   4.770  18.896  0.00  0.00    +0.000 C 
ENDROOT
BRANCH   1   2
ATOM      2  C   UNL     1       3.640   3.570  18.805  0.00  0.00    +0.000 A 
ATOM      3  C   UNL     1       2.368   3.407  18.168  0.00  0.00    +0.000 A 
ATOM      4  C   UNL     1       1.545   4.387  17.411  0.00  0.00    +0.000 C 
ATOM      5  N   UNL     1       1.905   2.155  18.290  0.00  0.00    +0.000 NA
ATOM      6  N   UNL     1       2.853   1.522  18.986  0.00  0.00    +0.000 N 
ATOM      7  C   UNL     1       3.922   2.309  19.308  0.00  0.00    +0.000 A 
ATOM      8  H   UNL     1       2.708   0.540  19.199  0.00  0.00    +0.000 HD
BRANCH   7   9
ATOM      9  O   UNL     1       4.989   1.862  19.965  0.00  0.00    +0.000 OA
ATOM     10  H   UNL     1       4.826   0.967  20.301  0.00  0.00    +0.000 HD
ENDBRANCH   7   9
ENDBRANCH   1   2
BRANCH   1  11
ATOM     11  C   UNL     1       5.672   4.842  17.889  0.00  0.00    +0.000 A 
ATOM     12  C   UNL     1       7.013   5.278  18.171  0.00  0.00    +0.000 A 
ATOM     13  C   UNL     1       7.615   5.717  19.458  0.00  0.00    +0.000 C 
ATOM     14  N   UNL     1       7.798   5.251  17.089  0.00  0.00    +0.000 NA
ATOM     15  N   UNL     1       6.992   4.815  16.118  0.00  0.00    +0.000 N 
ATOM     16  C   UNL     1       5.717   4.551  16.531  0.00  0.00    +0.000 A 
ATOM     17  H   UNL     1       7.380   4.717  15.189  0.00  0.00    +0.000 HD
BRANCH  16  18
ATOM     18  O   UNL     1       4.791   4.096  15.697  0.00  0.00    +0.000 OA
ATOM     19  H   UNL     1       4.076   4.739  15.565  0.00  0.00    +0.000 HD
ENDBRANCH  16  18
ENDBRANCH   1  11
BRANCH   1  22
ATOM     20  C   UNL     1       1.978   7.439  19.930  0.00  0.00    +0.000 A 
ATOM     21  C   UNL     1       2.770   6.276  19.892  0.00  0.00    +0.000 A 
ATOM     22  C   UNL     1       3.652   6.008  18.825  0.00  0.00    +0.000 A 
ATOM     23  C   UNL     1       3.677   6.921  17.761  0.00  0.00    +0.000 A 
ATOM     24  C   UNL     1       2.941   8.103  17.806  0.00  0.00    +0.000 A 
ATOM     25  C   UNL     1       2.134   8.387  18.907  0.00  0.00    +0.000 A 
BRANCH  20  27
ATOM     26  C   UNL     1       1.491   8.685  21.880  0.00  0.00    +0.000 C 
ATOM     27  O   UNL     1       1.074   7.704  20.929  0.00  0.00    +0.000 OA
ENDBRANCH  20  27
BRANCH  25  28
ATOM     28  O   UNL     1       1.374   9.579  18.911  0.00  0.00    +0.000 OA
BRANCH  28  29
ATOM     29  C   UNL     1       0.242   9.603  18.100  0.00  0.00    +0.000 C 
ATOM     30  O   UNL     1       0.046   8.935  17.096  0.00  0.00    +0.000 OA
BRANCH  29  31
ATOM     31  C   UNL     1      -0.799  10.510  18.669  0.00  0.00    +0.000 A 
ATOM     32  C   UNL     1      -0.469  11.282  19.796  0.00  0.00    +0.000 A 
ATOM     33  C   UNL     1      -1.395  12.176  20.340  0.00  0.00    +0.000 A 
ATOM     34  C   UNL     1      -2.657  12.309  19.762  0.00  0.00    +0.000 A 
ATOM     35  C   UNL     1      -3.000  11.560  18.631  0.00  0.00    +0.000 A 
ATOM     36  C   UNL     1      -4.356  11.694  18.002  0.00  0.00    +0.000 C 
ATOM     37  C   UNL     1      -2.066  10.659  18.091  0.00  0.00    +0.000 A 
ENDBRANCH  29  31
ENDBRANCH  28  29
ENDBRANCH  25  28
ENDBRANCH   1  22
TORSDOF 9
ENDMDL
MODEL 3
REMARK VINA RESULT:      -9.0      1.662      2.291
REMARK  Name = 
REMARK  13 active torsions:
REMARK  status: ('A' for Active; 'I' for Inactive)
REMARK    1  A    between atoms: C_1  and  O_2
REMARK    2  A    between atoms: O_2  and  C_3
REMARK    3  A    between atoms: C_5  and  C_6
REMARK    4  A    between atoms: C_6  and  C_7
REMARK    5  A    between atoms: C_6  and  C_14
REMARK    6  A    between atoms: C_8  and  C_9
REMARK    7  A    between atoms: C_12  and  O_13
REMARK    8  A    between atoms: C_15  and  C_16
REMARK    9  A    between atoms: C_19  and  O_20
REMARK   10  A    between atoms: C_23  and  O_24
REMARK   11  A    between atoms: O_24  and  C_25
REMARK   12  A    between atoms: C_25  and  C_27
REMARK   13  A    between atoms: C_31  and  C_32
REMARK                            x       y       z     vdW  Elec       q    Type
REMARK                         _______ _______ _______ _____ _____    ______ ____
ROOT
ATOM      1  C   UNL     1       3.574   4.832  19.265  0.00  0.00    +0.000 C 
ENDROOT
BRANCH   1   2
ATOM      2  C   UNL     1       2.447   3.838  19.345  0.00  0.00    +0.000 A 
ATOM      3  C   UNL     1       2.120   2.879  20.357  0.00  0.00    +0.000 A 
ATOM      4  C   UNL     1       2.810   2.565  21.635  0.00  0.00    +0.000 C 
ATOM      5  N   UNL     1       1.002   2.202  20.061  0.00  0.00    +0.000 NA
ATOM      6  N   UNL     1       0.613   2.709  18.888  0.00  0.00    +0.000 N 
ATOM      7  C   UNL     1       1.425   3.702  18.418  0.00  0.00    +0.000 A 
ATOM      8  H   UNL     1      -0.232   2.336  18.467  0.00  0.00    +0.000 HD
BRANCH   7   9
ATOM      9  O   UNL     1       1.193   4.364  17.287  0.00  0.00    +0.000 OA
ATOM     10  H   UNL     1       1.676   5.205  17.284  0.00  0.00    +0.000 HD
ENDBRANCH   7   9
ENDBRANCH   1   2
BRANCH   1  11
ATOM     11  C   UNL     1       4.645   4.555  18.231  0.00  0.00    +0.000 A 
ATOM     12  C   UNL     1       6.035   4.901  18.360  0.00  0.00    +0.000 A 
ATOM     13  C   UNL     1       6.748   5.553  19.489  0.00  0.00    +0.000 C 
ATOM     14  N   UNL     1       6.751   4.547  17.286  0.00  0.00    +0.000 NA
ATOM     15  N   UNL     1       5.853   3.991  16.470  0.00  0.00    +0.000 N 
ATOM     16  C   UNL     1       4.585   3.962  16.976  0.00  0.00    +0.000 A 
ATOM     17  H   UNL     1       6.176   3.645  15.576  0.00  0.00    +0.000 HD
BRANCH  16  18
ATOM     18  O   UNL     1       3.573   3.431  16.301  0.00  0.00    +0.000 OA
ATOM     19  H   UNL     1       2.948   4.106  15.996  0.00  0.00    +0.000 HD
ENDBRANCH  16  18
ENDBRANCH   1  11
BRANCH   1  22
ATOM     20  C   UNL     1       1.587   8.040  19.998  0.00  0.00    +0.000 A 
ATOM     21  C   UNL     1       2.134   6.745  20.084  0.00  0.00    +0.000 A 
ATOM     22  C   UNL     1       2.944   6.208  19.062  0.00  0.00    +0.000 A 
ATOM     23  C   UNL     1       3.146   6.992  17.917  0.00  0.00    +0.000 A 
ATOM     24  C   UNL     1       2.658   8.295  17.837  0.00  0.00    +0.000 A 
ATOM     25  C   UNL     1       1.924   8.836  18.893  0.00  0.00    +0.000 A 
BRANCH  20  27
ATOM     26  C   UNL     1       1.406   9.026  22.139  0.00  0.00    +0.000 C 
ATOM     27  O   UNL     1       0.754   8.572  20.952  0.00  0.00    +0.000 OA
ENDBRANCH  20  27
BRANCH  25  28
ATOM     28  O   UNL     1       1.414  10.148  18.771  0.00  0.00    +0.000 OA
BRANCH  28  29
ATOM     29  C   UNL     1       0.073  10.270  18.415  0.00  0.00    +0.000 C 
ATOM     30  O   UNL     1      -0.517   9.631  17.556  0.00  0.00    +0.000 OA
BRANCH  29  31
ATOM     31  C   UNL     1      -0.626  11.246  19.301  0.00  0.00    +0.000 A 
ATOM     32  C   UNL     1       0.144  11.997  20.206  0.00  0.00    +0.000 A 
ATOM     33  C   UNL     1      -0.458  12.953  21.029  0.00  0.00    +0.000 A 
ATOM     34  C   UNL     1      -1.833  13.170  20.952  0.00  0.00    +0.000 A 
ATOM     35  C   UNL     1      -2.616  12.443  20.048  0.00  0.00    +0.000 A 
ATOM     36  C   UNL     1      -4.097  12.666  19.959  0.00  0.00    +0.000 C 
ATOM     37  C   UNL     1      -2.005  11.479  19.227  0.00  0.00    +0.000 A 
ENDBRANCH  29  31
ENDBRANCH  28  29
ENDBRANCH  25  28
ENDBRANCH   1  22
TORSDOF 9
ENDMDL
MODEL 4
REMARK VINA RESULT:      -9.0      1.255      3.609
REMARK  Name = 
REMARK  13 active torsions:
REMARK  status: ('A' for Active; 'I' for Inactive)
REMARK    1  A    between atoms: C_1  and  O_2
REMARK    2  A    between atoms: O_2  and  C_3
REMARK    3  A    between atoms: C_5  and  C_6
REMARK    4  A    between atoms: C_6  and  C_7
REMARK    5  A    between atoms: C_6  and  C_14
REMARK    6  A    between atoms: C_8  and  C_9
REMARK    7  A    between atoms: C_12  and  O_13
REMARK    8  A    between atoms: C_15  and  C_16
REMARK    9  A    between atoms: C_19  and  O_20
REMARK   10  A    between atoms: C_23  and  O_24
REMARK   11  A    between atoms: O_24  and  C_25
REMARK   12  A    between atoms: C_25  and  C_27
REMARK   13  A    between atoms: C_31  and  C_32
REMARK                            x       y       z     vdW  Elec       q    Type
REMARK                         _______ _______ _______ _____ _____    ______ ____
ROOT
ATOM      1  C   UNL     1       3.725   5.068  17.569  0.00  0.00    +0.000 C 
ENDROOT
BRANCH   1   2
ATOM      2  C   UNL     1       5.187   5.355  17.347  0.00  0.00    +0.000 A 
ATOM      3  C   UNL     1       5.942   5.463  16.135  0.00  0.00    +0.000 A 
ATOM      4  C   UNL     1       5.509   5.308  14.722  0.00  0.00    +0.000 C 
ATOM      5  N   UNL     1       7.225   5.768  16.372  0.00  0.00    +0.000 NA
ATOM      6  N   UNL     1       7.300   5.858  17.703  0.00  0.00    +0.000 N 
ATOM      7  C   UNL     1       6.111   5.639  18.340  0.00  0.00    +0.000 A 
ATOM      8  H   UNL     1       8.201   6.086  18.113  0.00  0.00    +0.000 HD
BRANCH   7   9
ATOM      9  O   UNL     1       5.963   5.719  19.660  0.00  0.00    +0.000 OA
ATOM     10  H   UNL     1       6.786   6.025  20.073  0.00  0.00    +0.000 HD
ENDBRANCH   7   9
ENDBRANCH   1   2
BRANCH   1  11
ATOM     11  C   UNL     1       3.394   3.785  18.300  0.00  0.00    +0.000 A 
ATOM     12  C   UNL     1       2.083   3.204  18.409  0.00  0.00    +0.000 A 
ATOM     13  C   UNL     1       0.791   3.668  17.837  0.00  0.00    +0.000 C 
ATOM     14  N   UNL     1       2.082   2.074  19.124  0.00  0.00    +0.000 NA
ATOM     15  N   UNL     1       3.359   1.920  19.482  0.00  0.00    +0.000 N 
ATOM     16  C   UNL     1       4.188   2.902  19.021  0.00  0.00    +0.000 A 
ATOM     17  H   UNL     1       3.599   1.114  20.046  0.00  0.00    +0.000 HD
BRANCH  16  18
ATOM     18  O   UNL     1       5.491   2.894  19.273  0.00  0.00    +0.000 OA
ATOM     19  H   UNL     1       5.958   3.591  18.784  0.00  0.00    +0.000 HD
ENDBRANCH  16  18
ENDBRANCH   1  11
BRANCH   1  22
ATOM     20  C   UNL     1       2.237   8.573  18.097  0.00  0.00    +0.000 A 
ATOM     21  C   UNL     1       2.856   7.445  17.525  0.00  0.00    +0.000 A 
ATOM     22  C   UNL     1       3.133   6.284  18.277  0.00  0.00    +0.000 A 
ATOM     23  C   UNL     1       2.820   6.309  19.645  0.00  0.00    +0.000 A 
ATOM     24  C   UNL     1       2.159   7.394  20.215  0.00  0.00    +0.000 A 
ATOM     25  C   UNL     1       1.823   8.502  19.436  0.00  0.00    +0.000 A 
BRANCH  20  27
ATOM     26  C   UNL     1       2.517  10.919  18.013  0.00  0.00    +0.000 C 
ATOM     27  O   UNL     1       1.999   9.735  17.405  0.00  0.00    +0.000 OA
ENDBRANCH  20  27
BRANCH  25  28
ATOM     28  O   UNL     1       1.181   9.601  20.049  0.00  0.00    +0.000 OA
BRANCH  28  29
ATOM     29  C   UNL     1      -0.154   9.429  20.406  0.00  0.00    +0.000 C 
ATOM     30  O   UNL     1      -0.580   8.815  21.374  0.00  0.00    +0.000 OA
BRANCH  29  31
ATOM     31  C   UNL     1      -1.052  10.190  19.488  0.00  0.00    +0.000 A 
ATOM     32  C   UNL     1      -1.488  11.465  19.886  0.00  0.00    +0.000 A 
ATOM     33  C   UNL     1      -2.297  12.234  19.044  0.00  0.00    +0.000 A 
ATOM     34  C   UNL     1      -2.673  11.738  17.797  0.00  0.00    +0.000 A 
ATOM     35  C   UNL     1      -2.238  10.476  17.376  0.00  0.00    +0.000 A 
ATOM     36  C   UNL     1      -2.638   9.931  16.036  0.00  0.00    +0.000 C 
ATOM     37  C   UNL     1      -1.429   9.705  18.229  0.00  0.00    +0.000 A 
ENDBRANCH  29  31
ENDBRANCH  28  29
ENDBRANCH  25  28
ENDBRANCH   1  22
TORSDOF 9
ENDMDL
MODEL 5
REMARK VINA RESULT:      -9.0      1.184      1.741
REMARK  Name = 
REMARK  13 active torsions:
REMARK  status: ('A' for Active; 'I' for Inactive)
REMARK    1  A    between atoms: C_1  and  O_2
REMARK    2  A    between atoms: O_2  and  C_3
REMARK    3  A    between atoms: C_5  and  C_6
REMARK    4  A    between atoms: C_6  and  C_7
REMARK    5  A    between atoms: C_6  and  C_14
REMARK    6  A    between atoms: C_8  and  C_9
REMARK    7  A    between atoms: C_12  and  O_13
REMARK    8  A    between atoms: C_15  and  C_16
REMARK    9  A    between atoms: C_19  and  O_20
REMARK   10  A    between atoms: C_23  and  O_24
REMARK   11  A    between atoms: O_24  and  C_25
REMARK   12  A    between atoms: C_25  and  C_27
REMARK   13  A    between atoms: C_31  and  C_32
REMARK                            x       y       z     vdW  Elec       q    Type
REMARK                         _______ _______ _______ _____ _____    ______ ____
ROOT
ATOM      1  C   UNL     1       4.504   4.669  18.853  0.00  0.00    +0.000 C 
ENDROOT
BRANCH   1   2
ATOM      2  C   UNL     1       3.630   3.449  18.735  0.00  0.00    +0.000 A 
ATOM      3  C   UNL     1       2.350   3.277  18.116  0.00  0.00    +0.000 A 
ATOM      4  C   UNL     1       1.488   4.261  17.411  0.00  0.00    +0.000 C 
ATOM      5  N   UNL     1       1.922   2.009  18.200  0.00  0.00    +0.000 NA
ATOM      6  N   UNL     1       2.899   1.377  18.856  0.00  0.00    +0.000 N 
ATOM      7  C   UNL     1       3.954   2.180  19.186  0.00  0.00    +0.000 A 
ATOM      8  H   UNL     1       2.783   0.384  19.035  0.00  0.00    +0.000 HD
BRANCH   7   9
ATOM      9  O   UNL     1       5.044   1.736  19.807  0.00  0.00    +0.000 OA
ATOM     10  H   UNL     1       5.140   2.171  20.669  0.00  0.00    +0.000 HD
ENDBRANCH   7   9
ENDBRANCH   1   2
BRANCH   1  11
ATOM     11  C   UNL     1       5.557   4.850  17.780  0.00  0.00    +0.000 A 
ATOM     12  C   UNL     1       6.885   5.359  17.994  0.00  0.00    +0.000 A 
ATOM     13  C   UNL     1       7.544   5.785  19.257  0.00  0.00    +0.000 C 
ATOM     14  N   UNL     1       7.596   5.423  16.863  0.00  0.00    +0.000 NA
ATOM     15  N   UNL     1       6.755   4.974  15.929  0.00  0.00    +0.000 N 
ATOM     16  C   UNL     1       5.529   4.615  16.411  0.00  0.00    +0.000 A 
ATOM     17  H   UNL     1       7.085   4.937  14.973  0.00  0.00    +0.000 HD
BRANCH  16  18
ATOM     18  O   UNL     1       4.578   4.135  15.620  0.00  0.00    +0.000 OA
ATOM     19  H   UNL     1       3.694   4.256  16.002  0.00  0.00    +0.000 HD
ENDBRANCH  16  18
ENDBRANCH   1  11
BRANCH   1  22
ATOM     20  C   UNL     1       1.967   7.187  20.267  0.00  0.00    +0.000 A 
ATOM     21  C   UNL     1       2.784   6.054  20.089  0.00  0.00    +0.000 A 
ATOM     22  C   UNL     1       3.577   5.879  18.936  0.00  0.00    +0.000 A 
ATOM     23  C   UNL     1       3.483   6.854  17.932  0.00  0.00    +0.000 A 
ATOM     24  C   UNL     1       2.722   8.007  18.113  0.00  0.00    +0.000 A 
ATOM     25  C   UNL     1       2.006   8.198  19.295  0.00  0.00    +0.000 A 
BRANCH  20  27
ATOM     26  C   UNL     1       1.305   8.605  22.040  0.00  0.00    +0.000 C 
ATOM     27  O   UNL     1       1.146   7.361  21.354  0.00  0.00    +0.000 OA
ENDBRANCH  20  27
BRANCH  25  28
ATOM     28  O   UNL     1       1.217   9.362  19.437  0.00  0.00    +0.000 OA
BRANCH  28  29
ATOM     29  C   UNL     1       0.985  10.107  18.284  0.00  0.00    +0.000 C 
ATOM     30  O   UNL     1       1.806  10.409  17.430  0.00  0.00    +0.000 OA
BRANCH  29  31
ATOM     31  C   UNL     1      -0.464  10.436  18.146  0.00  0.00    +0.000 A 
ATOM     32  C   UNL     1      -1.038  11.326  19.069  0.00  0.00    +0.000 A 
ATOM     33  C   UNL     1      -2.381  11.697  18.958  0.00  0.00    +0.000 A 
ATOM     34  C   UNL     1      -3.161  11.184  17.922  0.00  0.00    +0.000 A 
ATOM     35  C   UNL     1      -2.605  10.307  16.984  0.00  0.00    +0.000 A 
ATOM     36  C   UNL     1      -3.436   9.748  15.867  0.00  0.00    +0.000 C 
ATOM     37  C   UNL     1      -1.255   9.934  17.104  0.00  0.00    +0.000 A 
ENDBRANCH  29  31
ENDBRANCH  28  29
ENDBRANCH  25  28
ENDBRANCH   1  22
TORSDOF 9
ENDMDL
MODEL 6
REMARK VINA RESULT:      -8.9      1.786      2.559
REMARK  Name = 
REMARK  13 active torsions:
REMARK  status: ('A' for Active; 'I' for Inactive)
REMARK    1  A    between atoms: C_1  and  O_2
REMARK    2  A    between atoms: O_2  and  C_3
REMARK    3  A    between atoms: C_5  and  C_6
REMARK    4  A    between atoms: C_6  and  C_7
REMARK    5  A    between atoms: C_6  and  C_14
REMARK    6  A    between atoms: C_8  and  C_9
REMARK    7  A    between atoms: C_12  and  O_13
REMARK    8  A    between atoms: C_15  and  C_16
REMARK    9  A    between atoms: C_19  and  O_20
REMARK   10  A    between atoms: C_23  and  O_24
REMARK   11  A    between atoms: O_24  and  C_25
REMARK   12  A    between atoms: C_25  and  C_27
REMARK   13  A    between atoms: C_31  and  C_32
REMARK                            x       y       z     vdW  Elec       q    Type
REMARK                         _______ _______ _______ _____ _____    ______ ____
ROOT
ATOM      1  C   UNL     1       3.594   4.843  19.258  0.00  0.00    +0.000 C 
ENDROOT
BRANCH   1   2
ATOM      2  C   UNL     1       2.451   3.866  19.348  0.00  0.00    +0.000 A 
ATOM      3  C   UNL     1       2.109   2.924  20.371  0.00  0.00    +0.000 A 
ATOM      4  C   UNL     1       2.793   2.615  21.654  0.00  0.00    +0.000 C 
ATOM      5  N   UNL     1       0.981   2.261  20.081  0.00  0.00    +0.000 NA
ATOM      6  N   UNL     1       0.601   2.760  18.902  0.00  0.00    +0.000 N 
ATOM      7  C   UNL     1       1.429   3.735  18.422  0.00  0.00    +0.000 A 
ATOM      8  H   UNL     1      -0.249   2.395  18.484  0.00  0.00    +0.000 HD
BRANCH   7   9
ATOM      9  O   UNL     1       1.208   4.387  17.283  0.00  0.00    +0.000 OA
ATOM     10  H   UNL     1       1.676   5.236  17.285  0.00  0.00    +0.000 HD
ENDBRANCH   7   9
ENDBRANCH   1   2
BRANCH   1  11
ATOM     11  C   UNL     1       4.660   4.539  18.227  0.00  0.00    +0.000 A 
ATOM     12  C   UNL     1       6.051   4.883  18.342  0.00  0.00    +0.000 A 
ATOM     13  C   UNL     1       6.771   5.557  19.455  0.00  0.00    +0.000 C 
ATOM     14  N   UNL     1       6.762   4.503  17.275  0.00  0.00    +0.000 NA
ATOM     15  N   UNL     1       5.859   3.931  16.475  0.00  0.00    +0.000 N 
ATOM     16  C   UNL     1       4.593   3.918  16.986  0.00  0.00    +0.000 A 
ATOM     17  H   UNL     1       6.178   3.565  15.587  0.00  0.00    +0.000 HD
BRANCH  16  18
ATOM     18  O   UNL     1       3.577   3.375  16.326  0.00  0.00    +0.000 OA
ATOM     19  H   UNL     1       2.861   4.013  16.177  0.00  0.00    +0.000 HD
ENDBRANCH  16  18
ENDBRANCH   1  11
BRANCH   1  22
ATOM     20  C   UNL     1       1.632   8.075  19.950  0.00  0.00    +0.000 A 
ATOM     21  C   UNL     1       2.162   6.774  20.048  0.00  0.00    +0.000 A 
ATOM     22  C   UNL     1       2.985   6.226  19.042  0.00  0.00    +0.000 A 
ATOM     23  C   UNL     1       3.218   7.006  17.900  0.00  0.00    +0.000 A 
ATOM     24  C   UNL     1       2.748   8.314  17.810  0.00  0.00    +0.000 A 
ATOM     25  C   UNL     1       2.000   8.866  18.851  0.00  0.00    +0.000 A 
BRANCH  20  27
ATOM     26  C   UNL     1       1.427   9.112  22.065  0.00  0.00    +0.000 C 
ATOM     27  O   UNL     1       0.788   8.618  20.887  0.00  0.00    +0.000 OA
ENDBRANCH  20  27
BRANCH  25  28
ATOM     28  O   UNL     1       1.509  10.184  18.718  0.00  0.00    +0.000 OA
BRANCH  28  29
ATOM     29  C   UNL     1       0.174  10.321  18.346  0.00  0.00    +0.000 C 
ATOM     30  O   UNL     1      -0.485   9.537  17.679  0.00  0.00    +0.000 OA
BRANCH  29  31
ATOM     31  C   UNL     1      -0.425  11.544  18.959  0.00  0.00    +0.000 A 
ATOM     32  C   UNL     1      -1.386  11.383  19.971  0.00  0.00    +0.000 A 
ATOM     33  C   UNL     1      -1.945  12.496  20.603  0.00  0.00    +0.000 A 
ATOM     34  C   UNL     1      -1.548  13.780  20.233  0.00  0.00    +0.000 A 
ATOM     35  C   UNL     1      -0.582  13.962  19.237  0.00  0.00    +0.000 A 
ATOM     36  C   UNL     1      -0.147  15.340  18.829  0.00  0.00    +0.000 C 
ATOM     37  C   UNL     1      -0.026  12.838  18.601  0.00  0.00    +0.000 A 
ENDBRANCH  29  31
ENDBRANCH  28  29
ENDBRANCH  25  28
ENDBRANCH   1  22
TORSDOF 9
ENDMDL
MODEL 7
REMARK VINA RESULT:      -8.9      1.721      2.318
REMARK  Name = 
REMARK  13 active torsions:
REMARK  status: ('A' for Active; 'I' for Inactive)
REMARK    1  A    between atoms: C_1  and  O_2
REMARK    2  A    between atoms: O_2  and  C_3
REMARK    3  A    between atoms: C_5  and  C_6
REMARK    4  A    between atoms: C_6  and  C_7
REMARK    5  A    between atoms: C_6  and  C_14
REMARK    6  A    between atoms: C_8  and  C_9
REMARK    7  A    between atoms: C_12  and  O_13
REMARK    8  A    between atoms: C_15  and  C_16
REMARK    9  A    between atoms: C_19  and  O_20
REMARK   10  A    between atoms: C_23  and  O_24
REMARK   11  A    between atoms: O_24  and  C_25
REMARK   12  A    between atoms: C_25  and  C_27
REMARK   13  A    between atoms: C_31  and  C_32
REMARK                            x       y       z     vdW  Elec       q    Type
REMARK                         _______ _______ _______ _____ _____    ______ ____
ROOT
ATOM      1  C   UNL     1       4.513   5.005  18.896  0.00  0.00    +0.000 C 
ENDROOT
BRANCH   1   2
ATOM      2  C   UNL     1       3.688   3.745  18.922  0.00  0.00    +0.000 A 
ATOM      3  C   UNL     1       2.414   3.454  18.337  0.00  0.00    +0.000 A 
ATOM      4  C   UNL     1       1.510   4.319  17.534  0.00  0.00    +0.000 C 
ATOM      5  N   UNL     1       2.038   2.188  18.565  0.00  0.00    +0.000 NA
ATOM      6  N   UNL     1       3.042   1.671  19.278  0.00  0.00    +0.000 N 
ATOM      7  C   UNL     1       4.065   2.548  19.508  0.00  0.00    +0.000 A 
ATOM      8  H   UNL     1       2.968   0.701  19.567  0.00  0.00    +0.000 HD
BRANCH   7   9
ATOM      9  O   UNL     1       5.175   2.220  20.165  0.00  0.00    +0.000 OA
ATOM     10  H   UNL     1       5.920   2.141  19.549  0.00  0.00    +0.000 HD
ENDBRANCH   7   9
ENDBRANCH   1   2
BRANCH   1  11
ATOM     11  C   UNL     1       5.586   5.086  17.832  0.00  0.00    +0.000 A 
ATOM     12  C   UNL     1       6.934   5.540  18.042  0.00  0.00    +0.000 A 
ATOM     13  C   UNL     1       7.597   5.992  19.293  0.00  0.00    +0.000 C 
ATOM     14  N   UNL     1       7.661   5.518  16.919  0.00  0.00    +0.000 NA
ATOM     15  N   UNL     1       6.811   5.068  15.994  0.00  0.00    +0.000 N 
ATOM     16  C   UNL     1       5.563   4.790  16.474  0.00  0.00    +0.000 A 
ATOM     17  H   UNL     1       7.150   4.971  15.045  0.00  0.00    +0.000 HD
BRANCH  16  18
ATOM     18  O   UNL     1       4.600   4.320  15.692  0.00  0.00    +0.000 OA
ATOM     19  H   UNL     1       4.838   4.374  14.753  0.00  0.00    +0.000 HD
ENDBRANCH  16  18
ENDBRANCH   1  11
BRANCH   1  22
ATOM     20  C   UNL     1       1.854   7.588  19.914  0.00  0.00    +0.000 A 
ATOM     21  C   UNL     1       2.717   6.475  19.905  0.00  0.00    +0.000 A 
ATOM     22  C   UNL     1       3.538   6.176  18.799  0.00  0.00    +0.000 A 
ATOM     23  C   UNL     1       3.427   7.000  17.669  0.00  0.00    +0.000 A 
ATOM     24  C   UNL     1       2.620   8.135  17.679  0.00  0.00    +0.000 A 
ATOM     25  C   UNL     1       1.874   8.457  18.813  0.00  0.00    +0.000 A 
BRANCH  20  27
ATOM     26  C   UNL     1       1.570   8.682  21.990  0.00  0.00    +0.000 C 
ATOM     27  O   UNL     1       1.006   7.876  20.955  0.00  0.00    +0.000 OA
ENDBRANCH  20  27
BRANCH  25  28
ATOM     28  O   UNL     1       1.039   9.597  18.782  0.00  0.00    +0.000 OA
BRANCH  28  29
ATOM     29  C   UNL     1       1.672  10.837  18.762  0.00  0.00    +0.000 C 
ATOM     30  O   UNL     1       2.499  11.224  17.949  0.00  0.00    +0.000 OA
BRANCH  29  31
ATOM     31  C   UNL     1       1.138  11.724  19.837  0.00  0.00    +0.000 A 
ATOM     32  C   UNL     1       1.807  12.931  20.103  0.00  0.00    +0.000 A 
ATOM     33  C   UNL     1       1.323  13.814  21.072  0.00  0.00    +0.000 A 
ATOM     34  C   UNL     1       0.165  13.501  21.781  0.00  0.00    +0.000 A 
ATOM     35  C   UNL     1      -0.525  12.311  21.523  0.00  0.00    +0.000 A 
ATOM     36  C   UNL     1      -1.772  11.964  22.282  0.00  0.00    +0.000 C 
ATOM     37  C   UNL     1      -0.030  11.425  20.550  0.00  0.00    +0.000 A 
ENDBRANCH  29  31
ENDBRANCH  28  29
ENDBRANCH  25  28
ENDBRANCH   1  22
TORSDOF 9
ENDMDL
MODEL 8
REMARK VINA RESULT:      -8.9      1.281      2.103
REMARK  Name = 
REMARK  13 active torsions:
REMARK  status: ('A' for Active; 'I' for Inactive)
REMARK    1  A    between atoms: C_1  and  O_2
REMARK    2  A    between atoms: O_2  and  C_3
REMARK    3  A    between atoms: C_5  and  C_6
REMARK    4  A    between atoms: C_6  and  C_7
REMARK    5  A    between atoms: C_6  and  C_14
REMARK    6  A    between atoms: C_8  and  C_9
REMARK    7  A    between atoms: C_12  and  O_13
REMARK    8  A    between atoms: C_15  and  C_16
REMARK    9  A    between atoms: C_19  and  O_20
REMARK   10  A    between atoms: C_23  and  O_24
REMARK   11  A    between atoms: O_24  and  C_25
REMARK   12  A    between atoms: C_25  and  C_27
REMARK   13  A    between atoms: C_31  and  C_32
REMARK                            x       y       z     vdW  Elec       q    Type
REMARK                         _______ _______ _______ _____ _____    ______ ____
ROOT
ATOM      1  C   UNL     1       3.949   4.853  19.332  0.00  0.00    +0.000 C 
ENDROOT
BRANCH   1   2
ATOM      2  C   UNL     1       2.888   3.789  19.440  0.00  0.00    +0.000 A 
ATOM      3  C   UNL     1       1.714   3.561  18.653  0.00  0.00    +0.000 A 
ATOM      4  C   UNL     1       1.177   4.321  17.493  0.00  0.00    +0.000 C 
ATOM      5  N   UNL     1       1.045   2.473  19.058  0.00  0.00    +0.000 NA
ATOM      6  N   UNL     1       1.767   2.007  20.080  0.00  0.00    +0.000 N 
ATOM      7  C   UNL     1       2.889   2.740  20.344  0.00  0.00    +0.000 A 
ATOM      8  H   UNL     1       1.438   1.169  20.549  0.00  0.00    +0.000 HD
BRANCH   7   9
ATOM      9  O   UNL     1       3.763   2.422  21.296  0.00  0.00    +0.000 OA
ATOM     10  H   UNL     1       4.543   2.996  21.243  0.00  0.00    +0.000 HD
ENDBRANCH   7   9
ENDBRANCH   1   2
BRANCH   1  11
ATOM     11  C   UNL     1       5.033   4.620  18.301  0.00  0.00    +0.000 A 
ATOM     12  C   UNL     1       6.417   4.982  18.453  0.00  0.00    +0.000 A 
ATOM     13  C   UNL     1       7.110   5.611  19.608  0.00  0.00    +0.000 C 
ATOM     14  N   UNL     1       7.148   4.669  17.378  0.00  0.00    +0.000 NA
ATOM     15  N   UNL     1       6.266   4.123  16.537  0.00  0.00    +0.000 N 
ATOM     16  C   UNL     1       4.993   4.063  17.029  0.00  0.00    +0.000 A 
ATOM     17  H   UNL     1       6.602   3.808  15.636  0.00  0.00    +0.000 HD
BRANCH  16  18
ATOM     18  O   UNL     1       3.996   3.536  16.330  0.00  0.00    +0.000 OA
ATOM     19  H   UNL     1       3.415   2.990  16.882  0.00  0.00    +0.000 HD
ENDBRANCH  16  18
ENDBRANCH   1  11
BRANCH   1  22
ATOM     20  C   UNL     1       1.730   7.924  19.981  0.00  0.00    +0.000 A 
ATOM     21  C   UNL     1       2.363   6.671  20.095  0.00  0.00    +0.000 A 
ATOM     22  C   UNL     1       3.230   6.179  19.098  0.00  0.00    +0.000 A 
ATOM     23  C   UNL     1       3.403   6.962  17.946  0.00  0.00    +0.000 A 
ATOM     24  C   UNL     1       2.828   8.227  17.840  0.00  0.00    +0.000 A 
ATOM     25  C   UNL     1       2.036   8.728  18.873  0.00  0.00    +0.000 A 
BRANCH  20  27
ATOM     26  C   UNL     1       1.435   8.919  22.105  0.00  0.00    +0.000 C 
ATOM     27  O   UNL     1       0.842   8.408  20.910  0.00  0.00    +0.000 OA
ENDBRANCH  20  27
BRANCH  25  28
ATOM     28  O   UNL     1       1.440  10.001  18.722  0.00  0.00    +0.000 OA
BRANCH  28  29
ATOM     29  C   UNL     1       0.131  10.028  18.248  0.00  0.00    +0.000 C 
ATOM     30  O   UNL     1      -0.345   9.325  17.369  0.00  0.00    +0.000 OA
BRANCH  29  31
ATOM     31  C   UNL     1      -0.698  10.993  19.031  0.00  0.00    +0.000 A 
ATOM     32  C   UNL     1      -2.014  11.240  18.607  0.00  0.00    +0.000 A 
ATOM     33  C   UNL     1      -2.842  12.103  19.330  0.00  0.00    +0.000 A 
ATOM     34  C   UNL     1      -2.364  12.723  20.484  0.00  0.00    +0.000 A 
ATOM     35  C   UNL     1      -1.061  12.479  20.931  0.00  0.00    +0.000 A 
ATOM     36  C   UNL     1      -0.536  13.142  22.170  0.00  0.00    +0.000 C 
ATOM     37  C   UNL     1      -0.231  11.614  20.197  0.00  0.00    +0.000 A 
ENDBRANCH  29  31
ENDBRANCH  28  29
ENDBRANCH  25  28
ENDBRANCH   1  22
TORSDOF 9
ENDMDL
MODEL 9
REMARK VINA RESULT:      -8.8      1.564      3.292
REMARK  Name = 
REMARK  13 active torsions:
REMARK  status: ('A' for Active; 'I' for Inactive)
REMARK    1  A    between atoms: C_1  and  O_2
REMARK    2  A    between atoms: O_2  and  C_3
REMARK    3  A    between atoms: C_5  and  C_6
REMARK    4  A    between atoms: C_6  and  C_7
REMARK    5  A    between atoms: C_6  and  C_14
REMARK    6  A    between atoms: C_8  and  C_9
REMARK    7  A    between atoms: C_12  and  O_13
REMARK    8  A    between atoms: C_15  and  C_16
REMARK    9  A    between atoms: C_19  and  O_20
REMARK   10  A    between atoms: C_23  and  O_24
REMARK   11  A    between atoms: O_24  and  C_25
REMARK   12  A    between atoms: C_25  and  C_27
REMARK   13  A    between atoms: C_31  and  C_32
REMARK                            x       y       z     vdW  Elec       q    Type
REMARK                         _______ _______ _______ _____ _____    ______ ____
ROOT
ATOM      1  C   UNL     1       4.271   4.725  17.092  0.00  0.00    +0.000 C 
ENDROOT
BRANCH   1   2
ATOM      2  C   UNL     1       5.542   5.229  16.463  0.00  0.00    +0.000 A 
ATOM      3  C   UNL     1       6.087   5.010  15.156  0.00  0.00    +0.000 A 
ATOM      4  C   UNL     1       5.562   4.200  14.026  0.00  0.00    +0.000 C 
ATOM      5  N   UNL     1       7.236   5.675  14.976  0.00  0.00    +0.000 NA
ATOM      6  N   UNL     1       7.432   6.310  16.135  0.00  0.00    +0.000 N 
ATOM      7  C   UNL     1       6.445   6.098  17.055  0.00  0.00    +0.000 A 
ATOM      8  H   UNL     1       8.262   6.888  16.224  0.00  0.00    +0.000 HD
BRANCH   7   9
ATOM      9  O   UNL     1       6.431   6.669  18.257  0.00  0.00    +0.000 OA
ATOM     10  H   UNL     1       5.521   6.736  18.587  0.00  0.00    +0.000 HD
ENDBRANCH   7   9
ENDBRANCH   1   2
BRANCH   1  11
ATOM     11  C   UNL     1       4.421   3.649  18.146  0.00  0.00    +0.000 A 
ATOM     12  C   UNL     1       3.604   2.471  18.255  0.00  0.00    +0.000 A 
ATOM     13  C   UNL     1       2.485   2.011  17.391  0.00  0.00    +0.000 C 
ATOM     14  N   UNL     1       3.955   1.700  19.290  0.00  0.00    +0.000 NA
ATOM     15  N   UNL     1       4.971   2.358  19.852  0.00  0.00    +0.000 N 
ATOM     16  C   UNL     1       5.298   3.522  19.216  0.00  0.00    +0.000 A 
ATOM     17  H   UNL     1       5.401   1.953  20.673  0.00  0.00    +0.000 HD
BRANCH  16  18
ATOM     18  O   UNL     1       6.294   4.292  19.635  0.00  0.00    +0.000 OA
ATOM     19  H   UNL     1       6.492   5.002  19.003  0.00  0.00    +0.000 HD
ENDBRANCH  16  18
ENDBRANCH   1  11
BRANCH   1  22
ATOM     20  C   UNL     1       2.222   6.940  19.473  0.00  0.00    +0.000 A 
ATOM     21  C   UNL     1       2.859   5.837  18.874  0.00  0.00    +0.000 A 
ATOM     22  C   UNL     1       3.528   5.942  17.637  0.00  0.00    +0.000 A 
ATOM     23  C   UNL     1       3.492   7.184  16.986  0.00  0.00    +0.000 A 
ATOM     24  C   UNL     1       2.914   8.299  17.588  0.00  0.00    +0.000 A 
ATOM     25  C   UNL     1       2.325   8.192  18.848  0.00  0.00    +0.000 A 
BRANCH  20  27
ATOM     26  C   UNL     1       1.395   5.541  21.191  0.00  0.00    +0.000 C 
ATOM     27  O   UNL     1       1.520   6.857  20.651  0.00  0.00    +0.000 OA
ENDBRANCH  20  27
BRANCH  25  28
ATOM     28  O   UNL     1       1.718   9.332  19.420  0.00  0.00    +0.000 OA
BRANCH  28  29
ATOM     29  C   UNL     1       1.439  10.392  18.560  0.00  0.00    +0.000 C 
ATOM     30  O   UNL     1       2.239  11.004  17.868  0.00  0.00    +0.000 OA
BRANCH  29  31
ATOM     31  C   UNL     1      -0.030  10.653  18.499  0.00  0.00    +0.000 A 
ATOM     32  C   UNL     1      -0.587  11.556  19.419  0.00  0.00    +0.000 A 
ATOM     33  C   UNL     1      -1.950  11.865  19.376  0.00  0.00    +0.000 A 
ATOM     34  C   UNL     1      -2.766  11.277  18.411  0.00  0.00    +0.000 A 
ATOM     35  C   UNL     1      -2.229  10.385  17.477  0.00  0.00    +0.000 A 
ATOM     36  C   UNL     1      -3.099   9.745  16.435  0.00  0.00    +0.000 C 
ATOM     37  C   UNL     1      -0.858  10.075  17.528  0.00  0.00    +0.000 A 
ENDBRANCH  29  31
ENDBRANCH  28  29
ENDBRANCH  25  28
ENDBRANCH   1  22
TORSDOF 9
ENDMDL
