MODEL 1
REMARK VINA RESULT:      -7.8      0.000      0.000
REMARK  Name = 
REMARK  13 active torsions:
REMARK  status: ('A' for Active; 'I' for Inactive)
REMARK    1  A    between atoms: C_1  and  O_2
REMARK    2  A    between atoms: O_2  and  C_3
REMARK    3  A    between atoms: C_6  and  N_7
REMARK    4  A    between atoms: N_7  and  C_8
REMARK    5  A    between atoms: C_8  and  O_10
REMARK    6  A    between atoms: O_10  and  C_11
REMARK    7  A    between atoms: C_11  and  C_12
REMARK    8  A    between atoms: C_12  and  N_13
REMARK    9  A    between atoms: C_14  and  C_16
REMARK   10  A    between atoms: C_16  and  C_17
REMARK   11  A    between atoms: C_16  and  C_18
REMARK   12  A    between atoms: C_16  and  O_19
REMARK   13  A    between atoms: O_19  and  C_20
REMARK                            x       y       z     vdW  Elec       q    Type
REMARK                         _______ _______ _______ _____ _____    ______ ____
ROOT
ATOM      1  C   UNL     1       5.218   3.837  19.286  0.00  0.00    +0.000 C 
ENDROOT
BRANCH   1   2
ATOM      2  N   UNL     1       5.423   4.763  18.182  0.00  0.00    +0.000 N 
ATOM      3  C   UNL     1       6.691   5.068  17.730  0.00  0.00    +0.000 C 
ATOM      4  O   UNL     1       7.659   4.398  18.106  0.00  0.00    +0.000 OA
ATOM      5  H   UNL     1       4.629   5.308  17.875  0.00  0.00    +0.000 HD
BRANCH   3   6
ATOM      6  C   UNL     1       6.847   6.310  16.771  0.00  0.00    +0.000 C 
ATOM      7  C   UNL     1       5.438   6.845  16.447  0.00  0.00    +0.000 C 
ATOM      8  C   UNL     1       7.690   7.321  17.578  0.00  0.00    +0.000 C 
BRANCH   6   9
ATOM      9  O   UNL     1       7.531   5.858  15.584  0.00  0.00    +0.000 OA
BRANCH   9  10
ATOM     10  C   UNL     1       6.936   5.060  14.640  0.00  0.00    +0.000 A 
ATOM     11  C   UNL     1       5.781   4.297  14.797  0.00  0.00    +0.000 A 
ATOM     12  C   UNL     1       5.298   3.478  13.770  0.00  0.00    +0.000 A 
ATOM     13  C   UNL     1       5.971   3.422  12.558  0.00  0.00    +0.000 A 
ATOM     14 CL   UNL     1       5.384   2.396  11.310  0.00  0.00    +0.000 Cl
ATOM     15  C   UNL     1       7.111   4.194  12.365  0.00  0.00    +0.000 A 
ATOM     16  C   UNL     1       7.591   5.011  13.402  0.00  0.00    +0.000 A 
ENDBRANCH   9  10
ENDBRANCH   6   9
ENDBRANCH   3   6
ENDBRANCH   1   2
BRANCH   1  17
ATOM     17  C   UNL     1       4.015   2.912  19.050  0.00  0.00    +0.000 C 
BRANCH  17  18
ATOM     18  O   UNL     1       2.794   3.682  19.092  0.00  0.00    +0.000 OA
BRANCH  18  19
ATOM     19  C   UNL     1       2.308   4.161  20.266  0.00  0.00    +0.000 C 
ATOM     20  S   UNL     1       1.443   3.219  21.337  0.00  0.00    +0.000 S 
BRANCH  19  21
ATOM     21  N   UNL     1       2.667   5.440  20.606  0.00  0.00    +0.000 N 
ATOM     22  H   UNL     1       3.294   5.489  21.402  0.00  0.00    +0.000 HD
BRANCH  21  26
ATOM     23  C   UNL     1       1.432   9.146  18.990  0.00  0.00    +0.000 A 
ATOM     24  C   UNL     1       1.068   8.805  20.290  0.00  0.00    +0.000 A 
ATOM     25  C   UNL     1       1.460   7.585  20.843  0.00  0.00    +0.000 A 
ATOM     26  C   UNL     1       2.202   6.670  20.096  0.00  0.00    +0.000 A 
ATOM     27  C   UNL     1       2.565   7.014  18.787  0.00  0.00    +0.000 A 
ATOM     28  C   UNL     1       2.179   8.245  18.235  0.00  0.00    +0.000 A 
BRANCH  23  30
ATOM     29  C   UNL     1       1.969  11.349  18.316  0.00  0.00    +0.000 C 
ATOM     30  O   UNL     1       0.978  10.366  18.577  0.00  0.00    +0.000 OA
ENDBRANCH  23  30
ENDBRANCH  21  26
ENDBRANCH  19  21
ENDBRANCH  18  19
ENDBRANCH  17  18
ENDBRANCH   1  17
TORSDOF 10
ENDMDL
MODEL 2
REMARK VINA RESULT:      -7.3      4.150      5.835
REMARK  Name = 
REMARK  13 active torsions:
REMARK  status: ('A' for Active; 'I' for Inactive)
REMARK    1  A    between atoms: C_1  and  O_2
REMARK    2  A    between atoms: O_2  and  C_3
REMARK    3  A    between atoms: C_6  and  N_7
REMARK    4  A    between atoms: N_7  and  C_8
REMARK    5  A    between atoms: C_8  and  O_10
REMARK    6  A    between atoms: O_10  and  C_11
REMARK    7  A    between atoms: C_11  and  C_12
REMARK    8  A    between atoms: C_12  and  N_13
REMARK    9  A    between atoms: C_14  and  C_16
REMARK   10  A    between atoms: C_16  and  C_17
REMARK   11  A    between atoms: C_16  and  C_18
REMARK   12  A    between atoms: C_16  and  O_19
REMARK   13  A    between atoms: O_19  and  C_20
REMARK                            x       y       z     vdW  Elec       q    Type
REMARK                         _______ _______ _______ _____ _____    ______ ____
ROOT
ATOM      1  C   UNL     1       3.747   7.843  17.378  0.00  0.00    +0.000 C 
ENDROOT
BRANCH   1   2
ATOM      2  N   UNL     1       4.623   6.687  17.500  0.00  0.00    +0.000 N 
ATOM      3  C   UNL     1       5.191   6.100  16.386  0.00  0.00    +0.000 C 
ATOM      4  O   UNL     1       5.143   6.673  15.293  0.00  0.00    +0.000 OA
ATOM      5  H   UNL     1       4.663   6.222  18.396  0.00  0.00    +0.000 HD
BRANCH   3   6
ATOM      6  C   UNL     1       5.847   4.677  16.565  0.00  0.00    +0.000 C 
ATOM      7  C   UNL     1       6.775   4.422  15.360  0.00  0.00    +0.000 C 
ATOM      8  C   UNL     1       6.622   4.769  17.896  0.00  0.00    +0.000 C 
BRANCH   6   9
ATOM      9  O   UNL     1       4.777   3.711  16.625  0.00  0.00    +0.000 OA
BRANCH   9  10
ATOM     10  C   UNL     1       3.993   3.536  17.738  0.00  0.00    +0.000 A 
ATOM     11  C   UNL     1       4.403   3.068  18.985  0.00  0.00    +0.000 A 
ATOM     12  C   UNL     1       3.493   2.883  20.033  0.00  0.00    +0.000 A 
ATOM     13  C   UNL     1       2.151   3.178  19.842  0.00  0.00    +0.000 A 
ATOM     14 CL   UNL     1       1.038   2.925  21.127  0.00  0.00    +0.000 Cl
ATOM     15  C   UNL     1       1.720   3.673  18.616  0.00  0.00    +0.000 A 
ATOM     16  C   UNL     1       2.638   3.852  17.569  0.00  0.00    +0.000 A 
ENDBRANCH   9  10
ENDBRANCH   6   9
ENDBRANCH   3   6
ENDBRANCH   1   2
BRANCH   1  17
ATOM     17  C   UNL     1       2.456   7.679  18.193  0.00  0.00    +0.000 C 
BRANCH  17  18
ATOM     18  O   UNL     1       1.463   8.620  17.726  0.00  0.00    +0.000 OA
BRANCH  18  19
ATOM     19  C   UNL     1       0.819   9.444  18.592  0.00  0.00    +0.000 C 
ATOM     20  S   UNL     1       0.970   9.312  20.247  0.00  0.00    +0.000 S 
BRANCH  19  21
ATOM     21  N   UNL     1       0.122  10.490  18.044  0.00  0.00    +0.000 N 
ATOM     22  H   UNL     1       0.701  11.292  17.819  0.00  0.00    +0.000 HD
BRANCH  21  26
ATOM     23  C   UNL     1      -4.062  10.988  17.699  0.00  0.00    +0.000 A 
ATOM     24  C   UNL     1      -3.402  10.096  16.858  0.00  0.00    +0.000 A 
ATOM     25  C   UNL     1      -2.021   9.918  16.950  0.00  0.00    +0.000 A 
ATOM     26  C   UNL     1      -1.269  10.651  17.868  0.00  0.00    +0.000 A 
ATOM     27  C   UNL     1      -1.934  11.550  18.712  0.00  0.00    +0.000 A 
ATOM     28  C   UNL     1      -3.325  11.721  18.626  0.00  0.00    +0.000 A 
BRANCH  23  30
ATOM     29  C   UNL     1      -6.052  12.237  17.973  0.00  0.00    +0.000 C 
ATOM     30  O   UNL     1      -5.411  11.063  17.497  0.00  0.00    +0.000 OA
ENDBRANCH  23  30
ENDBRANCH  21  26
ENDBRANCH  19  21
ENDBRANCH  18  19
ENDBRANCH  17  18
ENDBRANCH   1  17
TORSDOF 10
ENDMDL
MODEL 3
REMARK VINA RESULT:      -7.2      1.212      1.681
REMARK  Name = 
REMARK  13 active torsions:
REMARK  status: ('A' for Active; 'I' for Inactive)
REMARK    1  A    between atoms: C_1  and  O_2
REMARK    2  A    between atoms: O_2  and  C_3
REMARK    3  A    between atoms: C_6  and  N_7
REMARK    4  A    between atoms: N_7  and  C_8
REMARK    5  A    between atoms: C_8  and  O_10
REMARK    6  A    between atoms: O_10  and  C_11
REMARK    7  A    between atoms: C_11  and  C_12
REMARK    8  A    between atoms: C_12  and  N_13
REMARK    9  A    between atoms: C_14  and  C_16
REMARK   10  A    between atoms: C_16  and  C_17
REMARK   11  A    between atoms: C_16  and  C_18
REMARK   12  A    between atoms: C_16  and  O_19
REMARK   13  A    between atoms: O_19  and  C_20
REMARK                            x       y       z     vdW  Elec       q    Type
REMARK                         _______ _______ _______ _____ _____    ______ ____
ROOT
ATOM      1  C   UNL     1       4.015   3.406  18.225  0.00  0.00    +0.000 C 
ENDROOT
BRANCH   1   2
ATOM      2  N   UNL     1       5.317   3.878  17.775  0.00  0.00    +0.000 N 
ATOM      3  C   UNL     1       5.673   5.207  17.885  0.00  0.00    +0.000 C 
ATOM      4  O   UNL     1       4.984   5.977  18.563  0.00  0.00    +0.000 OA
ATOM      5  H   UNL     1       5.880   3.244  17.224  0.00  0.00    +0.000 HD
BRANCH   3   6
ATOM      6  C   UNL     1       6.943   5.693  17.087  0.00  0.00    +0.000 C 
ATOM      7  C   UNL     1       7.569   6.875  17.854  0.00  0.00    +0.000 C 
ATOM      8  C   UNL     1       7.872   4.460  17.045  0.00  0.00    +0.000 C 
BRANCH   6   9
ATOM      9  O   UNL     1       6.503   6.086  15.770  0.00  0.00    +0.000 OA
BRANCH   9  10
ATOM     10  C   UNL     1       6.445   5.214  14.713  0.00  0.00    +0.000 A 
ATOM     11  C   UNL     1       7.437   4.987  13.760  0.00  0.00    +0.000 A 
ATOM     12  C   UNL     1       7.238   4.104  12.692  0.00  0.00    +0.000 A 
ATOM     13  C   UNL     1       6.033   3.426  12.572  0.00  0.00    +0.000 A 
ATOM     14 CL   UNL     1       5.789   2.363  11.244  0.00  0.00    +0.000 Cl
ATOM     15  C   UNL     1       5.037   3.614  13.524  0.00  0.00    +0.000 A 
ATOM     16  C   UNL     1       5.243   4.504  14.590  0.00  0.00    +0.000 A 
ENDBRANCH   9  10
ENDBRANCH   6   9
ENDBRANCH   3   6
ENDBRANCH   1   2
BRANCH   1  17
ATOM     17  C   UNL     1       2.875   4.322  17.758  0.00  0.00    +0.000 C 
BRANCH  17  18
ATOM     18  O   UNL     1       1.851   4.380  18.776  0.00  0.00    +0.000 OA
BRANCH  18  19
ATOM     19  C   UNL     1       2.126   4.847  20.021  0.00  0.00    +0.000 C 
ATOM     20  S   UNL     1       1.998   3.901  21.389  0.00  0.00    +0.000 S 
BRANCH  19  21
ATOM     21  N   UNL     1       2.644   6.114  20.104  0.00  0.00    +0.000 N 
ATOM     22  H   UNL     1       3.592   6.144  20.465  0.00  0.00    +0.000 HD
BRANCH  21  26
ATOM     23  C   UNL     1       0.914   9.895  19.342  0.00  0.00    +0.000 A 
ATOM     24  C   UNL     1       0.710   9.279  20.575  0.00  0.00    +0.000 A 
ATOM     25  C   UNL     1       1.267   8.028  20.848  0.00  0.00    +0.000 A 
ATOM     26  C   UNL     1       2.017   7.358  19.882  0.00  0.00    +0.000 A 
ATOM     27  C   UNL     1       2.219   7.978  18.641  0.00  0.00    +0.000 A 
ATOM     28  C   UNL     1       1.666   9.240  18.371  0.00  0.00    +0.000 A 
BRANCH  23  30
ATOM     29  C   UNL     1      -1.108  11.102  19.119  0.00  0.00    +0.000 C 
ATOM     30  O   UNL     1       0.308  11.112  19.212  0.00  0.00    +0.000 OA
ENDBRANCH  23  30
ENDBRANCH  21  26
ENDBRANCH  19  21
ENDBRANCH  18  19
ENDBRANCH  17  18
ENDBRANCH   1  17
TORSDOF 10
ENDMDL
MODEL 4
REMARK VINA RESULT:      -7.1      4.204      6.052
REMARK  Name = 
REMARK  13 active torsions:
REMARK  status: ('A' for Active; 'I' for Inactive)
REMARK    1  A    between atoms: C_1  and  O_2
REMARK    2  A    between atoms: O_2  and  C_3
REMARK    3  A    between atoms: C_6  and  N_7
REMARK    4  A    between atoms: N_7  and  C_8
REMARK    5  A    between atoms: C_8  and  O_10
REMARK    6  A    between atoms: O_10  and  C_11
REMARK    7  A    between atoms: C_11  and  C_12
REMARK    8  A    between atoms: C_12  and  N_13
REMARK    9  A    between atoms: C_14  and  C_16
REMARK   10  A    between atoms: C_16  and  C_17
REMARK   11  A    between atoms: C_16  and  C_18
REMARK   12  A    between atoms: C_16  and  O_19
REMARK   13  A    between atoms: O_19  and  C_20
REMARK                            x       y       z     vdW  Elec       q    Type
REMARK                         _______ _______ _______ _____ _____    ______ ____
ROOT
ATOM      1  C   UNL     1       3.479   7.882  17.198  0.00  0.00    +0.000 C 
ENDROOT
BRANCH   1   2
ATOM      2  N   UNL     1       4.390   6.857  17.689  0.00  0.00    +0.000 N 
ATOM      3  C   UNL     1       5.188   6.135  16.824  0.00  0.00    +0.000 C 
ATOM      4  O   UNL     1       5.305   6.493  15.647  0.00  0.00    +0.000 OA
ATOM      5  H   UNL     1       4.294   6.569  18.653  0.00  0.00    +0.000 HD
BRANCH   3   6
ATOM      6  C   UNL     1       5.888   4.838  17.384  0.00  0.00    +0.000 C 
ATOM      7  C   UNL     1       7.140   4.561  16.528  0.00  0.00    +0.000 C 
ATOM      8  C   UNL     1       6.240   5.187  18.847  0.00  0.00    +0.000 C 
BRANCH   6   9
ATOM      9  O   UNL     1       4.935   3.759  17.298  0.00  0.00    +0.000 OA
BRANCH   9  10
ATOM     10  C   UNL     1       3.990   3.520  18.263  0.00  0.00    +0.000 A 
ATOM     11  C   UNL     1       2.680   3.996  18.288  0.00  0.00    +0.000 A 
ATOM     12  C   UNL     1       1.822   3.724  19.360  0.00  0.00    +0.000 A 
ATOM     13  C   UNL     1       2.270   2.957  20.425  0.00  0.00    +0.000 A 
ATOM     14 CL   UNL     1       1.217   2.647  21.748  0.00  0.00    +0.000 Cl
ATOM     15  C   UNL     1       3.563   2.447  20.413  0.00  0.00    +0.000 A 
ATOM     16  C   UNL     1       4.419   2.727  19.335  0.00  0.00    +0.000 A 
ENDBRANCH   9  10
ENDBRANCH   6   9
ENDBRANCH   3   6
ENDBRANCH   1   2
BRANCH   1  17
ATOM     17  C   UNL     1       2.305   8.121  18.159  0.00  0.00    +0.000 C 
BRANCH  17  18
ATOM     18  O   UNL     1       1.949   9.521  18.153  0.00  0.00    +0.000 OA
BRANCH  18  19
ATOM     19  C   UNL     1       0.886   9.976  18.865  0.00  0.00    +0.000 C 
ATOM     20  S   UNL     1       0.620   9.558  20.457  0.00  0.00    +0.000 S 
BRANCH  19  21
ATOM     21  N   UNL     1       0.090  10.911  18.254  0.00  0.00    +0.000 N 
ATOM     22  H   UNL     1       0.597  11.727  17.927  0.00  0.00    +0.000 HD
BRANCH  21  26
ATOM     23  C   UNL     1      -4.130  11.068  18.064  0.00  0.00    +0.000 A 
ATOM     24  C   UNL     1      -3.437  10.163  17.264  0.00  0.00    +0.000 A 
ATOM     25  C   UNL     1      -2.043  10.096  17.306  0.00  0.00    +0.000 A 
ATOM     26  C   UNL     1      -1.314  10.953  18.130  0.00  0.00    +0.000 A 
ATOM     27  C   UNL     1      -2.014  11.865  18.933  0.00  0.00    +0.000 A 
ATOM     28  C   UNL     1      -3.416  11.925  18.897  0.00  0.00    +0.000 A 
BRANCH  23  30
ATOM     29  C   UNL     1      -6.085  12.146  17.282  0.00  0.00    +0.000 C 
ATOM     30  O   UNL     1      -5.487  11.026  17.919  0.00  0.00    +0.000 OA
ENDBRANCH  23  30
ENDBRANCH  21  26
ENDBRANCH  19  21
ENDBRANCH  18  19
ENDBRANCH  17  18
ENDBRANCH   1  17
TORSDOF 10
ENDMDL
MODEL 5
REMARK VINA RESULT:      -7.0      5.851      7.699
REMARK  Name = 
REMARK  13 active torsions:
REMARK  status: ('A' for Active; 'I' for Inactive)
REMARK    1  A    between atoms: C_1  and  O_2
REMARK    2  A    between atoms: O_2  and  C_3
REMARK    3  A    between atoms: C_6  and  N_7
REMARK    4  A    between atoms: N_7  and  C_8
REMARK    5  A    between atoms: C_8  and  O_10
REMARK    6  A    between atoms: O_10  and  C_11
REMARK    7  A    between atoms: C_11  and  C_12
REMARK    8  A    between atoms: C_12  and  N_13
REMARK    9  A    between atoms: C_14  and  C_16
REMARK   10  A    between atoms: C_16  and  C_17
REMARK   11  A    between atoms: C_16  and  C_18
REMARK   12  A    between atoms: C_16  and  O_19
REMARK   13  A    between atoms: O_19  and  C_20
REMARK                            x       y       z     vdW  Elec       q    Type
REMARK                         _______ _______ _______ _____ _____    ______ ____
ROOT
ATOM      1  C   UNL     1       8.003   7.536  18.129  0.00  0.00    +0.000 C 
ENDROOT
BRANCH   1   2
ATOM      2  N   UNL     1       6.746   7.136  17.512  0.00  0.00    +0.000 N 
ATOM      3  C   UNL     1       6.305   5.829  17.570  0.00  0.00    +0.000 C 
ATOM      4  O   UNL     1       6.855   5.023  18.328  0.00  0.00    +0.000 OA
ATOM      5  H   UNL     1       6.296   7.798  16.895  0.00  0.00    +0.000 HD
BRANCH   3   6
ATOM      6  C   UNL     1       5.124   5.413  16.611  0.00  0.00    +0.000 C 
ATOM      7  C   UNL     1       5.389   6.036  15.226  0.00  0.00    +0.000 C 
ATOM      8  C   UNL     1       5.172   3.870  16.581  0.00  0.00    +0.000 C 
BRANCH   6   9
ATOM      9  O   UNL     1       3.900   5.907  17.191  0.00  0.00    +0.000 OA
BRANCH   9  10
ATOM     10  C   UNL     1       3.245   5.263  18.210  0.00  0.00    +0.000 A 
ATOM     11  C   UNL     1       3.551   5.319  19.569  0.00  0.00    +0.000 A 
ATOM     12  C   UNL     1       2.837   4.571  20.512  0.00  0.00    +0.000 A 
ATOM     13  C   UNL     1       1.791   3.759  20.101  0.00  0.00    +0.000 A 
ATOM     14 CL   UNL     1       0.934   2.827  21.263  0.00  0.00    +0.000 Cl
ATOM     15  C   UNL     1       1.446   3.706  18.754  0.00  0.00    +0.000 A 
ATOM     16  C   UNL     1       2.170   4.456  17.814  0.00  0.00    +0.000 A 
ENDBRANCH   9  10
ENDBRANCH   6   9
ENDBRANCH   3   6
ENDBRANCH   1   2
BRANCH   1  17
ATOM     17  C   UNL     1       8.269   9.040  17.979  0.00  0.00    +0.000 C 
BRANCH  17  18
ATOM     18  O   UNL     1       9.029   9.516  19.111  0.00  0.00    +0.000 OA
BRANCH  18  19
ATOM     19  C   UNL     1       9.400  10.819  19.209  0.00  0.00    +0.000 C 
ATOM     20  S   UNL     1       9.103  11.935  18.006  0.00  0.00    +0.000 S 
BRANCH  19  21
ATOM     21  N   UNL     1       9.927  11.221  20.410  0.00  0.00    +0.000 N 
ATOM     22  H   UNL     1      10.781  10.735  20.663  0.00  0.00    +0.000 HD
BRANCH  21  26
ATOM     23  C   UNL     1       8.502  13.943  23.313  0.00  0.00    +0.000 A 
ATOM     24  C   UNL     1       8.046  12.628  23.318  0.00  0.00    +0.000 A 
ATOM     25  C   UNL     1       8.498  11.712  22.367  0.00  0.00    +0.000 A 
ATOM     26  C   UNL     1       9.397  12.103  21.374  0.00  0.00    +0.000 A 
ATOM     27  C   UNL     1       9.853  13.428  21.369  0.00  0.00    +0.000 A 
ATOM     28  C   UNL     1       9.405  14.345  22.332  0.00  0.00    +0.000 A 
BRANCH  23  30
ATOM     29  C   UNL     1       7.097  14.086  25.210  0.00  0.00    +0.000 C 
ATOM     30  O   UNL     1       7.974  14.729  24.298  0.00  0.00    +0.000 OA
ENDBRANCH  23  30
ENDBRANCH  21  26
ENDBRANCH  19  21
ENDBRANCH  18  19
ENDBRANCH  17  18
ENDBRANCH   1  17
TORSDOF 10
ENDMDL
MODEL 6
REMARK VINA RESULT:      -6.9      3.985      5.614
REMARK  Name = 
REMARK  13 active torsions:
REMARK  status: ('A' for Active; 'I' for Inactive)
REMARK    1  A    between atoms: C_1  and  O_2
REMARK    2  A    between atoms: O_2  and  C_3
REMARK    3  A    between atoms: C_6  and  N_7
REMARK    4  A    between atoms: N_7  and  C_8
REMARK    5  A    between atoms: C_8  and  O_10
REMARK    6  A    between atoms: O_10  and  C_11
REMARK    7  A    between atoms: C_11  and  C_12
REMARK    8  A    between atoms: C_12  and  N_13
REMARK    9  A    between atoms: C_14  and  C_16
REMARK   10  A    between atoms: C_16  and  C_17
REMARK   11  A    between atoms: C_16  and  C_18
REMARK   12  A    between atoms: C_16  and  O_19
REMARK   13  A    between atoms: O_19  and  C_20
REMARK                            x       y       z     vdW  Elec       q    Type
REMARK                         _______ _______ _______ _____ _____    ______ ____
ROOT
ATOM      1  C   UNL     1       3.625   7.677  17.197  0.00  0.00    +0.000 C 
ENDROOT
BRANCH   1   2
ATOM      2  N   UNL     1       4.875   7.147  17.724  0.00  0.00    +0.000 N 
ATOM      3  C   UNL     1       5.505   6.074  17.126  0.00  0.00    +0.000 C 
ATOM      4  O   UNL     1       5.139   5.685  16.012  0.00  0.00    +0.000 OA
ATOM      5  H   UNL     1       5.173   7.470  18.634  0.00  0.00    +0.000 HD
BRANCH   3   6
ATOM      6  C   UNL     1       6.655   5.358  17.933  0.00  0.00    +0.000 C 
ATOM      7  C   UNL     1       7.379   4.387  16.979  0.00  0.00    +0.000 C 
ATOM      8  C   UNL     1       7.569   6.506  18.410  0.00  0.00    +0.000 C 
BRANCH   6   9
ATOM      9  O   UNL     1       6.040   4.660  19.036  0.00  0.00    +0.000 OA
BRANCH   9  10
ATOM     10  C   UNL     1       4.817   4.045  18.941  0.00  0.00    +0.000 A 
ATOM     11  C   UNL     1       4.477   2.985  18.101  0.00  0.00    +0.000 A 
ATOM     12  C   UNL     1       3.175   2.475  18.057  0.00  0.00    +0.000 A 
ATOM     13  C   UNL     1       2.192   3.020  18.869  0.00  0.00    +0.000 A 
ATOM     14 CL   UNL     1       0.589   2.403  18.791  0.00  0.00    +0.000 Cl
ATOM     15  C   UNL     1       2.510   4.060  19.735  0.00  0.00    +0.000 A 
ATOM     16  C   UNL     1       3.818   4.569  19.771  0.00  0.00    +0.000 A 
ENDBRANCH   9  10
ENDBRANCH   6   9
ENDBRANCH   3   6
ENDBRANCH   1   2
BRANCH   1  17
ATOM     17  C   UNL     1       2.603   7.960  18.307  0.00  0.00    +0.000 C 
BRANCH  17  18
ATOM     18  O   UNL     1       1.534   8.780  17.786  0.00  0.00    +0.000 OA
BRANCH  18  19
ATOM     19  C   UNL     1       0.786   9.562  18.608  0.00  0.00    +0.000 C 
ATOM     20  S   UNL     1       0.858   9.451  20.271  0.00  0.00    +0.000 S 
BRANCH  19  21
ATOM     21  N   UNL     1       0.047  10.552  18.013  0.00  0.00    +0.000 N 
ATOM     22  H   UNL     1       0.605  11.328  17.673  0.00  0.00    +0.000 HD
BRANCH  21  26
ATOM     23  C   UNL     1      -4.133  10.980  17.557  0.00  0.00    +0.000 A 
ATOM     24  C   UNL     1      -3.475  11.677  18.567  0.00  0.00    +0.000 A 
ATOM     25  C   UNL     1      -2.096  11.548  18.740  0.00  0.00    +0.000 A 
ATOM     26  C   UNL     1      -1.353  10.697  17.922  0.00  0.00    +0.000 A 
ATOM     27  C   UNL     1      -2.018   9.994  16.908  0.00  0.00    +0.000 A 
ATOM     28  C   UNL     1      -3.403  10.132  16.728  0.00  0.00    +0.000 A 
BRANCH  23  30
ATOM     29  C   UNL     1      -5.994  12.169  18.404  0.00  0.00    +0.000 C 
ATOM     30  O   UNL     1      -5.481  11.198  17.505  0.00  0.00    +0.000 OA
ENDBRANCH  23  30
ENDBRANCH  21  26
ENDBRANCH  19  21
ENDBRANCH  18  19
ENDBRANCH  17  18
ENDBRANCH   1  17
TORSDOF 10
ENDMDL
MODEL 7
REMARK VINA RESULT:      -6.9      3.784      5.636
REMARK  Name = 
REMARK  13 active torsions:
REMARK  status: ('A' for Active; 'I' for Inactive)
REMARK    1  A    between atoms: C_1  and  O_2
REMARK    2  A    between atoms: O_2  and  C_3
REMARK    3  A    between atoms: C_6  and  N_7
REMARK    4  A    between atoms: N_7  and  C_8
REMARK    5  A    between atoms: C_8  and  O_10
REMARK    6  A    between atoms: O_10  and  C_11
REMARK    7  A    between atoms: C_11  and  C_12
REMARK    8  A    between atoms: C_12  and  N_13
REMARK    9  A    between atoms: C_14  and  C_16
REMARK   10  A    between atoms: C_16  and  C_17
REMARK   11  A    between atoms: C_16  and  C_18
REMARK   12  A    between atoms: C_16  and  O_19
REMARK   13  A    between atoms: O_19  and  C_20
REMARK                            x       y       z     vdW  Elec       q    Type
REMARK                         _______ _______ _______ _____ _____    ______ ____
ROOT
ATOM      1  C   UNL     1       1.387   8.544  21.745  0.00  0.00    +0.000 C 
ENDROOT
BRANCH   1   2
ATOM      2  N   UNL     1       1.525   8.160  20.347  0.00  0.00    +0.000 N 
ATOM      3  C   UNL     1       2.008   6.917  19.991  0.00  0.00    +0.000 C 
ATOM      4  O   UNL     1       2.125   6.031  20.844  0.00  0.00    +0.000 OA
ATOM      5  H   UNL     1       1.426   8.886  19.651  0.00  0.00    +0.000 HD
BRANCH   3   6
ATOM      6  C   UNL     1       2.436   6.702  18.488  0.00  0.00    +0.000 C 
ATOM      7  C   UNL     1       1.578   5.562  17.904  0.00  0.00    +0.000 C 
ATOM      8  C   UNL     1       2.157   8.058  17.806  0.00  0.00    +0.000 C 
BRANCH   6   9
ATOM      9  O   UNL     1       3.840   6.369  18.481  0.00  0.00    +0.000 OA
BRANCH   9  10
ATOM     10  C   UNL     1       4.445   5.713  17.439  0.00  0.00    +0.000 A 
ATOM     11  C   UNL     1       4.696   4.345  17.345  0.00  0.00    +0.000 A 
ATOM     12  C   UNL     1       5.371   3.797  16.248  0.00  0.00    +0.000 A 
ATOM     13  C   UNL     1       5.796   4.623  15.217  0.00  0.00    +0.000 A 
ATOM     14 CL   UNL     1       6.645   3.946  13.885  0.00  0.00    +0.000 Cl
ATOM     15  C   UNL     1       5.534   5.988  15.272  0.00  0.00    +0.000 A 
ATOM     16  C   UNL     1       4.860   6.529  16.379  0.00  0.00    +0.000 A 
ENDBRANCH   9  10
ENDBRANCH   6   9
ENDBRANCH   3   6
ENDBRANCH   1   2
BRANCH   1  17
ATOM     17  C   UNL     1       1.301  10.067  21.922  0.00  0.00    +0.000 C 
BRANCH  17  18
ATOM     18  O   UNL     1       0.084  10.407  22.622  0.00  0.00    +0.000 OA
BRANCH  18  19
ATOM     19  C   UNL     1      -0.821  11.262  22.080  0.00  0.00    +0.000 C 
ATOM     20  S   UNL     1      -2.024  11.990  22.975  0.00  0.00    +0.000 S 
BRANCH  19  21
ATOM     21  N   UNL     1      -0.630  11.610  20.767  0.00  0.00    +0.000 N 
ATOM     22  H   UNL     1       0.144  12.250  20.624  0.00  0.00    +0.000 HD
BRANCH  21  26
ATOM     23  C   UNL     1      -2.825  10.694  17.273  0.00  0.00    +0.000 A 
ATOM     24  C   UNL     1      -3.326  11.627  18.177  0.00  0.00    +0.000 A 
ATOM     25  C   UNL     1      -2.621  11.943  19.340  0.00  0.00    +0.000 A 
ATOM     26  C   UNL     1      -1.414  11.310  19.634  0.00  0.00    +0.000 A 
ATOM     27  C   UNL     1      -0.913  10.369  18.724  0.00  0.00    +0.000 A 
ATOM     28  C   UNL     1      -1.618  10.060  17.550  0.00  0.00    +0.000 A 
BRANCH  23  30
ATOM     29  C   UNL     1      -2.951  10.343  14.937  0.00  0.00    +0.000 C 
ATOM     30  O   UNL     1      -3.620  10.482  16.182  0.00  0.00    +0.000 OA
ENDBRANCH  23  30
ENDBRANCH  21  26
ENDBRANCH  19  21
ENDBRANCH  18  19
ENDBRANCH  17  18
ENDBRANCH   1  17
TORSDOF 10
ENDMDL
MODEL 8
REMARK VINA RESULT:      -6.9      4.218      6.185
REMARK  Name = 
REMARK  13 active torsions:
REMARK  status: ('A' for Active; 'I' for Inactive)
REMARK    1  A    between atoms: C_1  and  O_2
REMARK    2  A    between atoms: O_2  and  C_3
REMARK    3  A    between atoms: C_6  and  N_7
REMARK    4  A    between atoms: N_7  and  C_8
REMARK    5  A    between atoms: C_8  and  O_10
REMARK    6  A    between atoms: O_10  and  C_11
REMARK    7  A    between atoms: C_11  and  C_12
REMARK    8  A    between atoms: C_12  and  N_13
REMARK    9  A    between atoms: C_14  and  C_16
REMARK   10  A    between atoms: C_16  and  C_17
REMARK   11  A    between atoms: C_16  and  C_18
REMARK   12  A    between atoms: C_16  and  O_19
REMARK   13  A    between atoms: O_19  and  C_20
REMARK                            x       y       z     vdW  Elec       q    Type
REMARK                         _______ _______ _______ _____ _____    ______ ____
ROOT
ATOM      1  C   UNL     1       0.858   9.546  19.569  0.00  0.00    +0.000 C 
ENDROOT
BRANCH   1   2
ATOM      2  N   UNL     1       1.584   8.302  19.784  0.00  0.00    +0.000 N 
ATOM      3  C   UNL     1       2.286   7.697  18.760  0.00  0.00    +0.000 C 
ATOM      4  O   UNL     1       2.493   8.309  17.707  0.00  0.00    +0.000 OA
ATOM      5  H   UNL     1       1.416   7.806  20.648  0.00  0.00    +0.000 HD
BRANCH   3   6
ATOM      6  C   UNL     1       2.760   6.210  18.978  0.00  0.00    +0.000 C 
ATOM      7  C   UNL     1       2.452   5.817  20.437  0.00  0.00    +0.000 C 
ATOM      8  C   UNL     1       1.941   5.387  17.961  0.00  0.00    +0.000 C 
BRANCH   6   9
ATOM      9  O   UNL     1       4.175   6.160  18.701  0.00  0.00    +0.000 OA
BRANCH   9  10
ATOM     10  C   UNL     1       4.687   5.710  17.510  0.00  0.00    +0.000 A 
ATOM     11  C   UNL     1       5.012   6.481  16.395  0.00  0.00    +0.000 A 
ATOM     12  C   UNL     1       5.481   5.897  15.212  0.00  0.00    +0.000 A 
ATOM     13  C   UNL     1       5.638   4.521  15.138  0.00  0.00    +0.000 A 
ATOM     14 CL   UNL     1       6.191   3.809  13.674  0.00  0.00    +0.000 Cl
ATOM     15  C   UNL     1       5.346   3.731  16.245  0.00  0.00    +0.000 A 
ATOM     16  C   UNL     1       4.873   4.325  17.426  0.00  0.00    +0.000 A 
ENDBRANCH   9  10
ENDBRANCH   6   9
ENDBRANCH   3   6
ENDBRANCH   1   2
BRANCH   1  17
ATOM     17  C   UNL     1       1.132  10.574  20.676  0.00  0.00    +0.000 C 
BRANCH  17  18
ATOM     18  O   UNL     1      -0.087  11.284  20.992  0.00  0.00    +0.000 OA
BRANCH  18  19
ATOM     19  C   UNL     1      -0.708  12.056  20.064  0.00  0.00    +0.000 C 
ATOM     20  S   UNL     1       0.054  13.316  19.281  0.00  0.00    +0.000 S 
BRANCH  19  21
ATOM     21  N   UNL     1      -1.974  11.679  19.695  0.00  0.00    +0.000 N 
ATOM     22  H   UNL     1      -2.612  11.574  20.477  0.00  0.00    +0.000 HD
BRANCH  21  26
ATOM     23  C   UNL     1      -3.621  10.561  15.966  0.00  0.00    +0.000 A 
ATOM     24  C   UNL     1      -2.402  10.022  16.371  0.00  0.00    +0.000 A 
ATOM     25  C   UNL     1      -1.836  10.379  17.596  0.00  0.00    +0.000 A 
ATOM     26  C   UNL     1      -2.467  11.305  18.428  0.00  0.00    +0.000 A 
ATOM     27  C   UNL     1      -3.692  11.848  18.017  0.00  0.00    +0.000 A 
ATOM     28  C   UNL     1      -4.264  11.480  16.789  0.00  0.00    +0.000 A 
BRANCH  23  30
ATOM     29  C   UNL     1      -3.047   9.859  13.781  0.00  0.00    +0.000 C 
ATOM     30  O   UNL     1      -4.054  10.125  14.746  0.00  0.00    +0.000 OA
ENDBRANCH  23  30
ENDBRANCH  21  26
ENDBRANCH  19  21
ENDBRANCH  18  19
ENDBRANCH  17  18
ENDBRANCH   1  17
TORSDOF 10
ENDMDL
MODEL 9
REMARK VINA RESULT:      -6.9      5.757      7.880
REMARK  Name = 
REMARK  13 active torsions:
REMARK  status: ('A' for Active; 'I' for Inactive)
REMARK    1  A    between atoms: C_1  and  O_2
REMARK    2  A    between atoms: O_2  and  C_3
REMARK    3  A    between atoms: C_6  and  N_7
REMARK    4  A    between atoms: N_7  and  C_8
REMARK    5  A    between atoms: C_8  and  O_10
REMARK    6  A    between atoms: O_10  and  C_11
REMARK    7  A    between atoms: C_11  and  C_12
REMARK    8  A    between atoms: C_12  and  N_13
REMARK    9  A    between atoms: C_14  and  C_16
REMARK   10  A    between atoms: C_16  and  C_17
REMARK   11  A    between atoms: C_16  and  C_18
REMARK   12  A    between atoms: C_16  and  O_19
REMARK   13  A    between atoms: O_19  and  C_20
REMARK                            x       y       z     vdW  Elec       q    Type
REMARK                         _______ _______ _______ _____ _____    ______ ____
ROOT
ATOM      1  C   UNL     1       8.178   9.211  17.959  0.00  0.00    +0.000 C 
ENDROOT
BRANCH   1   2
ATOM      2  N   UNL     1       8.091   7.804  18.323  0.00  0.00    +0.000 N 
ATOM      3  C   UNL     1       7.226   6.947  17.671  0.00  0.00    +0.000 C 
ATOM      4  O   UNL     1       6.672   7.306  16.626  0.00  0.00    +0.000 OA
ATOM      5  H   UNL     1       8.547   7.512  19.177  0.00  0.00    +0.000 HD
BRANCH   3   6
ATOM      6  C   UNL     1       6.951   5.542  18.331  0.00  0.00    +0.000 C 
ATOM      7  C   UNL     1       6.793   4.504  17.202  0.00  0.00    +0.000 C 
ATOM      8  C   UNL     1       8.193   5.274  19.208  0.00  0.00    +0.000 C 
BRANCH   6   9
ATOM      9  O   UNL     1       5.747   5.661  19.117  0.00  0.00    +0.000 OA
BRANCH   9  10
ATOM     10  C   UNL     1       4.629   4.899  18.888  0.00  0.00    +0.000 A 
ATOM     11  C   UNL     1       3.510   5.258  18.138  0.00  0.00    +0.000 A 
ATOM     12  C   UNL     1       2.404   4.409  18.020  0.00  0.00    +0.000 A 
ATOM     13  C   UNL     1       2.412   3.174  18.651  0.00  0.00    +0.000 A 
ATOM     14 CL   UNL     1       1.039   2.147  18.520  0.00  0.00    +0.000 Cl
ATOM     15  C   UNL     1       3.526   2.779  19.383  0.00  0.00    +0.000 A 
ATOM     16  C   UNL     1       4.631   3.639  19.499  0.00  0.00    +0.000 A 
ENDBRANCH   9  10
ENDBRANCH   6   9
ENDBRANCH   3   6
ENDBRANCH   1   2
BRANCH   1  17
ATOM     17  C   UNL     1       9.284   9.942  18.733  0.00  0.00    +0.000 C 
BRANCH  17  18
ATOM     18  O   UNL     1       9.705  11.109  17.993  0.00  0.00    +0.000 OA
BRANCH  18  19
ATOM     19  C   UNL     1      10.205  12.199  18.630  0.00  0.00    +0.000 C 
ATOM     20  S   UNL     1      11.095  12.094  20.037  0.00  0.00    +0.000 S 
BRANCH  19  21
ATOM     21  N   UNL     1      10.056  13.406  17.996  0.00  0.00    +0.000 N 
ATOM     22  H   UNL     1      10.805  13.620  17.346  0.00  0.00    +0.000 HD
BRANCH  21  26
ATOM     23  C   UNL     1       7.097  16.386  18.482  0.00  0.00    +0.000 A 
ATOM     24  C   UNL     1       8.429  16.686  18.756  0.00  0.00    +0.000 A 
ATOM     25  C   UNL     1       9.423  15.717  18.607  0.00  0.00    +0.000 A 
ATOM     26  C   UNL     1       9.099  14.421  18.208  0.00  0.00    +0.000 A 
ATOM     27  C   UNL     1       7.757  14.120  17.935  0.00  0.00    +0.000 A 
ATOM     28  C   UNL     1       6.760  15.098  18.076  0.00  0.00    +0.000 A 
BRANCH  23  30
ATOM     29  C   UNL     1       5.435  17.372  19.846  0.00  0.00    +0.000 C 
ATOM     30  O   UNL     1       6.233  17.426  18.673  0.00  0.00    +0.000 OA
ENDBRANCH  23  30
ENDBRANCH  21  26
ENDBRANCH  19  21
ENDBRANCH  18  19
ENDBRANCH  17  18
ENDBRANCH   1  17
TORSDOF 10
ENDMDL
