MODEL 1
REMARK VINA RESULT:      -8.0      0.000      0.000
REMARK  Name = 
REMARK  10 active torsions:
REMARK  status: ('A' for Active; 'I' for Inactive)
REMARK    1  A    between atoms: C_1  and  C_2
REMARK    2  A    between atoms: C_4  and  C_5
REMARK    3  A    between atoms: N_6  and  C_7
REMARK    4  A    between atoms: C_7  and  C_8
REMARK    5  A    between atoms: C_8  and  C_9
REMARK    6  A    between atoms: C_8  and  N_10
REMARK    7  A    between atoms: C_11  and  C_13
REMARK    8  A    between atoms: C_15  and  C_16
REMARK    9  A    between atoms: C_16  and  O_17
REMARK   10  A    between atoms: O_17  and  C_18
REMARK                            x       y       z     vdW  Elec       q    Type
REMARK                         _______ _______ _______ _____ _____    ______ ____
ROOT
ATOM      1  C   UNL     1       7.443   6.847  17.618  0.00  0.00    +0.000 A 
ATOM      2  C   UNL     1       8.315   7.335  18.624  0.00  0.00    +0.000 A 
ATOM      3  C   UNL     1       8.345   8.692  18.429  0.00  0.00    +0.000 A 
ATOM      4  O   UNL     1       7.532   9.011  17.386  0.00  0.00    +0.000 OA
ATOM      5  N   UNL     1       6.971   7.857  16.866  0.00  0.00    +0.000 NA
ENDROOT
BRANCH   1   7
ATOM      6  N   UNL     1       5.782   5.231  17.002  0.00  0.00    +0.000 N 
ATOM      7  C   UNL     1       7.094   5.449  17.365  0.00  0.00    +0.000 C 
ATOM      8  O   UNL     1       7.920   4.543  17.455  0.00  0.00    +0.000 OA
ATOM      9  H   UNL     1       5.167   6.044  16.979  0.00  0.00    +0.000 HD
BRANCH   6  10
ATOM     10  C   UNL     1       5.258   3.900  16.718  0.00  0.00    +0.000 C 
ATOM     11  C   UNL     1       5.613   3.522  15.277  0.00  0.00    +0.000 C 
BRANCH  10  12
ATOM     12  C   UNL     1       3.741   3.782  16.935  0.00  0.00    +0.000 C 
BRANCH  12  18
ATOM     13  C   UNL     1       2.201   7.378  19.756  0.00  0.00    +0.000 C 
ATOM     14  C   UNL     1       2.612   6.002  19.389  0.00  0.00    +0.000 A 
ATOM     15  C   UNL     1       2.772   4.886  20.239  0.00  0.00    +0.000 A 
ATOM     16  C   UNL     1       3.190   3.859  19.419  0.00  0.00    +0.000 A 
ATOM     17  C   UNL     1       3.509   2.448  19.744  0.00  0.00    +0.000 C 
ATOM     18  N   UNL     1       3.291   4.409  18.166  0.00  0.00    +0.000 N 
ATOM     19  N   UNL     1       2.891   5.696  18.118  0.00  0.00    +0.000 NA
ENDBRANCH  12  18
ENDBRANCH  10  12
ENDBRANCH   6  10
ENDBRANCH   1   7
BRANCH   3  20
ATOM     20  C   UNL     1       9.073   9.808  19.074  0.00  0.00    +0.000 C 
BRANCH  20  21
ATOM     21  O   UNL     1       9.691  10.554  18.029  0.00  0.00    +0.000 OA
BRANCH  21  22
ATOM     22  C   UNL     1       9.721  11.916  18.174  0.00  0.00    +0.000 A 
ATOM     23  C   UNL     1       8.761  12.827  17.728  0.00  0.00    +0.000 A 
ATOM     24  F   UNL     1       7.664  12.423  17.071  0.00  0.00    +0.000 F 
ATOM     25  C   UNL     1       8.906  14.199  17.944  0.00  0.00    +0.000 A 
ATOM     26  C   UNL     1      10.026  14.688  18.613  0.00  0.00    +0.000 A 
ATOM     27  C   UNL     1      10.998  13.797  19.059  0.00  0.00    +0.000 A 
ATOM     28  C   UNL     1      10.841  12.428  18.835  0.00  0.00    +0.000 A 
ATOM     29  F   UNL     1      11.798  11.598  19.278  0.00  0.00    +0.000 F 
ENDBRANCH  21  22
ENDBRANCH  20  21
ENDBRANCH   3  20
TORSDOF 7
ENDMDL
MODEL 2
REMARK VINA RESULT:      -7.7      0.994      1.186
REMARK  Name = 
REMARK  10 active torsions:
REMARK  status: ('A' for Active; 'I' for Inactive)
REMARK    1  A    between atoms: C_1  and  C_2
REMARK    2  A    between atoms: C_4  and  C_5
REMARK    3  A    between atoms: N_6  and  C_7
REMARK    4  A    between atoms: C_7  and  C_8
REMARK    5  A    between atoms: C_8  and  C_9
REMARK    6  A    between atoms: C_8  and  N_10
REMARK    7  A    between atoms: C_11  and  C_13
REMARK    8  A    between atoms: C_15  and  C_16
REMARK    9  A    between atoms: C_16  and  O_17
REMARK   10  A    between atoms: O_17  and  C_18
REMARK                            x       y       z     vdW  Elec       q    Type
REMARK                         _______ _______ _______ _____ _____    ______ ____
ROOT
ATOM      1  C   UNL     1       7.427   6.339  17.625  0.00  0.00    +0.000 A 
ATOM      2  C   UNL     1       7.970   6.997  18.758  0.00  0.00    +0.000 A 
ATOM      3  C   UNL     1       8.313   8.245  18.305  0.00  0.00    +0.000 A 
ATOM      4  O   UNL     1       7.986   8.347  16.989  0.00  0.00    +0.000 OA
ATOM      5  N   UNL     1       7.439   7.152  16.553  0.00  0.00    +0.000 NA
ENDROOT
BRANCH   1   7
ATOM      6  N   UNL     1       5.703   4.754  18.137  0.00  0.00    +0.000 N 
ATOM      7  C   UNL     1       6.939   4.961  17.562  0.00  0.00    +0.000 C 
ATOM      8  O   UNL     1       7.582   4.065  17.021  0.00  0.00    +0.000 OA
ATOM      9  H   UNL     1       5.259   5.556  18.582  0.00  0.00    +0.000 HD
BRANCH   6  10
ATOM     10  C   UNL     1       5.065   3.443  18.170  0.00  0.00    +0.000 C 
ATOM     11  C   UNL     1       4.026   3.365  17.048  0.00  0.00    +0.000 C 
BRANCH  10  12
ATOM     12  C   UNL     1       4.407   3.119  19.521  0.00  0.00    +0.000 C 
BRANCH  12  18
ATOM     13  C   UNL     1       1.898   7.122  20.491  0.00  0.00    +0.000 C 
ATOM     14  C   UNL     1       2.135   5.687  20.207  0.00  0.00    +0.000 A 
ATOM     15  C   UNL     1       1.197   4.632  20.216  0.00  0.00    +0.000 A 
ATOM     16  C   UNL     1       1.921   3.497  19.915  0.00  0.00    +0.000 A 
ATOM     17  C   UNL     1       1.474   2.090  19.772  0.00  0.00    +0.000 C 
ATOM     18  N   UNL     1       3.221   3.916  19.783  0.00  0.00    +0.000 N 
ATOM     19  N   UNL     1       3.362   5.252  19.904  0.00  0.00    +0.000 NA
ENDBRANCH  12  18
ENDBRANCH  10  12
ENDBRANCH   6  10
ENDBRANCH   1   7
BRANCH   3  20
ATOM     20  C   UNL     1       8.963   9.421  18.925  0.00  0.00    +0.000 C 
BRANCH  20  21
ATOM     21  O   UNL     1       9.382  10.268  17.859  0.00  0.00    +0.000 OA
BRANCH  21  22
ATOM     22  C   UNL     1       9.424  11.613  18.116  0.00  0.00    +0.000 A 
ATOM     23  C   UNL     1       8.513  12.578  17.680  0.00  0.00    +0.000 A 
ATOM     24  F   UNL     1       7.459  12.252  16.918  0.00  0.00    +0.000 F 
ATOM     25  C   UNL     1       8.665  13.925  18.016  0.00  0.00    +0.000 A 
ATOM     26  C   UNL     1       9.742  14.334  18.800  0.00  0.00    +0.000 A 
ATOM     27  C   UNL     1      10.666  13.389  19.238  0.00  0.00    +0.000 A 
ATOM     28  C   UNL     1      10.503  12.046  18.893  0.00  0.00    +0.000 A 
ATOM     29  F   UNL     1      11.412  11.162  19.332  0.00  0.00    +0.000 F 
ENDBRANCH  21  22
ENDBRANCH  20  21
ENDBRANCH   3  20
TORSDOF 7
ENDMDL
MODEL 3
REMARK VINA RESULT:      -7.7      6.474     10.366
REMARK  Name = 
REMARK  10 active torsions:
REMARK  status: ('A' for Active; 'I' for Inactive)
REMARK    1  A    between atoms: C_1  and  C_2
REMARK    2  A    between atoms: C_4  and  C_5
REMARK    3  A    between atoms: N_6  and  C_7
REMARK    4  A    between atoms: C_7  and  C_8
REMARK    5  A    between atoms: C_8  and  C_9
REMARK    6  A    between atoms: C_8  and  N_10
REMARK    7  A    between atoms: C_11  and  C_13
REMARK    8  A    between atoms: C_15  and  C_16
REMARK    9  A    between atoms: C_16  and  O_17
REMARK   10  A    between atoms: O_17  and  C_18
REMARK                            x       y       z     vdW  Elec       q    Type
REMARK                         _______ _______ _______ _____ _____    ______ ____
ROOT
ATOM      1  C   UNL     1       1.121   9.879  19.132  0.00  0.00    +0.000 A 
ATOM      2  C   UNL     1       1.758   9.201  18.061  0.00  0.00    +0.000 A 
ATOM      3  C   UNL     1       2.204   8.026  18.610  0.00  0.00    +0.000 A 
ATOM      4  O   UNL     1       1.847   7.982  19.922  0.00  0.00    +0.000 OA
ATOM      5  N   UNL     1       1.176   9.146  20.259  0.00  0.00    +0.000 NA
ENDROOT
BRANCH   1   7
ATOM      6  N   UNL     1      -0.694  11.314  19.760  0.00  0.00    +0.000 N 
ATOM      7  C   UNL     1       0.503  11.204  19.085  0.00  0.00    +0.000 C 
ATOM      8  O   UNL     1       1.027  12.148  18.499  0.00  0.00    +0.000 OA
ATOM      9  H   UNL     1      -1.059  10.468  20.196  0.00  0.00    +0.000 HD
BRANCH   6  10
ATOM     10  C   UNL     1      -1.451  12.559  19.815  0.00  0.00    +0.000 C 
ATOM     11  C   UNL     1      -0.971  13.383  21.013  0.00  0.00    +0.000 C 
BRANCH  10  12
ATOM     12  C   UNL     1      -2.971  12.345  19.897  0.00  0.00    +0.000 C 
BRANCH  12  18
ATOM     13  C   UNL     1      -2.965  10.741  15.349  0.00  0.00    +0.000 C 
ATOM     14  C   UNL     1      -3.528  11.181  16.647  0.00  0.00    +0.000 A 
ATOM     15  C   UNL     1      -4.885  11.372  16.987  0.00  0.00    +0.000 A 
ATOM     16  C   UNL     1      -4.876  11.809  18.296  0.00  0.00    +0.000 A 
ATOM     17  C   UNL     1      -6.003  12.161  19.192  0.00  0.00    +0.000 C 
ATOM     18  N   UNL     1      -3.551  11.888  18.645  0.00  0.00    +0.000 N 
ATOM     19  N   UNL     1      -2.719  11.460  17.675  0.00  0.00    +0.000 NA
ENDBRANCH  12  18
ENDBRANCH  10  12
ENDBRANCH   6  10
ENDBRANCH   1   7
BRANCH   3  20
ATOM     20  C   UNL     1       2.981   6.879  18.091  0.00  0.00    +0.000 C 
BRANCH  20  21
ATOM     21  O   UNL     1       3.083   5.936  19.154  0.00  0.00    +0.000 OA
BRANCH  21  22
ATOM     22  C   UNL     1       2.528   4.702  18.945  0.00  0.00    +0.000 A 
ATOM     23  C   UNL     1       2.861   3.794  17.938  0.00  0.00    +0.000 A 
ATOM     24  F   UNL     1       3.806   4.074  17.027  0.00  0.00    +0.000 F 
ATOM     25  C   UNL     1       2.221   2.557  17.833  0.00  0.00    +0.000 A 
ATOM     26  C   UNL     1       1.226   2.205  18.742  0.00  0.00    +0.000 A 
ATOM     27  C   UNL     1       0.874   3.099  19.750  0.00  0.00    +0.000 A 
ATOM     28  C   UNL     1       1.520   4.333  19.841  0.00  0.00    +0.000 A 
ATOM     29  F   UNL     1       1.155   5.170  20.823  0.00  0.00    +0.000 F 
ENDBRANCH  21  22
ENDBRANCH  20  21
ENDBRANCH   3  20
TORSDOF 7
ENDMDL
MODEL 4
REMARK VINA RESULT:      -7.6      1.484      1.690
REMARK  Name = 
REMARK  10 active torsions:
REMARK  status: ('A' for Active; 'I' for Inactive)
REMARK    1  A    between atoms: C_1  and  C_2
REMARK    2  A    between atoms: C_4  and  C_5
REMARK    3  A    between atoms: N_6  and  C_7
REMARK    4  A    between atoms: C_7  and  C_8
REMARK    5  A    between atoms: C_8  and  C_9
REMARK    6  A    between atoms: C_8  and  N_10
REMARK    7  A    between atoms: C_11  and  C_13
REMARK    8  A    between atoms: C_15  and  C_16
REMARK    9  A    between atoms: C_16  and  O_17
REMARK   10  A    between atoms: O_17  and  C_18
REMARK                            x       y       z     vdW  Elec       q    Type
REMARK                         _______ _______ _______ _____ _____    ______ ____
ROOT
ATOM      1  C   UNL     1       7.644   6.380  17.661  0.00  0.00    +0.000 A 
ATOM      2  C   UNL     1       7.670   7.707  17.159  0.00  0.00    +0.000 A 
ATOM      3  C   UNL     1       8.208   8.453  18.177  0.00  0.00    +0.000 A 
ATOM      4  O   UNL     1       8.506   7.634  19.221  0.00  0.00    +0.000 OA
ATOM      5  N   UNL     1       8.145   6.333  18.908  0.00  0.00    +0.000 NA
ENDROOT
BRANCH   1   7
ATOM      6  N   UNL     1       5.751   5.101  16.932  0.00  0.00    +0.000 N 
ATOM      7  C   UNL     1       7.126   5.195  16.977  0.00  0.00    +0.000 C 
ATOM      8  O   UNL     1       7.869   4.360  16.467  0.00  0.00    +0.000 OA
ATOM      9  H   UNL     1       5.221   5.832  17.405  0.00  0.00    +0.000 HD
BRANCH   6  10
ATOM     10  C   UNL     1       5.063   3.985  16.295  0.00  0.00    +0.000 C 
ATOM     11  C   UNL     1       5.054   4.204  14.779  0.00  0.00    +0.000 C 
BRANCH  10  12
ATOM     12  C   UNL     1       3.628   3.780  16.807  0.00  0.00    +0.000 C 
BRANCH  12  18
ATOM     13  C   UNL     1       2.250   7.536  19.500  0.00  0.00    +0.000 C 
ATOM     14  C   UNL     1       2.738   6.170  19.200  0.00  0.00    +0.000 A 
ATOM     15  C   UNL     1       3.183   5.186  20.108  0.00  0.00    +0.000 A 
ATOM     16  C   UNL     1       3.553   4.109  19.330  0.00  0.00    +0.000 A 
ATOM     17  C   UNL     1       4.086   2.783  19.725  0.00  0.00    +0.000 C 
ATOM     18  N   UNL     1       3.350   4.509  18.033  0.00  0.00    +0.000 N 
ATOM     19  N   UNL     1       2.805   5.738  17.936  0.00  0.00    +0.000 NA
ENDBRANCH  12  18
ENDBRANCH  10  12
ENDBRANCH   6  10
ENDBRANCH   1   7
BRANCH   3  20
ATOM     20  C   UNL     1       8.480   9.895  18.361  0.00  0.00    +0.000 C 
BRANCH  20  21
ATOM     21  O   UNL     1       9.610   9.994  19.223  0.00  0.00    +0.000 OA
BRANCH  21  22
ATOM     22  C   UNL     1       9.933  11.243  19.682  0.00  0.00    +0.000 A 
ATOM     23  C   UNL     1       9.428  11.872  20.822  0.00  0.00    +0.000 A 
ATOM     24  F   UNL     1       8.521  11.273  21.609  0.00  0.00    +0.000 F 
ATOM     25  C   UNL     1       9.843  13.154  21.189  0.00  0.00    +0.000 A 
ATOM     26  C   UNL     1      10.778  13.836  20.413  0.00  0.00    +0.000 A 
ATOM     27  C   UNL     1      11.288  13.230  19.268  0.00  0.00    +0.000 A 
ATOM     28  C   UNL     1      10.863  11.949  18.912  0.00  0.00    +0.000 A 
ATOM     29  F   UNL     1      11.374  11.395  17.803  0.00  0.00    +0.000 F 
ENDBRANCH  21  22
ENDBRANCH  20  21
ENDBRANCH   3  20
TORSDOF 7
ENDMDL
MODEL 5
REMARK VINA RESULT:      -7.6      1.454      1.718
REMARK  Name = 
REMARK  10 active torsions:
REMARK  status: ('A' for Active; 'I' for Inactive)
REMARK    1  A    between atoms: C_1  and  C_2
REMARK    2  A    between atoms: C_4  and  C_5
REMARK    3  A    between atoms: N_6  and  C_7
REMARK    4  A    between atoms: C_7  and  C_8
REMARK    5  A    between atoms: C_8  and  C_9
REMARK    6  A    between atoms: C_8  and  N_10
REMARK    7  A    between atoms: C_11  and  C_13
REMARK    8  A    between atoms: C_15  and  C_16
REMARK    9  A    between atoms: C_16  and  O_17
REMARK   10  A    between atoms: O_17  and  C_18
REMARK                            x       y       z     vdW  Elec       q    Type
REMARK                         _______ _______ _______ _____ _____    ______ ____
ROOT
ATOM      1  C   UNL     1       7.662   6.621  17.888  0.00  0.00    +0.000 A 
ATOM      2  C   UNL     1       7.474   7.868  17.238  0.00  0.00    +0.000 A 
ATOM      3  C   UNL     1       8.152   8.771  18.015  0.00  0.00    +0.000 A 
ATOM      4  O   UNL     1       8.730   8.117  19.059  0.00  0.00    +0.000 OA
ATOM      5  N   UNL     1       8.418   6.769  18.991  0.00  0.00    +0.000 NA
ENDROOT
BRANCH   1   7
ATOM      6  N   UNL     1       5.754   5.183  17.686  0.00  0.00    +0.000 N 
ATOM      7  C   UNL     1       7.110   5.329  17.481  0.00  0.00    +0.000 C 
ATOM      8  O   UNL     1       7.807   4.450  16.980  0.00  0.00    +0.000 OA
ATOM      9  H   UNL     1       5.267   5.960  18.131  0.00  0.00    +0.000 HD
BRANCH   6  10
ATOM     10  C   UNL     1       5.038   3.960  17.343  0.00  0.00    +0.000 C 
ATOM     11  C   UNL     1       4.782   3.938  15.834  0.00  0.00    +0.000 C 
BRANCH  10  12
ATOM     12  C   UNL     1       3.712   3.796  18.106  0.00  0.00    +0.000 C 
BRANCH  12  18
ATOM     13  C   UNL     1       2.481   8.451  17.820  0.00  0.00    +0.000 C 
ATOM     14  C   UNL     1       2.624   7.104  18.422  0.00  0.00    +0.000 A 
ATOM     15  C   UNL     1       2.319   6.705  19.741  0.00  0.00    +0.000 A 
ATOM     16  C   UNL     1       2.653   5.368  19.805  0.00  0.00    +0.000 A 
ATOM     17  C   UNL     1       2.545   4.409  20.931  0.00  0.00    +0.000 C 
ATOM     18  N   UNL     1       3.160   5.058  18.568  0.00  0.00    +0.000 N 
ATOM     19  N   UNL     1       3.101   6.087  17.698  0.00  0.00    +0.000 NA
ENDBRANCH  12  18
ENDBRANCH  10  12
ENDBRANCH   6  10
ENDBRANCH   1   7
BRANCH   3  20
ATOM     20  C   UNL     1       8.339  10.238  17.961  0.00  0.00    +0.000 C 
BRANCH  20  21
ATOM     21  O   UNL     1       9.724  10.485  18.187  0.00  0.00    +0.000 OA
BRANCH  21  22
ATOM     22  C   UNL     1      10.049  11.644  18.841  0.00  0.00    +0.000 A 
ATOM     23  C   UNL     1      10.483  12.838  18.262  0.00  0.00    +0.000 A 
ATOM     24  F   UNL     1      10.638  12.958  16.935  0.00  0.00    +0.000 F 
ATOM     25  C   UNL     1      10.780  13.958  19.042  0.00  0.00    +0.000 A 
ATOM     26  C   UNL     1      10.648  13.901  20.428  0.00  0.00    +0.000 A 
ATOM     27  C   UNL     1      10.223  12.717  21.025  0.00  0.00    +0.000 A 
ATOM     28  C   UNL     1       9.932  11.605  20.234  0.00  0.00    +0.000 A 
ATOM     29  F   UNL     1       9.526  10.480  20.843  0.00  0.00    +0.000 F 
ENDBRANCH  21  22
ENDBRANCH  20  21
ENDBRANCH   3  20
TORSDOF 7
ENDMDL
MODEL 6
REMARK VINA RESULT:      -7.6      5.509      8.513
REMARK  Name = 
REMARK  10 active torsions:
REMARK  status: ('A' for Active; 'I' for Inactive)
REMARK    1  A    between atoms: C_1  and  C_2
REMARK    2  A    between atoms: C_4  and  C_5
REMARK    3  A    between atoms: N_6  and  C_7
REMARK    4  A    between atoms: C_7  and  C_8
REMARK    5  A    between atoms: C_8  and  C_9
REMARK    6  A    between atoms: C_8  and  N_10
REMARK    7  A    between atoms: C_11  and  C_13
REMARK    8  A    between atoms: C_15  and  C_16
REMARK    9  A    between atoms: C_16  and  O_17
REMARK   10  A    between atoms: O_17  and  C_18
REMARK                            x       y       z     vdW  Elec       q    Type
REMARK                         _______ _______ _______ _____ _____    ______ ____
ROOT
ATOM      1  C   UNL     1       2.011   7.895  19.357  0.00  0.00    +0.000 A 
ATOM      2  C   UNL     1       1.529   9.122  18.836  0.00  0.00    +0.000 A 
ATOM      3  C   UNL     1       0.903   9.728  19.895  0.00  0.00    +0.000 A 
ATOM      4  O   UNL     1       1.013   8.932  20.993  0.00  0.00    +0.000 OA
ATOM      5  N   UNL     1       1.698   7.775  20.660  0.00  0.00    +0.000 NA
ENDROOT
BRANCH   1   7
ATOM      6  N   UNL     1       2.479   5.564  19.045  0.00  0.00    +0.000 N 
ATOM      7  C   UNL     1       2.727   6.852  18.622  0.00  0.00    +0.000 C 
ATOM      8  O   UNL     1       3.479   7.114  17.686  0.00  0.00    +0.000 OA
ATOM      9  H   UNL     1       1.858   5.451  19.846  0.00  0.00    +0.000 HD
BRANCH   6  10
ATOM     10  C   UNL     1       3.110   4.402  18.430  0.00  0.00    +0.000 C 
ATOM     11  C   UNL     1       2.296   3.152  18.774  0.00  0.00    +0.000 C 
BRANCH  10  12
ATOM     12  C   UNL     1       4.576   4.210  18.850  0.00  0.00    +0.000 C 
BRANCH  12  18
ATOM     13  C   UNL     1       6.231   3.877  14.333  0.00  0.00    +0.000 C 
ATOM     14  C   UNL     1       6.222   4.254  15.766  0.00  0.00    +0.000 A 
ATOM     15  C   UNL     1       7.253   4.868  16.510  0.00  0.00    +0.000 A 
ATOM     16  C   UNL     1       6.761   4.978  17.794  0.00  0.00    +0.000 A 
ATOM     17  C   UNL     1       7.386   5.551  19.010  0.00  0.00    +0.000 C 
ATOM     18  N   UNL     1       5.513   4.408  17.758  0.00  0.00    +0.000 N 
ATOM     19  N   UNL     1       5.147   4.010  16.522  0.00  0.00    +0.000 NA
ENDBRANCH  12  18
ENDBRANCH  10  12
ENDBRANCH   6  10
ENDBRANCH   1   7
BRANCH   3  20
ATOM     20  C   UNL     1       0.147  10.990  20.058  0.00  0.00    +0.000 C 
BRANCH  20  21
ATOM     21  O   UNL     1      -0.260  11.397  18.756  0.00  0.00    +0.000 OA
BRANCH  21  22
ATOM     22  C   UNL     1      -1.553  11.122  18.396  0.00  0.00    +0.000 A 
ATOM     23  C   UNL     1      -1.984  10.119  17.524  0.00  0.00    +0.000 A 
ATOM     24  F   UNL     1      -1.115   9.295  16.921  0.00  0.00    +0.000 F 
ATOM     25  C   UNL     1      -3.339   9.935  17.241  0.00  0.00    +0.000 A 
ATOM     26  C   UNL     1      -4.295  10.761  17.828  0.00  0.00    +0.000 A 
ATOM     27  C   UNL     1      -3.886  11.771  18.695  0.00  0.00    +0.000 A 
ATOM     28  C   UNL     1      -2.528  11.945  18.967  0.00  0.00    +0.000 A 
ATOM     29  F   UNL     1      -2.169  12.929  19.805  0.00  0.00    +0.000 F 
ENDBRANCH  21  22
ENDBRANCH  20  21
ENDBRANCH   3  20
TORSDOF 7
ENDMDL
MODEL 7
REMARK VINA RESULT:      -7.5      1.430      1.630
REMARK  Name = 
REMARK  10 active torsions:
REMARK  status: ('A' for Active; 'I' for Inactive)
REMARK    1  A    between atoms: C_1  and  C_2
REMARK    2  A    between atoms: C_4  and  C_5
REMARK    3  A    between atoms: N_6  and  C_7
REMARK    4  A    between atoms: C_7  and  C_8
REMARK    5  A    between atoms: C_8  and  C_9
REMARK    6  A    between atoms: C_8  and  N_10
REMARK    7  A    between atoms: C_11  and  C_13
REMARK    8  A    between atoms: C_15  and  C_16
REMARK    9  A    between atoms: C_16  and  O_17
REMARK   10  A    between atoms: O_17  and  C_18
REMARK                            x       y       z     vdW  Elec       q    Type
REMARK                         _______ _______ _______ _____ _____    ______ ____
ROOT
ATOM      1  C   UNL     1       7.264   6.697  17.622  0.00  0.00    +0.000 A 
ATOM      2  C   UNL     1       8.208   7.119  18.593  0.00  0.00    +0.000 A 
ATOM      3  C   UNL     1       8.375   8.459  18.357  0.00  0.00    +0.000 A 
ATOM      4  O   UNL     1       7.572   8.833  17.324  0.00  0.00    +0.000 OA
ATOM      5  N   UNL     1       6.880   7.731  16.851  0.00  0.00    +0.000 NA
ENDROOT
BRANCH   1   7
ATOM      6  N   UNL     1       5.586   5.044  18.070  0.00  0.00    +0.000 N 
ATOM      7  C   UNL     1       6.765   5.337  17.419  0.00  0.00    +0.000 C 
ATOM      8  O   UNL     1       7.352   4.526  16.706  0.00  0.00    +0.000 OA
ATOM      9  H   UNL     1       5.188   5.776  18.658  0.00  0.00    +0.000 HD
BRANCH   6  10
ATOM     10  C   UNL     1       4.947   3.737  17.984  0.00  0.00    +0.000 C 
ATOM     11  C   UNL     1       3.849   3.786  16.918  0.00  0.00    +0.000 C 
BRANCH  10  12
ATOM     12  C   UNL     1       4.361   3.255  19.321  0.00  0.00    +0.000 C 
BRANCH  12  18
ATOM     13  C   UNL     1       1.706   6.987  20.830  0.00  0.00    +0.000 C 
ATOM     14  C   UNL     1       1.997   5.612  20.361  0.00  0.00    +0.000 A 
ATOM     15  C   UNL     1       1.105   4.525  20.247  0.00  0.00    +0.000 A 
ATOM     16  C   UNL     1       1.869   3.469  19.794  0.00  0.00    +0.000 A 
ATOM     17  C   UNL     1       1.479   2.074  19.478  0.00  0.00    +0.000 C 
ATOM     18  N   UNL     1       3.148   3.959  19.700  0.00  0.00    +0.000 N 
ATOM     19  N   UNL     1       3.236   5.273  19.989  0.00  0.00    +0.000 NA
ENDBRANCH  12  18
ENDBRANCH  10  12
ENDBRANCH   6  10
ENDBRANCH   1   7
BRANCH   3  20
ATOM     20  C   UNL     1       9.231   9.509  18.951  0.00  0.00    +0.000 C 
BRANCH  20  21
ATOM     21  O   UNL     1       8.746  10.758  18.466  0.00  0.00    +0.000 OA
BRANCH  21  22
ATOM     22  C   UNL     1       9.391  11.885  18.903  0.00  0.00    +0.000 A 
ATOM     23  C   UNL     1      10.093  12.804  18.119  0.00  0.00    +0.000 A 
ATOM     24  F   UNL     1      10.210  12.648  16.792  0.00  0.00    +0.000 F 
ATOM     25  C   UNL     1      10.707  13.924  18.686  0.00  0.00    +0.000 A 
ATOM     26  C   UNL     1      10.630  14.144  20.060  0.00  0.00    +0.000 A 
ATOM     27  C   UNL     1       9.941  13.235  20.860  0.00  0.00    +0.000 A 
ATOM     28  C   UNL     1       9.334  12.120  20.280  0.00  0.00    +0.000 A 
ATOM     29  F   UNL     1       8.680  11.265  21.080  0.00  0.00    +0.000 F 
ENDBRANCH  21  22
ENDBRANCH  20  21
ENDBRANCH   3  20
TORSDOF 7
ENDMDL
MODEL 8
REMARK VINA RESULT:      -7.5      1.194      1.334
REMARK  Name = 
REMARK  10 active torsions:
REMARK  status: ('A' for Active; 'I' for Inactive)
REMARK    1  A    between atoms: C_1  and  C_2
REMARK    2  A    between atoms: C_4  and  C_5
REMARK    3  A    between atoms: N_6  and  C_7
REMARK    4  A    between atoms: C_7  and  C_8
REMARK    5  A    between atoms: C_8  and  C_9
REMARK    6  A    between atoms: C_8  and  N_10
REMARK    7  A    between atoms: C_11  and  C_13
REMARK    8  A    between atoms: C_15  and  C_16
REMARK    9  A    between atoms: C_16  and  O_17
REMARK   10  A    between atoms: O_17  and  C_18
REMARK                            x       y       z     vdW  Elec       q    Type
REMARK                         _______ _______ _______ _____ _____    ______ ____
ROOT
ATOM      1  C   UNL     1       7.600   6.989  17.822  0.00  0.00    +0.000 A 
ATOM      2  C   UNL     1       8.442   7.454  18.864  0.00  0.00    +0.000 A 
ATOM      3  C   UNL     1       8.534   8.807  18.660  0.00  0.00    +0.000 A 
ATOM      4  O   UNL     1       7.782   9.147  17.578  0.00  0.00    +0.000 OA
ATOM      5  N   UNL     1       7.202   8.010  17.041  0.00  0.00    +0.000 NA
ENDROOT
BRANCH   1   7
ATOM      6  N   UNL     1       6.232   5.440  16.605  0.00  0.00    +0.000 N 
ATOM      7  C   UNL     1       7.209   5.603  17.563  0.00  0.00    +0.000 C 
ATOM      8  O   UNL     1       7.732   4.658  18.151  0.00  0.00    +0.000 OA
ATOM      9  H   UNL     1       5.843   6.288  16.192  0.00  0.00    +0.000 HD
BRANCH   6  10
ATOM     10  C   UNL     1       5.719   4.130  16.224  0.00  0.00    +0.000 C 
ATOM     11  C   UNL     1       6.232   3.780  14.825  0.00  0.00    +0.000 C 
BRANCH  10  12
ATOM     12  C   UNL     1       4.184   4.042  16.260  0.00  0.00    +0.000 C 
BRANCH  12  18
ATOM     13  C   UNL     1       2.444   6.904  19.730  0.00  0.00    +0.000 C 
ATOM     14  C   UNL     1       2.859   5.642  19.073  0.00  0.00    +0.000 A 
ATOM     15  C   UNL     1       2.908   4.346  19.630  0.00  0.00    +0.000 A 
ATOM     16  C   UNL     1       3.385   3.532  18.623  0.00  0.00    +0.000 A 
ATOM     17  C   UNL     1       3.637   2.072  18.615  0.00  0.00    +0.000 C 
ATOM     18  N   UNL     1       3.625   4.368  17.561  0.00  0.00    +0.000 N 
ATOM     19  N   UNL     1       3.261   5.645  17.797  0.00  0.00    +0.000 NA
ENDBRANCH  12  18
ENDBRANCH  10  12
ENDBRANCH   6  10
ENDBRANCH   1   7
BRANCH   3  20
ATOM     20  C   UNL     1       9.273   9.900  19.329  0.00  0.00    +0.000 C 
BRANCH  20  21
ATOM     21  O   UNL     1       8.991  11.092  18.603  0.00  0.00    +0.000 OA
BRANCH  21  22
ATOM     22  C   UNL     1       9.633  12.232  19.008  0.00  0.00    +0.000 A 
ATOM     23  C   UNL     1       9.390  12.961  20.175  0.00  0.00    +0.000 A 
ATOM     24  F   UNL     1       8.442  12.589  21.048  0.00  0.00    +0.000 F 
ATOM     25  C   UNL     1      10.121  14.111  20.480  0.00  0.00    +0.000 A 
ATOM     26  C   UNL     1      11.117  14.557  19.613  0.00  0.00    +0.000 A 
ATOM     27  C   UNL     1      11.370  13.849  18.441  0.00  0.00    +0.000 A 
ATOM     28  C   UNL     1      10.630  12.702  18.148  0.00  0.00    +0.000 A 
ATOM     29  F   UNL     1      10.900  12.046  17.010  0.00  0.00    +0.000 F 
ENDBRANCH  21  22
ENDBRANCH  20  21
ENDBRANCH   3  20
TORSDOF 7
ENDMDL
MODEL 9
REMARK VINA RESULT:      -7.5      5.175      8.749
REMARK  Name = 
REMARK  10 active torsions:
REMARK  status: ('A' for Active; 'I' for Inactive)
REMARK    1  A    between atoms: C_1  and  C_2
REMARK    2  A    between atoms: C_4  and  C_5
REMARK    3  A    between atoms: N_6  and  C_7
REMARK    4  A    between atoms: C_7  and  C_8
REMARK    5  A    between atoms: C_8  and  C_9
REMARK    6  A    between atoms: C_8  and  N_10
REMARK    7  A    between atoms: C_11  and  C_13
REMARK    8  A    between atoms: C_15  and  C_16
REMARK    9  A    between atoms: C_16  and  O_17
REMARK   10  A    between atoms: O_17  and  C_18
REMARK                            x       y       z     vdW  Elec       q    Type
REMARK                         _______ _______ _______ _____ _____    ______ ____
ROOT
ATOM      1  C   UNL     1       1.824   8.084  19.753  0.00  0.00    +0.000 A 
ATOM      2  C   UNL     1       1.253   9.245  19.172  0.00  0.00    +0.000 A 
ATOM      3  C   UNL     1       0.601   9.867  20.206  0.00  0.00    +0.000 A 
ATOM      4  O   UNL     1       0.779   9.144  21.344  0.00  0.00    +0.000 OA
ATOM      5  N   UNL     1       1.537   8.018  21.065  0.00  0.00    +0.000 NA
ENDROOT
BRANCH   1   7
ATOM      6  N   UNL     1       2.885   5.935  19.821  0.00  0.00    +0.000 N 
ATOM      7  C   UNL     1       2.600   7.052  19.065  0.00  0.00    +0.000 C 
ATOM      8  O   UNL     1       2.953   7.173  17.894  0.00  0.00    +0.000 OA
ATOM      9  H   UNL     1       2.569   5.939  20.790  0.00  0.00    +0.000 HD
BRANCH   6  10
ATOM     10  C   UNL     1       3.652   4.810  19.298  0.00  0.00    +0.000 C 
ATOM     11  C   UNL     1       3.277   3.546  20.076  0.00  0.00    +0.000 C 
BRANCH  10  12
ATOM     12  C   UNL     1       5.172   5.031  19.351  0.00  0.00    +0.000 C 
BRANCH  12  18
ATOM     13  C   UNL     1       5.593   4.307  14.602  0.00  0.00    +0.000 C 
ATOM     14  C   UNL     1       5.944   4.818  15.947  0.00  0.00    +0.000 A 
ATOM     15  C   UNL     1       7.104   5.523  16.334  0.00  0.00    +0.000 A 
ATOM     16  C   UNL     1       6.963   5.745  17.689  0.00  0.00    +0.000 A 
ATOM     17  C   UNL     1       7.859   6.445  18.640  0.00  0.00    +0.000 C 
ATOM     18  N   UNL     1       5.778   5.145  18.035  0.00  0.00    +0.000 N 
ATOM     19  N   UNL     1       5.119   4.624  16.981  0.00  0.00    +0.000 NA
ENDBRANCH  12  18
ENDBRANCH  10  12
ENDBRANCH   6  10
ENDBRANCH   1   7
BRANCH   3  20
ATOM     20  C   UNL     1      -0.236  11.083  20.311  0.00  0.00    +0.000 C 
BRANCH  20  21
ATOM     21  O   UNL     1      -0.590  11.454  18.982  0.00  0.00    +0.000 OA
BRANCH  21  22
ATOM     22  C   UNL     1      -1.906  11.314  18.629  0.00  0.00    +0.000 A 
ATOM     23  C   UNL     1      -2.988  12.044  19.126  0.00  0.00    +0.000 A 
ATOM     24  F   UNL     1      -2.823  12.997  20.055  0.00  0.00    +0.000 F 
ATOM     25  C   UNL     1      -4.291  11.809  18.679  0.00  0.00    +0.000 A 
ATOM     26  C   UNL     1      -4.535  10.828  17.720  0.00  0.00    +0.000 A 
ATOM     27  C   UNL     1      -3.470  10.085  17.217  0.00  0.00    +0.000 A 
ATOM     28  C   UNL     1      -2.174  10.329  17.674  0.00  0.00    +0.000 A 
ATOM     29  F   UNL     1      -1.173   9.593  17.169  0.00  0.00    +0.000 F 
ENDBRANCH  21  22
ENDBRANCH  20  21
ENDBRANCH   3  20
TORSDOF 7
ENDMDL
