MODEL 1
REMARK VINA RESULT:      -8.5      0.000      0.000
REMARK  Name = 
REMARK  7 active torsions:
REMARK  status: ('A' for Active; 'I' for Inactive)
REMARK    1  A    between atoms: C_1  and  C_2
REMARK    2  A    between atoms: C_2  and  C_3
REMARK    3  A    between atoms: C_2  and  C_4
REMARK    4  A    between atoms: C_4  and  C_5
REMARK    5  A    between atoms: C_5  and  N_6
REMARK    6  A    between atoms: C_7  and  C_9
REMARK    7  A    between atoms: C_21  and  C_22
REMARK                            x       y       z     vdW  Elec       q    Type
REMARK                         _______ _______ _______ _____ _____    ______ ____
ROOT
ATOM      1  C   UNL     1       5.174   4.884  16.534  0.00  0.00    +0.000 A 
ATOM      2  C   UNL     1       4.649   3.652  16.706  0.00  0.00    +0.000 A 
ATOM      3  N   UNL     1       3.615   3.371  17.566  0.00  0.00    +0.000 N 
ATOM      4  C   UNL     1       3.093   4.393  18.364  0.00  0.00    +0.000 A 
ATOM      5  C   UNL     1       2.107   3.975  19.241  0.00  0.00    +0.000 A 
ATOM      6  C   UNL     1       1.525   4.877  20.112  0.00  0.00    +0.000 A 
ATOM      7  C   UNL     1       1.956   6.214  20.076  0.00  0.00    +0.000 A 
ATOM      8  C   UNL     1       2.949   6.634  19.171  0.00  0.00    +0.000 A 
ATOM      9  C   UNL     1       3.524   5.704  18.305  0.00  0.00    +0.000 A 
ATOM     10  C   UNL     1       4.578   6.023  17.314  0.00  0.00    +0.000 A 
ATOM     11  O   UNL     1       4.934   7.190  17.151  0.00  0.00    +0.000 OA
ATOM     12  C   UNL     1       1.865   2.516  19.038  0.00  0.00    +0.000 C 
ATOM     13  C   UNL     1       2.914   2.133  17.933  0.00  0.00    +0.000 C 
ATOM     14  C   UNL     1       3.887   1.078  18.448  0.00  0.00    +0.000 C 
ENDROOT
BRANCH   1  16
ATOM     15  N   UNL     1       6.167   4.447  14.373  0.00  0.00    +0.000 N 
ATOM     16  C   UNL     1       6.328   5.036  15.602  0.00  0.00    +0.000 C 
ATOM     17  O   UNL     1       7.339   5.655  15.922  0.00  0.00    +0.000 OA
ATOM     18  H   UNL     1       5.286   3.970  14.176  0.00  0.00    +0.000 HD
BRANCH  15  19
ATOM     19  C   UNL     1       7.146   4.559  13.315  0.00  0.00    +0.000 C 
BRANCH  19  20
ATOM     20  C   UNL     1       6.645   4.014  11.976  0.00  0.00    +0.000 C 
BRANCH  20  22
ATOM     21  C   UNL     1       4.246   3.333  11.433  0.00  0.00    +0.000 C 
ATOM     22  C   UNL     1       5.568   2.917  12.082  0.00  0.00    +0.000 C 
ATOM     23  C   UNL     1       6.072   1.626  11.429  0.00  0.00    +0.000 C 
ENDBRANCH  20  22
ENDBRANCH  19  20
ENDBRANCH  15  19
ENDBRANCH   1  16
TORSDOF 4
ENDMDL
MODEL 2
REMARK VINA RESULT:      -8.4      0.986      1.166
REMARK  Name = 
REMARK  7 active torsions:
REMARK  status: ('A' for Active; 'I' for Inactive)
REMARK    1  A    between atoms: C_1  and  C_2
REMARK    2  A    between atoms: C_2  and  C_3
REMARK    3  A    between atoms: C_2  and  C_4
REMARK    4  A    between atoms: C_4  and  C_5
REMARK    5  A    between atoms: C_5  and  N_6
REMARK    6  A    between atoms: C_7  and  C_9
REMARK    7  A    between atoms: C_21  and  C_22
REMARK                            x       y       z     vdW  Elec       q    Type
REMARK                         _______ _______ _______ _____ _____    ______ ____
ROOT
ATOM      1  C   UNL     1       5.490   4.839  16.482  0.00  0.00    +0.000 A 
ATOM      2  C   UNL     1       5.028   3.846  17.272  0.00  0.00    +0.000 A 
ATOM      3  N   UNL     1       4.020   4.003  18.191  0.00  0.00    +0.000 N 
ATOM      4  C   UNL     1       3.458   5.269  18.379  0.00  0.00    +0.000 A 
ATOM      5  C   UNL     1       2.503   5.318  19.381  0.00  0.00    +0.000 A 
ATOM      6  C   UNL     1       1.887   6.515  19.695  0.00  0.00    +0.000 A 
ATOM      7  C   UNL     1       2.252   7.663  18.972  0.00  0.00    +0.000 A 
ATOM      8  C   UNL     1       3.213   7.602  17.945  0.00  0.00    +0.000 A 
ATOM      9  C   UNL     1       3.822   6.383  17.650  0.00  0.00    +0.000 A 
ATOM     10  C   UNL     1       4.848   6.193  16.598  0.00  0.00    +0.000 A 
ATOM     11  O   UNL     1       5.144   7.128  15.854  0.00  0.00    +0.000 OA
ATOM     12  C   UNL     1       2.330   3.949  19.953  0.00  0.00    +0.000 C 
ATOM     13  C   UNL     1       3.385   3.098  19.158  0.00  0.00    +0.000 C 
ATOM     14  C   UNL     1       4.414   2.486  20.103  0.00  0.00    +0.000 C 
ENDROOT
BRANCH   1  16
ATOM     15  N   UNL     1       6.296   4.480  14.230  0.00  0.00    +0.000 N 
ATOM     16  C   UNL     1       6.625   4.539  15.561  0.00  0.00    +0.000 C 
ATOM     17  O   UNL     1       7.767   4.368  15.978  0.00  0.00    +0.000 OA
ATOM     18  H   UNL     1       5.327   4.657  13.962  0.00  0.00    +0.000 HD
BRANCH  15  19
ATOM     19  C   UNL     1       7.278   4.280  13.188  0.00  0.00    +0.000 C 
BRANCH  19  20
ATOM     20  C   UNL     1       6.660   3.843  11.858  0.00  0.00    +0.000 C 
BRANCH  20  22
ATOM     21  C   UNL     1       4.232   3.230  11.366  0.00  0.00    +0.000 C 
ATOM     22  C   UNL     1       5.559   2.772  11.975  0.00  0.00    +0.000 C 
ATOM     23  C   UNL     1       6.014   1.480  11.289  0.00  0.00    +0.000 C 
ENDBRANCH  20  22
ENDBRANCH  19  20
ENDBRANCH  15  19
ENDBRANCH   1  16
TORSDOF 4
ENDMDL
MODEL 3
REMARK VINA RESULT:      -8.1      1.483      2.961
REMARK  Name = 
REMARK  7 active torsions:
REMARK  status: ('A' for Active; 'I' for Inactive)
REMARK    1  A    between atoms: C_1  and  C_2
REMARK    2  A    between atoms: C_2  and  C_3
REMARK    3  A    between atoms: C_2  and  C_4
REMARK    4  A    between atoms: C_4  and  C_5
REMARK    5  A    between atoms: C_5  and  N_6
REMARK    6  A    between atoms: C_7  and  C_9
REMARK    7  A    between atoms: C_21  and  C_22
REMARK                            x       y       z     vdW  Elec       q    Type
REMARK                         _______ _______ _______ _____ _____    ______ ____
ROOT
ATOM      1  C   UNL     1       4.520   4.974  16.992  0.00  0.00    +0.000 A 
ATOM      2  C   UNL     1       4.130   6.120  17.591  0.00  0.00    +0.000 A 
ATOM      3  N   UNL     1       3.237   6.175  18.633  0.00  0.00    +0.000 N 
ATOM      4  C   UNL     1       2.639   4.995  19.084  0.00  0.00    +0.000 A 
ATOM      5  C   UNL     1       1.703   5.184  20.087  0.00  0.00    +0.000 A 
ATOM      6  C   UNL     1       1.012   4.105  20.605  0.00  0.00    +0.000 A 
ATOM      7  C   UNL     1       1.288   2.827  20.092  0.00  0.00    +0.000 A 
ATOM      8  C   UNL     1       2.251   2.641  19.082  0.00  0.00    +0.000 A 
ATOM      9  C   UNL     1       2.933   3.746  18.574  0.00  0.00    +0.000 A 
ATOM     10  C   UNL     1       3.961   3.678  17.510  0.00  0.00    +0.000 A 
ATOM     11  O   UNL     1       4.332   2.584  17.083  0.00  0.00    +0.000 OA
ATOM     12  C   UNL     1       1.640   6.639  20.421  0.00  0.00    +0.000 C 
ATOM     13  C   UNL     1       2.654   7.279  19.406  0.00  0.00    +0.000 C 
ATOM     14  C   UNL     1       1.953   8.283  18.497  0.00  0.00    +0.000 C 
ENDROOT
BRANCH   1  16
ATOM     15  N   UNL     1       5.545   3.937  15.062  0.00  0.00    +0.000 N 
ATOM     16  C   UNL     1       5.461   5.065  15.838  0.00  0.00    +0.000 C 
ATOM     17  O   UNL     1       6.101   6.088  15.607  0.00  0.00    +0.000 OA
ATOM     18  H   UNL     1       4.962   3.135  15.308  0.00  0.00    +0.000 HD
BRANCH  15  19
ATOM     19  C   UNL     1       6.343   3.870  13.858  0.00  0.00    +0.000 C 
BRANCH  19  20
ATOM     20  C   UNL     1       5.534   4.140  12.588  0.00  0.00    +0.000 C 
BRANCH  20  22
ATOM     21  C   UNL     1       3.821   3.278  10.904  0.00  0.00    +0.000 C 
ATOM     22  C   UNL     1       4.832   2.905  11.990  0.00  0.00    +0.000 C 
ATOM     23  C   UNL     1       5.874   1.945  11.407  0.00  0.00    +0.000 C 
ENDBRANCH  20  22
ENDBRANCH  19  20
ENDBRANCH  15  19
ENDBRANCH   1  16
TORSDOF 4
ENDMDL
MODEL 4
REMARK VINA RESULT:      -8.0      1.167      2.821
REMARK  Name = 
REMARK  7 active torsions:
REMARK  status: ('A' for Active; 'I' for Inactive)
REMARK    1  A    between atoms: C_1  and  C_2
REMARK    2  A    between atoms: C_2  and  C_3
REMARK    3  A    between atoms: C_2  and  C_4
REMARK    4  A    between atoms: C_4  and  C_5
REMARK    5  A    between atoms: C_5  and  N_6
REMARK    6  A    between atoms: C_7  and  C_9
REMARK    7  A    between atoms: C_21  and  C_22
REMARK                            x       y       z     vdW  Elec       q    Type
REMARK                         _______ _______ _______ _____ _____    ______ ____
ROOT
ATOM      1  C   UNL     1       5.306   5.031  16.482  0.00  0.00    +0.000 A 
ATOM      2  C   UNL     1       4.812   6.097  17.148  0.00  0.00    +0.000 A 
ATOM      3  N   UNL     1       3.758   6.031  18.027  0.00  0.00    +0.000 N 
ATOM      4  C   UNL     1       3.104   4.811  18.219  0.00  0.00    +0.000 A 
ATOM      5  C   UNL     1       2.014   4.885  19.070  0.00  0.00    +0.000 A 
ATOM      6  C   UNL     1       1.255   3.757  19.325  0.00  0.00    +0.000 A 
ATOM      7  C   UNL     1       1.624   2.551  18.708  0.00  0.00    +0.000 A 
ATOM      8  C   UNL     1       2.742   2.481  17.856  0.00  0.00    +0.000 A 
ATOM      9  C   UNL     1       3.489   3.633  17.611  0.00  0.00    +0.000 A 
ATOM     10  C   UNL     1       4.680   3.687  16.732  0.00  0.00    +0.000 A 
ATOM     11  O   UNL     1       5.125   2.651  16.238  0.00  0.00    +0.000 OA
ATOM     12  C   UNL     1       1.883   6.286  19.570  0.00  0.00    +0.000 C 
ATOM     13  C   UNL     1       3.046   7.037  18.826  0.00  0.00    +0.000 C 
ATOM     14  C   UNL     1       2.497   8.156  17.948  0.00  0.00    +0.000 C 
ENDROOT
BRANCH   1  16
ATOM     15  N   UNL     1       6.355   4.521  14.363  0.00  0.00    +0.000 N 
ATOM     16  C   UNL     1       6.424   5.255  15.521  0.00  0.00    +0.000 C 
ATOM     17  O   UNL     1       7.330   6.050  15.758  0.00  0.00    +0.000 OA
ATOM     18  H   UNL     1       5.557   3.899  14.231  0.00  0.00    +0.000 HD
BRANCH  15  19
ATOM     19  C   UNL     1       7.306   4.667  13.284  0.00  0.00    +0.000 C 
BRANCH  19  20
ATOM     20  C   UNL     1       6.806   4.082  11.962  0.00  0.00    +0.000 C 
BRANCH  20  22
ATOM     21  C   UNL     1       4.397   3.351  11.539  0.00  0.00    +0.000 C 
ATOM     22  C   UNL     1       5.763   2.955  12.103  0.00  0.00    +0.000 C 
ATOM     23  C   UNL     1       6.260   1.692  11.393  0.00  0.00    +0.000 C 
ENDBRANCH  20  22
ENDBRANCH  19  20
ENDBRANCH  15  19
ENDBRANCH   1  16
TORSDOF 4
ENDMDL
MODEL 5
REMARK VINA RESULT:      -7.7      1.193      1.525
REMARK  Name = 
REMARK  7 active torsions:
REMARK  status: ('A' for Active; 'I' for Inactive)
REMARK    1  A    between atoms: C_1  and  C_2
REMARK    2  A    between atoms: C_2  and  C_3
REMARK    3  A    between atoms: C_2  and  C_4
REMARK    4  A    between atoms: C_4  and  C_5
REMARK    5  A    between atoms: C_5  and  N_6
REMARK    6  A    between atoms: C_7  and  C_9
REMARK    7  A    between atoms: C_21  and  C_22
REMARK                            x       y       z     vdW  Elec       q    Type
REMARK                         _______ _______ _______ _____ _____    ______ ____
ROOT
ATOM      1  C   UNL     1       4.780   4.784  17.227  0.00  0.00    +0.000 A 
ATOM      2  C   UNL     1       4.396   3.744  17.999  0.00  0.00    +0.000 A 
ATOM      3  N   UNL     1       3.474   3.841  19.013  0.00  0.00    +0.000 N 
ATOM      4  C   UNL     1       2.927   5.089  19.322  0.00  0.00    +0.000 A 
ATOM      5  C   UNL     1       2.067   5.074  20.408  0.00  0.00    +0.000 A 
ATOM      6  C   UNL     1       1.478   6.246  20.844  0.00  0.00    +0.000 A 
ATOM      7  C   UNL     1       1.770   7.436  20.156  0.00  0.00    +0.000 A 
ATOM      8  C   UNL     1       2.634   7.441  19.045  0.00  0.00    +0.000 A 
ATOM      9  C   UNL     1       3.219   6.245  18.627  0.00  0.00    +0.000 A 
ATOM     10  C   UNL     1       4.146   6.124  17.478  0.00  0.00    +0.000 A 
ATOM     11  O   UNL     1       4.370   7.102  16.764  0.00  0.00    +0.000 OA
ATOM     12  C   UNL     1       1.952   3.673  20.915  0.00  0.00    +0.000 C 
ATOM     13  C   UNL     1       2.933   2.878  19.981  0.00  0.00    +0.000 C 
ATOM     14  C   UNL     1       4.046   2.223  20.792  0.00  0.00    +0.000 C 
ENDROOT
BRANCH   1  16
ATOM     15  N   UNL     1       5.403   4.672  14.893  0.00  0.00    +0.000 N 
ATOM     16  C   UNL     1       5.827   4.546  16.192  0.00  0.00    +0.000 C 
ATOM     17  O   UNL     1       6.984   4.268  16.496  0.00  0.00    +0.000 OA
ATOM     18  H   UNL     1       4.430   4.929  14.724  0.00  0.00    +0.000 HD
BRANCH  15  19
ATOM     19  C   UNL     1       6.296   4.556  13.762  0.00  0.00    +0.000 C 
BRANCH  19  20
ATOM     20  C   UNL     1       6.371   3.135  13.200  0.00  0.00    +0.000 C 
BRANCH  20  22
ATOM     21  C   UNL     1       6.157   1.585  11.184  0.00  0.00    +0.000 C 
ATOM     22  C   UNL     1       5.905   2.989  11.738  0.00  0.00    +0.000 C 
ATOM     23  C   UNL     1       4.413   3.318  11.631  0.00  0.00    +0.000 C 
ENDBRANCH  20  22
ENDBRANCH  19  20
ENDBRANCH  15  19
ENDBRANCH   1  16
TORSDOF 4
ENDMDL
MODEL 6
REMARK VINA RESULT:      -7.5      1.148      1.634
REMARK  Name = 
REMARK  7 active torsions:
REMARK  status: ('A' for Active; 'I' for Inactive)
REMARK    1  A    between atoms: C_1  and  C_2
REMARK    2  A    between atoms: C_2  and  C_3
REMARK    3  A    between atoms: C_2  and  C_4
REMARK    4  A    between atoms: C_4  and  C_5
REMARK    5  A    between atoms: C_5  and  N_6
REMARK    6  A    between atoms: C_7  and  C_9
REMARK    7  A    between atoms: C_21  and  C_22
REMARK                            x       y       z     vdW  Elec       q    Type
REMARK                         _______ _______ _______ _____ _____    ______ ____
ROOT
ATOM      1  C   UNL     1       5.147   4.765  16.147  0.00  0.00    +0.000 A 
ATOM      2  C   UNL     1       4.719   3.796  16.986  0.00  0.00    +0.000 A 
ATOM      3  N   UNL     1       3.855   4.013  18.031  0.00  0.00    +0.000 N 
ATOM      4  C   UNL     1       3.419   5.313  18.300  0.00  0.00    +0.000 A 
ATOM      5  C   UNL     1       2.612   5.417  19.419  0.00  0.00    +0.000 A 
ATOM      6  C   UNL     1       2.134   6.651  19.820  0.00  0.00    +0.000 A 
ATOM      7  C   UNL     1       2.486   7.781  19.061  0.00  0.00    +0.000 A 
ATOM      8  C   UNL     1       3.296   7.665  17.916  0.00  0.00    +0.000 A 
ATOM      9  C   UNL     1       3.768   6.409  17.535  0.00  0.00    +0.000 A 
ATOM     10  C   UNL     1       4.629   6.161  16.356  0.00  0.00    +0.000 A 
ATOM     11  O   UNL     1       4.894   7.084  15.585  0.00  0.00    +0.000 OA
ATOM     12  C   UNL     1       2.413   4.055  20.001  0.00  0.00    +0.000 C 
ATOM     13  C   UNL     1       3.287   3.142  19.068  0.00  0.00    +0.000 C 
ATOM     14  C   UNL     1       4.382   2.440  19.865  0.00  0.00    +0.000 C 
ENDROOT
BRANCH   1  16
ATOM     15  N   UNL     1       5.591   3.739  14.003  0.00  0.00    +0.000 N 
ATOM     16  C   UNL     1       6.124   4.397  15.083  0.00  0.00    +0.000 C 
ATOM     17  O   UNL     1       7.316   4.677  15.176  0.00  0.00    +0.000 OA
ATOM     18  H   UNL     1       4.585   3.564  13.990  0.00  0.00    +0.000 HD
BRANCH  15  19
ATOM     19  C   UNL     1       6.372   3.376  12.841  0.00  0.00    +0.000 C 
BRANCH  19  20
ATOM     20  C   UNL     1       5.563   2.615  11.789  0.00  0.00    +0.000 C 
BRANCH  20  22
ATOM     21  C   UNL     1       7.887   1.948  10.973  0.00  0.00    +0.000 C 
ATOM     22  C   UNL     1       6.386   1.662  10.901  0.00  0.00    +0.000 C 
ATOM     23  C   UNL     1       6.124   0.209  11.312  0.00  0.00    +0.000 C 
ENDBRANCH  20  22
ENDBRANCH  19  20
ENDBRANCH  15  19
ENDBRANCH   1  16
TORSDOF 4
ENDMDL
MODEL 7
REMARK VINA RESULT:      -7.5      1.612      3.147
REMARK  Name = 
REMARK  7 active torsions:
REMARK  status: ('A' for Active; 'I' for Inactive)
REMARK    1  A    between atoms: C_1  and  C_2
REMARK    2  A    between atoms: C_2  and  C_3
REMARK    3  A    between atoms: C_2  and  C_4
REMARK    4  A    between atoms: C_4  and  C_5
REMARK    5  A    between atoms: C_5  and  N_6
REMARK    6  A    between atoms: C_7  and  C_9
REMARK    7  A    between atoms: C_21  and  C_22
REMARK                            x       y       z     vdW  Elec       q    Type
REMARK                         _______ _______ _______ _____ _____    ______ ____
ROOT
ATOM      1  C   UNL     1       4.339   5.123  17.124  0.00  0.00    +0.000 A 
ATOM      2  C   UNL     1       3.930   6.252  17.743  0.00  0.00    +0.000 A 
ATOM      3  N   UNL     1       3.064   6.272  18.809  0.00  0.00    +0.000 N 
ATOM      4  C   UNL     1       2.513   5.071  19.265  0.00  0.00    +0.000 A 
ATOM      5  C   UNL     1       1.600   5.224  20.294  0.00  0.00    +0.000 A 
ATOM      6  C   UNL     1       0.955   4.121  20.820  0.00  0.00    +0.000 A 
ATOM      7  C   UNL     1       1.256   2.855  20.289  0.00  0.00    +0.000 A 
ATOM      8  C   UNL     1       2.197   2.706  19.253  0.00  0.00    +0.000 A 
ATOM      9  C   UNL     1       2.831   3.836  18.736  0.00  0.00    +0.000 A 
ATOM     10  C   UNL     1       3.833   3.807  17.646  0.00  0.00    +0.000 A 
ATOM     11  O   UNL     1       4.224   2.728  17.200  0.00  0.00    +0.000 OA
ATOM     12  C   UNL     1       1.502   6.674  20.642  0.00  0.00    +0.000 C 
ATOM     13  C   UNL     1       2.469   7.352  19.607  0.00  0.00    +0.000 C 
ATOM     14  C   UNL     1       1.714   8.342  18.725  0.00  0.00    +0.000 C 
ENDROOT
BRANCH   1  16
ATOM     15  N   UNL     1       5.691   4.066  15.421  0.00  0.00    +0.000 N 
ATOM     16  C   UNL     1       5.246   5.253  15.947  0.00  0.00    +0.000 C 
ATOM     17  O   UNL     1       5.555   6.349  15.488  0.00  0.00    +0.000 OA
ATOM     18  H   UNL     1       5.369   3.196  15.846  0.00  0.00    +0.000 HD
BRANCH  15  19
ATOM     19  C   UNL     1       6.511   3.994  14.232  0.00  0.00    +0.000 C 
BRANCH  19  20
ATOM     20  C   UNL     1       5.750   3.478  13.010  0.00  0.00    +0.000 C 
BRANCH  20  22
ATOM     21  C   UNL     1       7.505   4.767  11.679  0.00  0.00    +0.000 C 
ATOM     22  C   UNL     1       6.503   3.611  11.671  0.00  0.00    +0.000 C 
ATOM     23  C   UNL     1       7.235   2.304  11.353  0.00  0.00    +0.000 C 
ENDBRANCH  20  22
ENDBRANCH  19  20
ENDBRANCH  15  19
ENDBRANCH   1  16
TORSDOF 4
ENDMDL
MODEL 8
REMARK VINA RESULT:      -7.5      3.313      7.872
REMARK  Name = 
REMARK  7 active torsions:
REMARK  status: ('A' for Active; 'I' for Inactive)
REMARK    1  A    between atoms: C_1  and  C_2
REMARK    2  A    between atoms: C_2  and  C_3
REMARK    3  A    between atoms: C_2  and  C_4
REMARK    4  A    between atoms: C_4  and  C_5
REMARK    5  A    between atoms: C_5  and  N_6
REMARK    6  A    between atoms: C_7  and  C_9
REMARK    7  A    between atoms: C_21  and  C_22
REMARK                            x       y       z     vdW  Elec       q    Type
REMARK                         _______ _______ _______ _____ _____    ______ ____
ROOT
ATOM      1  C   UNL     1       2.342   6.656  19.323  0.00  0.00    +0.000 A 
ATOM      2  C   UNL     1       3.223   6.742  18.303  0.00  0.00    +0.000 A 
ATOM      3  N   UNL     1       3.768   5.655  17.665  0.00  0.00    +0.000 N 
ATOM      4  C   UNL     1       3.452   4.370  18.115  0.00  0.00    +0.000 A 
ATOM      5  C   UNL     1       4.117   3.358  17.443  0.00  0.00    +0.000 A 
ATOM      6  C   UNL     1       3.923   2.038  17.807  0.00  0.00    +0.000 A 
ATOM      7  C   UNL     1       3.037   1.760  18.861  0.00  0.00    +0.000 A 
ATOM      8  C   UNL     1       2.354   2.793  19.529  0.00  0.00    +0.000 A 
ATOM      9  C   UNL     1       2.570   4.116  19.146  0.00  0.00    +0.000 A 
ATOM     10  C   UNL     1       1.915   5.286  19.775  0.00  0.00    +0.000 A 
ATOM     11  O   UNL     1       1.049   5.118  20.635  0.00  0.00    +0.000 OA
ATOM     12  C   UNL     1       4.974   3.965  16.380  0.00  0.00    +0.000 C 
ATOM     13  C   UNL     1       4.743   5.506  16.577  0.00  0.00    +0.000 C 
ATOM     14  C   UNL     1       6.053   6.214  16.906  0.00  0.00    +0.000 C 
ENDROOT
BRANCH   1  16
ATOM     15  N   UNL     1       1.790   7.895  21.325  0.00  0.00    +0.000 N 
ATOM     16  C   UNL     1       1.867   7.920  19.955  0.00  0.00    +0.000 C 
ATOM     17  O   UNL     1       1.577   8.908  19.285  0.00  0.00    +0.000 OA
ATOM     18  H   UNL     1       2.071   7.042  21.810  0.00  0.00    +0.000 HD
BRANCH  15  19
ATOM     19  C   UNL     1       1.428   9.053  22.112  0.00  0.00    +0.000 C 
BRANCH  19  20
ATOM     20  C   UNL     1      -0.079   9.165  22.353  0.00  0.00    +0.000 C 
BRANCH  20  22
ATOM     21  C   UNL     1      -1.390  11.224  23.099  0.00  0.00    +0.000 C 
ATOM     22  C   UNL     1      -0.706  10.509  21.932  0.00  0.00    +0.000 C 
ATOM     23  C   UNL     1       0.370  11.422  21.336  0.00  0.00    +0.000 C 
ENDBRANCH  20  22
ENDBRANCH  19  20
ENDBRANCH  15  19
ENDBRANCH   1  16
TORSDOF 4
ENDMDL
MODEL 9
REMARK VINA RESULT:      -7.3      3.572      7.092
REMARK  Name = 
REMARK  7 active torsions:
REMARK  status: ('A' for Active; 'I' for Inactive)
REMARK    1  A    between atoms: C_1  and  C_2
REMARK    2  A    between atoms: C_2  and  C_3
REMARK    3  A    between atoms: C_2  and  C_4
REMARK    4  A    between atoms: C_4  and  C_5
REMARK    5  A    between atoms: C_5  and  N_6
REMARK    6  A    between atoms: C_7  and  C_9
REMARK    7  A    between atoms: C_21  and  C_22
REMARK                            x       y       z     vdW  Elec       q    Type
REMARK                         _______ _______ _______ _____ _____    ______ ____
ROOT
ATOM      1  C   UNL     1       2.238   7.038  19.794  0.00  0.00    +0.000 A 
ATOM      2  C   UNL     1       2.102   5.913  20.529  0.00  0.00    +0.000 A 
ATOM      3  N   UNL     1       2.631   4.696  20.175  0.00  0.00    +0.000 N 
ATOM      4  C   UNL     1       3.309   4.573  18.958  0.00  0.00    +0.000 A 
ATOM      5  C   UNL     1       3.732   3.286  18.676  0.00  0.00    +0.000 A 
ATOM      6  C   UNL     1       4.389   3.015  17.491  0.00  0.00    +0.000 A 
ATOM      7  C   UNL     1       4.615   4.074  16.595  0.00  0.00    +0.000 A 
ATOM      8  C   UNL     1       4.193   5.383  16.896  0.00  0.00    +0.000 A 
ATOM      9  C   UNL     1       3.530   5.630  18.097  0.00  0.00    +0.000 A 
ATOM     10  C   UNL     1       3.035   6.960  18.522  0.00  0.00    +0.000 A 
ATOM     11  O   UNL     1       3.285   7.954  17.840  0.00  0.00    +0.000 OA
ATOM     12  C   UNL     1       3.356   2.393  19.813  0.00  0.00    +0.000 C 
ATOM     13  C   UNL     1       2.590   3.360  20.785  0.00  0.00    +0.000 C 
ATOM     14  C   UNL     1       1.155   2.892  20.998  0.00  0.00    +0.000 C 
ENDROOT
BRANCH   1  16
ATOM     15  N   UNL     1       1.231   9.179  19.294  0.00  0.00    +0.000 N 
ATOM     16  C   UNL     1       1.569   8.281  20.275  0.00  0.00    +0.000 C 
ATOM     17  O   UNL     1       1.335   8.469  21.466  0.00  0.00    +0.000 OA
ATOM     18  H   UNL     1       1.439   8.938  18.324  0.00  0.00    +0.000 HD
BRANCH  15  19
ATOM     19  C   UNL     1       0.505  10.400  19.565  0.00  0.00    +0.000 C 
BRANCH  19  20
ATOM     20  C   UNL     1      -1.011  10.201  19.594  0.00  0.00    +0.000 C 
BRANCH  20  22
ATOM     21  C   UNL     1      -1.173  12.299  18.148  0.00  0.00    +0.000 C 
ATOM     22  C   UNL     1      -1.784  10.936  18.481  0.00  0.00    +0.000 C 
ATOM     23  C   UNL     1      -1.822  10.073  17.215  0.00  0.00    +0.000 C 
ENDBRANCH  20  22
ENDBRANCH  19  20
ENDBRANCH  15  19
ENDBRANCH   1  16
TORSDOF 4
ENDMDL
