MODEL 1
REMARK VINA RESULT:      -8.2      0.000      0.000
REMARK  Name = 
REMARK  7 active torsions:
REMARK  status: ('A' for Active; 'I' for Inactive)
REMARK    1  A    between atoms: C_1  and  C_2
REMARK    2  A    between atoms: C_2  and  O_3
REMARK    3  A    between atoms: O_3  and  C_4
REMARK    4  A    between atoms: C_7  and  N_8
REMARK    5  A    between atoms: C_9  and  C_11
REMARK    6  A    between atoms: C_14  and  C_15
REMARK    7  A    between atoms: C_18  and  N_19
REMARK                            x       y       z     vdW  Elec       q    Type
REMARK                         _______ _______ _______ _____ _____    ______ ____
ROOT
ATOM      1  C   UNL     1       5.455   4.548  16.249  0.00  0.00    +0.000 A 
ATOM      2  C   UNL     1       5.515   5.938  16.221  0.00  0.00    +0.000 A 
ATOM      3  C   UNL     1       4.721   6.688  17.077  0.00  0.00    +0.000 A 
ATOM      4  C   UNL     1       3.832   6.057  17.955  0.00  0.00    +0.000 A 
ATOM      5  C   UNL     1       3.737   4.639  18.011  0.00  0.00    +0.000 A 
ATOM      6  C   UNL     1       4.580   3.914  17.141  0.00  0.00    +0.000 A 
ENDROOT
BRANCH   5   7
ATOM      7  N   UNL     1       2.870   3.982  18.889  0.00  0.00    +0.000 N 
ATOM      8  C   UNL     1       1.905   2.981  18.418  0.00  0.00    +0.000 C 
ATOM      9  C   UNL     1       0.650   3.093  19.289  0.00  0.00    +0.000 C 
ATOM     10  C   UNL     1       0.945   3.104  20.795  0.00  0.00    +0.000 C 
ATOM     11  C   UNL     1       2.157   3.960  21.178  0.00  0.00    +0.000 C 
ATOM     12  C   UNL     1       3.340   3.692  20.250  0.00  0.00    +0.000 C 
ENDBRANCH   5   7
BRANCH   4  13
ATOM     13  N   UNL     1       2.941   6.896  18.662  0.00  0.00    +0.000 N 
ATOM     14  C   UNL     1       2.450   8.077  18.129  0.00  0.00    +0.000 C 
ATOM     15  O   UNL     1       2.787   8.527  17.034  0.00  0.00    +0.000 OA
ATOM     16  H   UNL     1       2.853   6.738  19.661  0.00  0.00    +0.000 HD
BRANCH  14  17
ATOM     17  C   UNL     1       1.531   8.796  18.993  0.00  0.00    +0.000 A 
ATOM     18  C   UNL     1       0.441   9.591  18.686  0.00  0.00    +0.000 A 
ATOM     19  C   UNL     1      -0.129  10.009  19.918  0.00  0.00    +0.000 A 
ATOM     20  C   UNL     1       0.660   9.449  20.889  0.00  0.00    +0.000 A 
ATOM     21  O   UNL     1       1.671   8.720  20.356  0.00  0.00    +0.000 OA
BRANCH  20  22
ATOM     22  C   UNL     1       0.581   9.515  22.309  0.00  0.00    +0.000 C 
ATOM     23  N   UNL     1       0.518   9.542  23.454  0.00  0.00    +0.000 NA
ENDBRANCH  20  22
ENDBRANCH  14  17
ENDBRANCH   4  13
BRANCH   1  24
ATOM     24  O   UNL     1       6.301   3.926  15.369  0.00  0.00    +0.000 OA
BRANCH  24  26
ATOM     25  C   UNL     1       6.105   3.696  13.001  0.00  0.00    +0.000 C 
ATOM     26  C   UNL     1       6.564   4.593  14.137  0.00  0.00    +0.000 C 
ENDBRANCH  24  26
ENDBRANCH   1  24
TORSDOF 6
ENDMDL
MODEL 2
REMARK VINA RESULT:      -8.1      1.216      1.460
REMARK  Name = 
REMARK  7 active torsions:
REMARK  status: ('A' for Active; 'I' for Inactive)
REMARK    1  A    between atoms: C_1  and  C_2
REMARK    2  A    between atoms: C_2  and  O_3
REMARK    3  A    between atoms: O_3  and  C_4
REMARK    4  A    between atoms: C_7  and  N_8
REMARK    5  A    between atoms: C_9  and  C_11
REMARK    6  A    between atoms: C_14  and  C_15
REMARK    7  A    between atoms: C_18  and  N_19
REMARK                            x       y       z     vdW  Elec       q    Type
REMARK                         _______ _______ _______ _____ _____    ______ ____
ROOT
ATOM      1  C   UNL     1       5.300   4.277  16.251  0.00  0.00    +0.000 A 
ATOM      2  C   UNL     1       5.427   5.661  16.271  0.00  0.00    +0.000 A 
ATOM      3  C   UNL     1       4.733   6.413  17.209  0.00  0.00    +0.000 A 
ATOM      4  C   UNL     1       3.876   5.789  18.124  0.00  0.00    +0.000 A 
ATOM      5  C   UNL     1       3.715   4.376  18.133  0.00  0.00    +0.000 A 
ATOM      6  C   UNL     1       4.458   3.648  17.178  0.00  0.00    +0.000 A 
ENDROOT
BRANCH   5   7
ATOM      7  N   UNL     1       2.879   3.725  19.044  0.00  0.00    +0.000 N 
ATOM      8  C   UNL     1       1.441   3.562  18.797  0.00  0.00    +0.000 C 
ATOM      9  C   UNL     1       0.720   3.645  20.146  0.00  0.00    +0.000 C 
ATOM     10  C   UNL     1       1.334   2.746  21.227  0.00  0.00    +0.000 C 
ATOM     11  C   UNL     1       2.866   2.753  21.236  0.00  0.00    +0.000 C 
ATOM     12  C   UNL     1       3.430   2.609  19.824  0.00  0.00    +0.000 C 
ENDBRANCH   5   7
BRANCH   4  13
ATOM     13  N   UNL     1       3.079   6.639  18.924  0.00  0.00    +0.000 N 
ATOM     14  C   UNL     1       2.449   7.763  18.414  0.00  0.00    +0.000 C 
ATOM     15  O   UNL     1       2.572   8.152  17.253  0.00  0.00    +0.000 OA
ATOM     16  H   UNL     1       3.171   6.545  19.929  0.00  0.00    +0.000 HD
BRANCH  14  17
ATOM     17  C   UNL     1       1.657   8.502  19.380  0.00  0.00    +0.000 A 
ATOM     18  C   UNL     1       1.429   8.271  20.725  0.00  0.00    +0.000 A 
ATOM     19  C   UNL     1       0.613   9.332  21.198  0.00  0.00    +0.000 A 
ATOM     20  C   UNL     1       0.391  10.131  20.107  0.00  0.00    +0.000 A 
ATOM     21  O   UNL     1       1.003   9.647  18.998  0.00  0.00    +0.000 OA
BRANCH  20  22
ATOM     22  C   UNL     1      -0.352  11.337  19.968  0.00  0.00    +0.000 C 
ATOM     23  N   UNL     1      -0.952  12.312  19.884  0.00  0.00    +0.000 NA
ENDBRANCH  20  22
ENDBRANCH  14  17
ENDBRANCH   4  13
BRANCH   1  24
ATOM     24  O   UNL     1       6.051   3.652  15.290  0.00  0.00    +0.000 OA
BRANCH  24  26
ATOM     25  C   UNL     1       6.000   3.609  12.903  0.00  0.00    +0.000 C 
ATOM     26  C   UNL     1       6.389   4.412  14.132  0.00  0.00    +0.000 C 
ENDBRANCH  24  26
ENDBRANCH   1  24
TORSDOF 6
ENDMDL
MODEL 3
REMARK VINA RESULT:      -8.1      0.505      1.116
REMARK  Name = 
REMARK  7 active torsions:
REMARK  status: ('A' for Active; 'I' for Inactive)
REMARK    1  A    between atoms: C_1  and  C_2
REMARK    2  A    between atoms: C_2  and  O_3
REMARK    3  A    between atoms: O_3  and  C_4
REMARK    4  A    between atoms: C_7  and  N_8
REMARK    5  A    between atoms: C_9  and  C_11
REMARK    6  A    between atoms: C_14  and  C_15
REMARK    7  A    between atoms: C_18  and  N_19
REMARK                            x       y       z     vdW  Elec       q    Type
REMARK                         _______ _______ _______ _____ _____    ______ ____
ROOT
ATOM      1  C   UNL     1       5.426   4.694  16.580  0.00  0.00    +0.000 A 
ATOM      2  C   UNL     1       5.583   6.076  16.555  0.00  0.00    +0.000 A 
ATOM      3  C   UNL     1       4.813   6.882  17.382  0.00  0.00    +0.000 A 
ATOM      4  C   UNL     1       3.852   6.316  18.229  0.00  0.00    +0.000 A 
ATOM      5  C   UNL     1       3.657   4.908  18.281  0.00  0.00    +0.000 A 
ATOM      6  C   UNL     1       4.478   4.125  17.441  0.00  0.00    +0.000 A 
ENDROOT
BRANCH   5   7
ATOM      7  N   UNL     1       2.716   4.315  19.127  0.00  0.00    +0.000 N 
ATOM      8  C   UNL     1       2.606   4.687  20.543  0.00  0.00    +0.000 C 
ATOM      9  C   UNL     1       2.213   3.432  21.329  0.00  0.00    +0.000 C 
ATOM     10  C   UNL     1       1.023   2.675  20.725  0.00  0.00    +0.000 C 
ATOM     11  C   UNL     1       1.070   2.574  19.197  0.00  0.00    +0.000 C 
ATOM     12  C   UNL     1       1.420   3.918  18.563  0.00  0.00    +0.000 C 
ENDBRANCH   5   7
BRANCH   4  13
ATOM     13  N   UNL     1       2.998   7.216  18.904  0.00  0.00    +0.000 N 
ATOM     14  C   UNL     1       2.290   8.207  18.242  0.00  0.00    +0.000 C 
ATOM     15  O   UNL     1       2.386   8.430  17.036  0.00  0.00    +0.000 OA
ATOM     16  H   UNL     1       3.095   7.277  19.912  0.00  0.00    +0.000 HD
BRANCH  14  17
ATOM     17  C   UNL     1       1.448   9.023  19.098  0.00  0.00    +0.000 A 
ATOM     18  C   UNL     1       0.552  10.030  18.786  0.00  0.00    +0.000 A 
ATOM     19  C   UNL     1      -0.034  10.460  20.006  0.00  0.00    +0.000 A 
ATOM     20  C   UNL     1       0.553   9.692  20.979  0.00  0.00    +0.000 A 
ATOM     21  O   UNL     1       1.455   8.825  20.456  0.00  0.00    +0.000 OA
BRANCH  20  22
ATOM     22  C   UNL     1       0.367   9.671  22.389  0.00  0.00    +0.000 C 
ATOM     23  N   UNL     1       0.244   9.660  23.530  0.00  0.00    +0.000 NA
ENDBRANCH  20  22
ENDBRANCH  14  17
ENDBRANCH   4  13
BRANCH   1  24
ATOM     24  O   UNL     1       6.257   4.013  15.730  0.00  0.00    +0.000 OA
BRANCH  24  26
ATOM     25  C   UNL     1       5.976   3.801  13.369  0.00  0.00    +0.000 C 
ATOM     26  C   UNL     1       6.571   4.637  14.488  0.00  0.00    +0.000 C 
ENDBRANCH  24  26
ENDBRANCH   1  24
TORSDOF 6
ENDMDL
MODEL 4
REMARK VINA RESULT:      -7.8      2.142      7.095
REMARK  Name = 
REMARK  7 active torsions:
REMARK  status: ('A' for Active; 'I' for Inactive)
REMARK    1  A    between atoms: C_1  and  C_2
REMARK    2  A    between atoms: C_2  and  O_3
REMARK    3  A    between atoms: O_3  and  C_4
REMARK    4  A    between atoms: C_7  and  N_8
REMARK    5  A    between atoms: C_9  and  C_11
REMARK    6  A    between atoms: C_14  and  C_15
REMARK    7  A    between atoms: C_18  and  N_19
REMARK                            x       y       z     vdW  Elec       q    Type
REMARK                         _______ _______ _______ _____ _____    ______ ____
ROOT
ATOM      1  C   UNL     1       1.450   7.308  20.607  0.00  0.00    +0.000 A 
ATOM      2  C   UNL     1       1.902   8.189  19.631  0.00  0.00    +0.000 A 
ATOM      3  C   UNL     1       2.596   7.713  18.527  0.00  0.00    +0.000 A 
ATOM      4  C   UNL     1       2.874   6.347  18.399  0.00  0.00    +0.000 A 
ATOM      5  C   UNL     1       2.434   5.413  19.378  0.00  0.00    +0.000 A 
ATOM      6  C   UNL     1       1.711   5.937  20.472  0.00  0.00    +0.000 A 
ENDROOT
BRANCH   5   7
ATOM      7  N   UNL     1       2.683   4.042  19.269  0.00  0.00    +0.000 N 
ATOM      8  C   UNL     1       3.353   3.290  20.337  0.00  0.00    +0.000 C 
ATOM      9  C   UNL     1       4.204   2.200  19.679  0.00  0.00    +0.000 C 
ATOM     10  C   UNL     1       3.446   1.374  18.632  0.00  0.00    +0.000 C 
ATOM     11  C   UNL     1       2.539   2.213  17.726  0.00  0.00    +0.000 C 
ATOM     12  C   UNL     1       1.717   3.213  18.537  0.00  0.00    +0.000 C 
ENDBRANCH   5   7
BRANCH   4  13
ATOM     13  N   UNL     1       3.731   5.973  17.340  0.00  0.00    +0.000 N 
ATOM     14  C   UNL     1       5.059   5.631  17.544  0.00  0.00    +0.000 C 
ATOM     15  O   UNL     1       5.620   5.680  18.639  0.00  0.00    +0.000 OA
ATOM     16  H   UNL     1       3.423   6.189  16.399  0.00  0.00    +0.000 HD
BRANCH  14  17
ATOM     17  C   UNL     1       5.779   5.256  16.341  0.00  0.00    +0.000 A 
ATOM     18  C   UNL     1       7.121   5.363  16.023  0.00  0.00    +0.000 A 
ATOM     19  C   UNL     1       7.289   4.801  14.729  0.00  0.00    +0.000 A 
ATOM     20  C   UNL     1       6.036   4.400  14.344  0.00  0.00    +0.000 A 
ATOM     21  O   UNL     1       5.108   4.671  15.296  0.00  0.00    +0.000 OA
BRANCH  20  22
ATOM     22  C   UNL     1       5.582   3.772  13.151  0.00  0.00    +0.000 C 
ATOM     23  N   UNL     1       5.242   3.257  12.183  0.00  0.00    +0.000 NA
ENDBRANCH  20  22
ENDBRANCH  14  17
ENDBRANCH   4  13
BRANCH   1  24
ATOM     24  O   UNL     1       0.765   7.901  21.634  0.00  0.00    +0.000 OA
BRANCH  24  26
ATOM     25  C   UNL     1      -0.031  10.061  22.267  0.00  0.00    +0.000 C 
ATOM     26  C   UNL     1       1.197   9.197  22.042  0.00  0.00    +0.000 C 
ENDBRANCH  24  26
ENDBRANCH   1  24
TORSDOF 6
ENDMDL
MODEL 5
REMARK VINA RESULT:      -7.8      1.515      1.824
REMARK  Name = 
REMARK  7 active torsions:
REMARK  status: ('A' for Active; 'I' for Inactive)
REMARK    1  A    between atoms: C_1  and  C_2
REMARK    2  A    between atoms: C_2  and  O_3
REMARK    3  A    between atoms: O_3  and  C_4
REMARK    4  A    between atoms: C_7  and  N_8
REMARK    5  A    between atoms: C_9  and  C_11
REMARK    6  A    between atoms: C_14  and  C_15
REMARK    7  A    between atoms: C_18  and  N_19
REMARK                            x       y       z     vdW  Elec       q    Type
REMARK                         _______ _______ _______ _____ _____    ______ ____
ROOT
ATOM      1  C   UNL     1       5.462   4.190  15.749  0.00  0.00    +0.000 A 
ATOM      2  C   UNL     1       5.480   5.578  15.649  0.00  0.00    +0.000 A 
ATOM      3  C   UNL     1       4.675   6.348  16.478  0.00  0.00    +0.000 A 
ATOM      4  C   UNL     1       3.818   5.737  17.401  0.00  0.00    +0.000 A 
ATOM      5  C   UNL     1       3.767   4.322  17.531  0.00  0.00    +0.000 A 
ATOM      6  C   UNL     1       4.618   3.578  16.686  0.00  0.00    +0.000 A 
ENDROOT
BRANCH   5   7
ATOM      7  N   UNL     1       2.932   3.686  18.455  0.00  0.00    +0.000 N 
ATOM      8  C   UNL     1       1.491   3.533  18.219  0.00  0.00    +0.000 C 
ATOM      9  C   UNL     1       0.781   3.634  19.572  0.00  0.00    +0.000 C 
ATOM     10  C   UNL     1       1.395   2.740  20.657  0.00  0.00    +0.000 C 
ATOM     11  C   UNL     1       2.928   2.735  20.655  0.00  0.00    +0.000 C 
ATOM     12  C   UNL     1       3.479   2.573  19.240  0.00  0.00    +0.000 C 
ENDBRANCH   5   7
BRANCH   4  13
ATOM     13  N   UNL     1       2.913   6.585  18.078  0.00  0.00    +0.000 N 
ATOM     14  C   UNL     1       2.904   6.712  19.458  0.00  0.00    +0.000 C 
ATOM     15  O   UNL     1       3.630   6.064  20.212  0.00  0.00    +0.000 OA
ATOM     16  H   UNL     1       2.111   6.918  17.553  0.00  0.00    +0.000 HD
BRANCH  14  17
ATOM     17  C   UNL     1       1.917   7.644  19.974  0.00  0.00    +0.000 A 
ATOM     18  C   UNL     1       1.196   7.632  21.155  0.00  0.00    +0.000 A 
ATOM     19  C   UNL     1       0.404   8.810  21.171  0.00  0.00    +0.000 A 
ATOM     20  C   UNL     1       0.688   9.453  19.994  0.00  0.00    +0.000 A 
ATOM     21  O   UNL     1       1.591   8.765  19.252  0.00  0.00    +0.000 OA
BRANCH  20  22
ATOM     22  C   UNL     1       0.199  10.677  19.458  0.00  0.00    +0.000 C 
ATOM     23  N   UNL     1      -0.209  11.668  19.048  0.00  0.00    +0.000 NA
ENDBRANCH  20  22
ENDBRANCH  14  17
ENDBRANCH   4  13
BRANCH   1  24
ATOM     24  O   UNL     1       6.313   3.549  14.889  0.00  0.00    +0.000 OA
BRANCH  24  26
ATOM     25  C   UNL     1       5.867   3.406  12.548  0.00  0.00    +0.000 C 
ATOM     26  C   UNL     1       6.578   4.184  13.641  0.00  0.00    +0.000 C 
ENDBRANCH  24  26
ENDBRANCH   1  24
TORSDOF 6
ENDMDL
MODEL 6
REMARK VINA RESULT:      -7.6      1.337      1.603
REMARK  Name = 
REMARK  7 active torsions:
REMARK  status: ('A' for Active; 'I' for Inactive)
REMARK    1  A    between atoms: C_1  and  C_2
REMARK    2  A    between atoms: C_2  and  O_3
REMARK    3  A    between atoms: O_3  and  C_4
REMARK    4  A    between atoms: C_7  and  N_8
REMARK    5  A    between atoms: C_9  and  C_11
REMARK    6  A    between atoms: C_14  and  C_15
REMARK    7  A    between atoms: C_18  and  N_19
REMARK                            x       y       z     vdW  Elec       q    Type
REMARK                         _______ _______ _______ _____ _____    ______ ____
ROOT
ATOM      1  C   UNL     1       5.644   5.264  15.549  0.00  0.00    +0.000 A 
ATOM      2  C   UNL     1       5.784   6.572  16.003  0.00  0.00    +0.000 A 
ATOM      3  C   UNL     1       5.040   7.018  17.086  0.00  0.00    +0.000 A 
ATOM      4  C   UNL     1       4.123   6.168  17.716  0.00  0.00    +0.000 A 
ATOM      5  C   UNL     1       3.948   4.826  17.280  0.00  0.00    +0.000 A 
ATOM      6  C   UNL     1       4.741   4.406  16.190  0.00  0.00    +0.000 A 
ENDROOT
BRANCH   5   7
ATOM      7  N   UNL     1       3.051   3.950  17.899  0.00  0.00    +0.000 N 
ATOM      8  C   UNL     1       1.603   4.191  17.890  0.00  0.00    +0.000 C 
ATOM      9  C   UNL     1       1.034   3.681  19.218  0.00  0.00    +0.000 C 
ATOM     10  C   UNL     1       1.489   2.260  19.577  0.00  0.00    +0.000 C 
ATOM     11  C   UNL     1       2.971   1.998  19.288  0.00  0.00    +0.000 C 
ATOM     12  C   UNL     1       3.367   2.516  17.908  0.00  0.00    +0.000 C 
ENDBRANCH   5   7
BRANCH   4  13
ATOM     13  N   UNL     1       3.288   6.754  18.694  0.00  0.00    +0.000 N 
ATOM     14  C   UNL     1       2.484   7.850  18.425  0.00  0.00    +0.000 C 
ATOM     15  O   UNL     1       2.471   8.443  17.346  0.00  0.00    +0.000 OA
ATOM     16  H   UNL     1       3.465   6.505  19.661  0.00  0.00    +0.000 HD
BRANCH  14  17
ATOM     17  C   UNL     1       1.680   8.301  19.546  0.00  0.00    +0.000 A 
ATOM     18  C   UNL     1       1.539   7.781  20.821  0.00  0.00    +0.000 A 
ATOM     19  C   UNL     1       0.659   8.644  21.527  0.00  0.00    +0.000 A 
ATOM     20  C   UNL     1       0.315   9.622  20.630  0.00  0.00    +0.000 A 
ATOM     21  O   UNL     1       0.912   9.432  19.427  0.00  0.00    +0.000 OA
BRANCH  20  22
ATOM     22  C   UNL     1      -0.535  10.755  20.766  0.00  0.00    +0.000 C 
ATOM     23  N   UNL     1      -1.201  11.681  20.888  0.00  0.00    +0.000 NA
ENDBRANCH  20  22
ENDBRANCH  14  17
ENDBRANCH   4  13
BRANCH   1  24
ATOM     24  O   UNL     1       6.446   4.944  14.486  0.00  0.00    +0.000 OA
BRANCH  24  26
ATOM     25  C   UNL     1       5.779   3.670  12.580  0.00  0.00    +0.000 C 
ATOM     26  C   UNL     1       6.359   3.613  13.983  0.00  0.00    +0.000 C 
ENDBRANCH  24  26
ENDBRANCH   1  24
TORSDOF 6
ENDMDL
MODEL 7
REMARK VINA RESULT:      -7.6      1.523      2.049
REMARK  Name = 
REMARK  7 active torsions:
REMARK  status: ('A' for Active; 'I' for Inactive)
REMARK    1  A    between atoms: C_1  and  C_2
REMARK    2  A    between atoms: C_2  and  O_3
REMARK    3  A    between atoms: O_3  and  C_4
REMARK    4  A    between atoms: C_7  and  N_8
REMARK    5  A    between atoms: C_9  and  C_11
REMARK    6  A    between atoms: C_14  and  C_15
REMARK    7  A    between atoms: C_18  and  N_19
REMARK                            x       y       z     vdW  Elec       q    Type
REMARK                         _______ _______ _______ _____ _____    ______ ____
ROOT
ATOM      1  C   UNL     1       5.236   4.706  16.668  0.00  0.00    +0.000 A 
ATOM      2  C   UNL     1       5.273   6.088  16.523  0.00  0.00    +0.000 A 
ATOM      3  C   UNL     1       4.455   6.894  17.304  0.00  0.00    +0.000 A 
ATOM      4  C   UNL     1       3.566   6.324  18.222  0.00  0.00    +0.000 A 
ATOM      5  C   UNL     1       3.494   4.915  18.397  0.00  0.00    +0.000 A 
ATOM      6  C   UNL     1       4.360   4.134  17.600  0.00  0.00    +0.000 A 
ENDROOT
BRANCH   5   7
ATOM      7  N   UNL     1       2.627   4.318  19.317  0.00  0.00    +0.000 N 
ATOM      8  C   UNL     1       2.570   4.750  20.719  0.00  0.00    +0.000 C 
ATOM      9  C   UNL     1       2.279   3.516  21.578  0.00  0.00    +0.000 C 
ATOM     10  C   UNL     1       1.098   2.678  21.072  0.00  0.00    +0.000 C 
ATOM     11  C   UNL     1       1.072   2.509  19.549  0.00  0.00    +0.000 C 
ATOM     12  C   UNL     1       1.324   3.837  18.839  0.00  0.00    +0.000 C 
ENDBRANCH   5   7
BRANCH   4  13
ATOM     13  N   UNL     1       2.652   7.204  18.846  0.00  0.00    +0.000 N 
ATOM     14  C   UNL     1       2.149   8.327  18.209  0.00  0.00    +0.000 C 
ATOM     15  O   UNL     1       2.492   8.689  17.083  0.00  0.00    +0.000 OA
ATOM     16  H   UNL     1       2.555   7.129  19.853  0.00  0.00    +0.000 HD
BRANCH  14  17
ATOM     17  C   UNL     1       1.207   9.099  18.999  0.00  0.00    +0.000 A 
ATOM     18  C   UNL     1       1.107   9.271  20.368  0.00  0.00    +0.000 A 
ATOM     19  C   UNL     1       0.029  10.166  20.597  0.00  0.00    +0.000 A 
ATOM     20  C   UNL     1      -0.460  10.470  19.354  0.00  0.00    +0.000 A 
ATOM     21  O   UNL     1       0.229   9.832  18.375  0.00  0.00    +0.000 OA
BRANCH  20  22
ATOM     22  C   UNL     1      -1.534  11.313  18.953  0.00  0.00    +0.000 C 
ATOM     23  N   UNL     1      -2.385  12.016  18.639  0.00  0.00    +0.000 NA
ENDBRANCH  20  22
ENDBRANCH  14  17
ENDBRANCH   4  13
BRANCH   1  24
ATOM     24  O   UNL     1       6.102   4.027  15.853  0.00  0.00    +0.000 OA
BRANCH  24  26
ATOM     25  C   UNL     1       6.170   3.859  13.472  0.00  0.00    +0.000 C 
ATOM     26  C   UNL     1       6.553   4.698  14.679  0.00  0.00    +0.000 C 
ENDBRANCH  24  26
ENDBRANCH   1  24
TORSDOF 6
ENDMDL
MODEL 8
REMARK VINA RESULT:      -7.5      2.142      7.092
REMARK  Name = 
REMARK  7 active torsions:
REMARK  status: ('A' for Active; 'I' for Inactive)
REMARK    1  A    between atoms: C_1  and  C_2
REMARK    2  A    between atoms: C_2  and  O_3
REMARK    3  A    between atoms: O_3  and  C_4
REMARK    4  A    between atoms: C_7  and  N_8
REMARK    5  A    between atoms: C_9  and  C_11
REMARK    6  A    between atoms: C_14  and  C_15
REMARK    7  A    between atoms: C_18  and  N_19
REMARK                            x       y       z     vdW  Elec       q    Type
REMARK                         _______ _______ _______ _____ _____    ______ ____
ROOT
ATOM      1  C   UNL     1       1.402   8.457  20.214  0.00  0.00    +0.000 A 
ATOM      2  C   UNL     1       1.896   9.044  19.053  0.00  0.00    +0.000 A 
ATOM      3  C   UNL     1       2.500   8.262  18.079  0.00  0.00    +0.000 A 
ATOM      4  C   UNL     1       2.644   6.882  18.265  0.00  0.00    +0.000 A 
ATOM      5  C   UNL     1       2.157   6.245  19.440  0.00  0.00    +0.000 A 
ATOM      6  C   UNL     1       1.528   7.074  20.394  0.00  0.00    +0.000 A 
ENDROOT
BRANCH   5   7
ATOM      7  N   UNL     1       2.273   4.867  19.646  0.00  0.00    +0.000 N 
ATOM      8  C   UNL     1       3.498   4.266  20.189  0.00  0.00    +0.000 C 
ATOM      9  C   UNL     1       3.676   2.893  19.536  0.00  0.00    +0.000 C 
ATOM     10  C   UNL     1       2.412   2.024  19.575  0.00  0.00    +0.000 C 
ATOM     11  C   UNL     1       1.125   2.797  19.270  0.00  0.00    +0.000 C 
ATOM     12  C   UNL     1       1.075   4.115  20.038  0.00  0.00    +0.000 C 
ENDBRANCH   5   7
BRANCH   4  13
ATOM     13  N   UNL     1       3.423   6.193  17.308  0.00  0.00    +0.000 N 
ATOM     14  C   UNL     1       4.796   6.049  17.430  0.00  0.00    +0.000 C 
ATOM     15  O   UNL     1       5.460   6.552  18.336  0.00  0.00    +0.000 OA
ATOM     16  H   UNL     1       2.992   6.010  16.408  0.00  0.00    +0.000 HD
BRANCH  14  17
ATOM     17  C   UNL     1       5.423   5.294  16.361  0.00  0.00    +0.000 A 
ATOM     18  C   UNL     1       5.234   3.986  15.950  0.00  0.00    +0.000 A 
ATOM     19  C   UNL     1       6.076   3.777  14.826  0.00  0.00    +0.000 A 
ATOM     20  C   UNL     1       6.728   4.968  14.636  0.00  0.00    +0.000 A 
ATOM     21  O   UNL     1       6.357   5.894  15.554  0.00  0.00    +0.000 OA
BRANCH  20  22
ATOM     22  C   UNL     1       7.692   5.360  13.666  0.00  0.00    +0.000 C 
ATOM     23  N   UNL     1       8.489   5.662  12.897  0.00  0.00    +0.000 NA
ENDBRANCH  20  22
ENDBRANCH  14  17
ENDBRANCH   4  13
BRANCH   1  24
ATOM     24  O   UNL     1       0.814   9.335  21.086  0.00  0.00    +0.000 OA
BRANCH  24  26
ATOM     25  C   UNL     1      -0.134   9.546  23.267  0.00  0.00    +0.000 C 
ATOM     26  C   UNL     1       1.103   9.166  22.472  0.00  0.00    +0.000 C 
ENDBRANCH  24  26
ENDBRANCH   1  24
TORSDOF 6
ENDMDL
MODEL 9
REMARK VINA RESULT:      -7.5      1.132      1.182
REMARK  Name = 
REMARK  7 active torsions:
REMARK  status: ('A' for Active; 'I' for Inactive)
REMARK    1  A    between atoms: C_1  and  C_2
REMARK    2  A    between atoms: C_2  and  O_3
REMARK    3  A    between atoms: O_3  and  C_4
REMARK    4  A    between atoms: C_7  and  N_8
REMARK    5  A    between atoms: C_9  and  C_11
REMARK    6  A    between atoms: C_14  and  C_15
REMARK    7  A    between atoms: C_18  and  N_19
REMARK                            x       y       z     vdW  Elec       q    Type
REMARK                         _______ _______ _______ _____ _____    ______ ____
ROOT
ATOM      1  C   UNL     1       5.478   4.207  15.692  0.00  0.00    +0.000 A 
ATOM      2  C   UNL     1       5.548   5.590  15.554  0.00  0.00    +0.000 A 
ATOM      3  C   UNL     1       4.767   6.412  16.355  0.00  0.00    +0.000 A 
ATOM      4  C   UNL     1       3.882   5.859  17.289  0.00  0.00    +0.000 A 
ATOM      5  C   UNL     1       3.778   4.451  17.457  0.00  0.00    +0.000 A 
ATOM      6  C   UNL     1       4.607   3.653  16.639  0.00  0.00    +0.000 A 
ENDROOT
BRANCH   5   7
ATOM      7  N   UNL     1       2.914   3.872  18.392  0.00  0.00    +0.000 N 
ATOM      8  C   UNL     1       1.464   3.813  18.173  0.00  0.00    +0.000 C 
ATOM      9  C   UNL     1       0.777   3.962  19.534  0.00  0.00    +0.000 C 
ATOM     10  C   UNL     1       1.345   3.032  20.614  0.00  0.00    +0.000 C 
ATOM     11  C   UNL     1       2.873   2.927  20.594  0.00  0.00    +0.000 C 
ATOM     12  C   UNL     1       3.397   2.727  19.174  0.00  0.00    +0.000 C 
ENDBRANCH   5   7
BRANCH   4  13
ATOM     13  N   UNL     1       3.004   6.758  17.935  0.00  0.00    +0.000 N 
ATOM     14  C   UNL     1       2.973   6.905  19.314  0.00  0.00    +0.000 C 
ATOM     15  O   UNL     1       3.651   6.233  20.090  0.00  0.00    +0.000 OA
ATOM     16  H   UNL     1       2.231   7.121  17.389  0.00  0.00    +0.000 HD
BRANCH  14  17
ATOM     17  C   UNL     1       2.021   7.889  19.796  0.00  0.00    +0.000 A 
ATOM     18  C   UNL     1       1.186   8.749  19.105  0.00  0.00    +0.000 A 
ATOM     19  C   UNL     1       0.433   9.465  20.073  0.00  0.00    +0.000 A 
ATOM     20  C   UNL     1       0.869   9.000  21.286  0.00  0.00    +0.000 A 
ATOM     21  O   UNL     1       1.832   8.056  21.145  0.00  0.00    +0.000 OA
BRANCH  20  22
ATOM     22  C   UNL     1       0.482   9.344  22.612  0.00  0.00    +0.000 C 
ATOM     23  N   UNL     1       0.190   9.606  23.690  0.00  0.00    +0.000 NA
ENDBRANCH  20  22
ENDBRANCH  14  17
ENDBRANCH   4  13
BRANCH   1  24
ATOM     24  O   UNL     1       6.310   3.511  14.857  0.00  0.00    +0.000 OA
BRANCH  24  26
ATOM     25  C   UNL     1       5.720   3.422  12.545  0.00  0.00    +0.000 C 
ATOM     26  C   UNL     1       6.596   4.095  13.588  0.00  0.00    +0.000 C 
ENDBRANCH  24  26
ENDBRANCH   1  24
TORSDOF 6
ENDMDL
