MODEL 1
REMARK VINA RESULT:      -7.9      0.000      0.000
REMARK  Name = 
REMARK  7 active torsions:
REMARK  status: ('A' for Active; 'I' for Inactive)
REMARK    1  A    between atoms: C_1  and  O_2
REMARK    2  A    between atoms: O_2  and  C_3
REMARK    3  A    between atoms: C_8  and  C_9
REMARK    4  A    between atoms: C_11  and  N_12
REMARK    5  A    between atoms: N_12  and  N_13
REMARK    6  A    between atoms: C_14  and  C_15
REMARK    7  A    between atoms: C_18  and  N_19
REMARK                            x       y       z     vdW  Elec       q    Type
REMARK                         _______ _______ _______ _____ _____    ______ ____
ROOT
ATOM      1  C   UNL     1       4.978   5.184  16.359  0.00  0.00    +0.000 A 
ATOM      2  C   UNL     1       4.988   3.806  16.505  0.00  0.00    +0.000 A 
ATOM      3  C   UNL     1       4.235   3.217  17.518  0.00  0.00    +0.000 A 
ATOM      4  C   UNL     1       3.476   3.968  18.404  0.00  0.00    +0.000 A 
ATOM      5  N   UNL     1       2.800   3.298  19.346  0.00  0.00    +0.000 NA
ATOM      6  C   UNL     1       2.047   3.998  20.220  0.00  0.00    +0.000 A 
ATOM      7  C   UNL     1       1.298   3.221  21.260  0.00  0.00    +0.000 C 
ATOM      8  C   UNL     1       1.944   5.378  20.176  0.00  0.00    +0.000 A 
ATOM      9  C   UNL     1       2.661   6.101  19.217  0.00  0.00    +0.000 A 
ATOM     10  C   UNL     1       3.455   5.377  18.281  0.00  0.00    +0.000 A 
ATOM     11  C   UNL     1       4.227   5.962  17.243  0.00  0.00    +0.000 A 
ENDROOT
BRANCH   1  13
ATOM     12  C   UNL     1       6.821   5.139  14.900  0.00  0.00    +0.000 C 
ATOM     13  O   UNL     1       5.711   5.866  15.428  0.00  0.00    +0.000 OA
ENDBRANCH   1  13
BRANCH   9  14
ATOM     14  N   UNL     1       2.482   7.506  19.114  0.00  0.00    +0.000 N 
ATOM     15  H   UNL     1       3.180   8.002  18.569  0.00  0.00    +0.000 HD
BRANCH  14  16
ATOM     16  N   UNL     1       1.777   8.153  20.077  0.00  0.00    +0.000 NA
ATOM     17  C   UNL     1       1.116   9.195  19.677  0.00  0.00    +0.000 C 
BRANCH  17  18
ATOM     18  C   UNL     1       0.271   9.968  20.610  0.00  0.00    +0.000 A 
ATOM     19  C   UNL     1      -0.436  11.082  20.146  0.00  0.00    +0.000 A 
ATOM     20  C   UNL     1      -1.239  11.818  21.019  0.00  0.00    +0.000 A 
ATOM     21  C   UNL     1      -1.327  11.436  22.365  0.00  0.00    +0.000 A 
ATOM     22  C   UNL     1      -0.615  10.323  22.838  0.00  0.00    +0.000 A 
ATOM     23  C   UNL     1       0.186   9.585  21.955  0.00  0.00    +0.000 A 
BRANCH  21  24
ATOM     24  N   UNL     1      -2.178  12.208  23.279  0.00  0.00    +0.000 N 
ATOM     25  O   UNL     1      -3.241  11.699  23.650  0.00  0.00    +0.000 OA
ATOM     26  O   UNL     1      -1.774  13.331  23.626  0.00  0.00    +0.000 OA
ENDBRANCH  21  24
ENDBRANCH  17  18
ENDBRANCH  14  16
ENDBRANCH   9  14
TORSDOF 5
ENDMDL
MODEL 2
REMARK VINA RESULT:      -7.8      1.781      1.942
REMARK  Name = 
REMARK  7 active torsions:
REMARK  status: ('A' for Active; 'I' for Inactive)
REMARK    1  A    between atoms: C_1  and  O_2
REMARK    2  A    between atoms: O_2  and  C_3
REMARK    3  A    between atoms: C_8  and  C_9
REMARK    4  A    between atoms: C_11  and  N_12
REMARK    5  A    between atoms: N_12  and  N_13
REMARK    6  A    between atoms: C_14  and  C_15
REMARK    7  A    between atoms: C_18  and  N_19
REMARK                            x       y       z     vdW  Elec       q    Type
REMARK                         _______ _______ _______ _____ _____    ______ ____
ROOT
ATOM      1  C   UNL     1       5.547   6.143  16.792  0.00  0.00    +0.000 A 
ATOM      2  C   UNL     1       5.369   5.045  15.965  0.00  0.00    +0.000 A 
ATOM      3  C   UNL     1       4.364   4.123  16.253  0.00  0.00    +0.000 A 
ATOM      4  C   UNL     1       3.534   4.259  17.356  0.00  0.00    +0.000 A 
ATOM      5  N   UNL     1       2.609   3.308  17.542  0.00  0.00    +0.000 NA
ATOM      6  C   UNL     1       1.781   3.413  18.601  0.00  0.00    +0.000 A 
ATOM      7  C   UNL     1       0.754   2.336  18.781  0.00  0.00    +0.000 C 
ATOM      8  C   UNL     1       1.848   4.466  19.498  0.00  0.00    +0.000 A 
ATOM      9  C   UNL     1       2.822   5.457  19.338  0.00  0.00    +0.000 A 
ATOM     10  C   UNL     1       3.699   5.367  18.219  0.00  0.00    +0.000 A 
ATOM     11  C   UNL     1       4.727   6.297  17.912  0.00  0.00    +0.000 A 
ENDROOT
BRANCH   1  13
ATOM     12  C   UNL     1       7.466   7.153  17.699  0.00  0.00    +0.000 C 
ATOM     13  O   UNL     1       6.526   7.083  16.626  0.00  0.00    +0.000 OA
ENDBRANCH   1  13
BRANCH   9  14
ATOM     14  N   UNL     1       2.829   6.584  20.203  0.00  0.00    +0.000 N 
ATOM     15  H   UNL     1       3.100   6.402  21.164  0.00  0.00    +0.000 HD
BRANCH  14  16
ATOM     16  N   UNL     1       2.047   7.651  19.901  0.00  0.00    +0.000 NA
ATOM     17  C   UNL     1       1.390   8.159  20.899  0.00  0.00    +0.000 C 
BRANCH  17  18
ATOM     18  C   UNL     1       0.534   9.350  20.722  0.00  0.00    +0.000 A 
ATOM     19  C   UNL     1       0.270   9.828  19.434  0.00  0.00    +0.000 A 
ATOM     20  C   UNL     1      -0.539  10.952  19.255  0.00  0.00    +0.000 A 
ATOM     21  C   UNL     1      -1.079  11.601  20.375  0.00  0.00    +0.000 A 
ATOM     22  C   UNL     1      -0.811  11.129  21.669  0.00  0.00    +0.000 A 
ATOM     23  C   UNL     1      -0.002   9.997  21.842  0.00  0.00    +0.000 A 
BRANCH  21  24
ATOM     24  N   UNL     1      -1.935  12.778  20.183  0.00  0.00    +0.000 N 
ATOM     25  O   UNL     1      -3.155  12.636  20.317  0.00  0.00    +0.000 OA
ATOM     26  O   UNL     1      -1.376  13.852  19.898  0.00  0.00    +0.000 OA
ENDBRANCH  21  24
ENDBRANCH  17  18
ENDBRANCH  14  16
ENDBRANCH   9  14
TORSDOF 5
ENDMDL
MODEL 3
REMARK VINA RESULT:      -7.8      2.120      2.455
REMARK  Name = 
REMARK  7 active torsions:
REMARK  status: ('A' for Active; 'I' for Inactive)
REMARK    1  A    between atoms: C_1  and  O_2
REMARK    2  A    between atoms: O_2  and  C_3
REMARK    3  A    between atoms: C_8  and  C_9
REMARK    4  A    between atoms: C_11  and  N_12
REMARK    5  A    between atoms: N_12  and  N_13
REMARK    6  A    between atoms: C_14  and  C_15
REMARK    7  A    between atoms: C_18  and  N_19
REMARK                            x       y       z     vdW  Elec       q    Type
REMARK                         _______ _______ _______ _____ _____    ______ ____
ROOT
ATOM      1  C   UNL     1       5.695   6.117  16.660  0.00  0.00    +0.000 A 
ATOM      2  C   UNL     1       5.495   5.006  15.856  0.00  0.00    +0.000 A 
ATOM      3  C   UNL     1       4.475   4.109  16.165  0.00  0.00    +0.000 A 
ATOM      4  C   UNL     1       3.649   4.283  17.267  0.00  0.00    +0.000 A 
ATOM      5  N   UNL     1       2.708   3.353  17.475  0.00  0.00    +0.000 NA
ATOM      6  C   UNL     1       1.885   3.495  18.534  0.00  0.00    +0.000 A 
ATOM      7  C   UNL     1       0.839   2.441  18.739  0.00  0.00    +0.000 C 
ATOM      8  C   UNL     1       1.973   4.565  19.408  0.00  0.00    +0.000 A 
ATOM      9  C   UNL     1       2.964   5.535  19.225  0.00  0.00    +0.000 A 
ATOM     10  C   UNL     1       3.837   5.405  18.107  0.00  0.00    +0.000 A 
ATOM     11  C   UNL     1       4.880   6.310  17.778  0.00  0.00    +0.000 A 
ENDROOT
BRANCH   1  13
ATOM     12  C   UNL     1       7.571   7.188  17.585  0.00  0.00    +0.000 C 
ATOM     13  O   UNL     1       6.690   7.036  16.472  0.00  0.00    +0.000 OA
ENDBRANCH   1  13
BRANCH   9  14
ATOM     14  N   UNL     1       2.994   6.679  20.066  0.00  0.00    +0.000 N 
ATOM     15  H   UNL     1       3.659   6.648  20.833  0.00  0.00    +0.000 HD
BRANCH  14  16
ATOM     16  N   UNL     1       1.892   7.467  20.146  0.00  0.00    +0.000 NA
ATOM     17  C   UNL     1       1.859   8.464  19.317  0.00  0.00    +0.000 C 
BRANCH  17  18
ATOM     18  C   UNL     1       0.698   9.376  19.265  0.00  0.00    +0.000 A 
ATOM     19  C   UNL     1       0.059   9.618  18.045  0.00  0.00    +0.000 A 
ATOM     20  C   UNL     1      -1.040  10.476  17.985  0.00  0.00    +0.000 A 
ATOM     21  C   UNL     1      -1.494  11.100  19.156  0.00  0.00    +0.000 A 
ATOM     22  C   UNL     1      -0.853  10.866  20.382  0.00  0.00    +0.000 A 
ATOM     23  C   UNL     1       0.247  10.000  20.436  0.00  0.00    +0.000 A 
BRANCH  21  24
ATOM     24  N   UNL     1      -2.655  11.997  19.091  0.00  0.00    +0.000 N 
ATOM     25  O   UNL     1      -2.762  12.870  19.958  0.00  0.00    +0.000 OA
ATOM     26  O   UNL     1      -3.463  11.821  18.162  0.00  0.00    +0.000 OA
ENDBRANCH  21  24
ENDBRANCH  17  18
ENDBRANCH  14  16
ENDBRANCH   9  14
TORSDOF 5
ENDMDL
MODEL 4
REMARK VINA RESULT:      -7.7      1.663      2.064
REMARK  Name = 
REMARK  7 active torsions:
REMARK  status: ('A' for Active; 'I' for Inactive)
REMARK    1  A    between atoms: C_1  and  O_2
REMARK    2  A    between atoms: O_2  and  C_3
REMARK    3  A    between atoms: C_8  and  C_9
REMARK    4  A    between atoms: C_11  and  N_12
REMARK    5  A    between atoms: N_12  and  N_13
REMARK    6  A    between atoms: C_14  and  C_15
REMARK    7  A    between atoms: C_18  and  N_19
REMARK                            x       y       z     vdW  Elec       q    Type
REMARK                         _______ _______ _______ _____ _____    ______ ____
ROOT
ATOM      1  C   UNL     1       5.480   6.234  16.897  0.00  0.00    +0.000 A 
ATOM      2  C   UNL     1       5.326   5.129  16.075  0.00  0.00    +0.000 A 
ATOM      3  C   UNL     1       4.322   4.203  16.348  0.00  0.00    +0.000 A 
ATOM      4  C   UNL     1       3.468   4.341  17.433  0.00  0.00    +0.000 A 
ATOM      5  N   UNL     1       2.546   3.385  17.607  0.00  0.00    +0.000 NA
ATOM      6  C   UNL     1       1.695   3.493  18.648  0.00  0.00    +0.000 A 
ATOM      7  C   UNL     1       0.672   2.411  18.816  0.00  0.00    +0.000 C 
ATOM      8  C   UNL     1       1.736   4.553  19.538  0.00  0.00    +0.000 A 
ATOM      9  C   UNL     1       2.707   5.550  19.391  0.00  0.00    +0.000 A 
ATOM     10  C   UNL     1       3.608   5.457  18.291  0.00  0.00    +0.000 A 
ATOM     11  C   UNL     1       4.635   6.391  17.998  0.00  0.00    +0.000 A 
ENDROOT
BRANCH   1  13
ATOM     12  C   UNL     1       7.530   7.076  17.678  0.00  0.00    +0.000 C 
ATOM     13  O   UNL     1       6.456   7.179  16.744  0.00  0.00    +0.000 OA
ENDBRANCH   1  13
BRANCH   9  14
ATOM     14  N   UNL     1       2.689   6.683  20.246  0.00  0.00    +0.000 N 
ATOM     15  H   UNL     1       3.055   6.537  21.182  0.00  0.00    +0.000 HD
BRANCH  14  16
ATOM     16  N   UNL     1       1.794   7.675  20.007  0.00  0.00    +0.000 NA
ATOM     17  C   UNL     1       1.429   8.358  21.049  0.00  0.00    +0.000 C 
BRANCH  17  18
ATOM     18  C   UNL     1       0.494   9.495  20.926  0.00  0.00    +0.000 A 
ATOM     19  C   UNL     1       0.007  10.120  22.079  0.00  0.00    +0.000 A 
ATOM     20  C   UNL     1      -0.876  11.196  21.975  0.00  0.00    +0.000 A 
ATOM     21  C   UNL     1      -1.276  11.642  20.707  0.00  0.00    +0.000 A 
ATOM     22  C   UNL     1      -0.796  11.014  19.547  0.00  0.00    +0.000 A 
ATOM     23  C   UNL     1       0.094   9.937  19.658  0.00  0.00    +0.000 A 
BRANCH  21  24
ATOM     24  N   UNL     1      -2.199  12.779  20.600  0.00  0.00    +0.000 N 
ATOM     25  O   UNL     1      -1.734  13.874  20.267  0.00  0.00    +0.000 OA
ATOM     26  O   UNL     1      -3.399  12.568  20.852  0.00  0.00    +0.000 OA
ENDBRANCH  21  24
ENDBRANCH  17  18
ENDBRANCH  14  16
ENDBRANCH   9  14
TORSDOF 5
ENDMDL
MODEL 5
REMARK VINA RESULT:      -7.7      3.333      8.744
REMARK  Name = 
REMARK  7 active torsions:
REMARK  status: ('A' for Active; 'I' for Inactive)
REMARK    1  A    between atoms: C_1  and  O_2
REMARK    2  A    between atoms: O_2  and  C_3
REMARK    3  A    between atoms: C_8  and  C_9
REMARK    4  A    between atoms: C_11  and  N_12
REMARK    5  A    between atoms: N_12  and  N_13
REMARK    6  A    between atoms: C_14  and  C_15
REMARK    7  A    between atoms: C_18  and  N_19
REMARK                            x       y       z     vdW  Elec       q    Type
REMARK                         _______ _______ _______ _____ _____    ______ ____
ROOT
ATOM      1  C   UNL     1      -2.517  10.211  16.591  0.00  0.00    +0.000 A 
ATOM      2  C   UNL     1      -3.518  10.940  17.212  0.00  0.00    +0.000 A 
ATOM      3  C   UNL     1      -3.276  11.519  18.456  0.00  0.00    +0.000 A 
ATOM      4  C   UNL     1      -2.059  11.380  19.109  0.00  0.00    +0.000 A 
ATOM      5  N   UNL     1      -1.940  11.970  20.305  0.00  0.00    +0.000 NA
ATOM      6  C   UNL     1      -0.768  11.860  20.964  0.00  0.00    +0.000 A 
ATOM      7  C   UNL     1      -0.663  12.533  22.299  0.00  0.00    +0.000 C 
ATOM      8  C   UNL     1       0.314  11.168  20.449  0.00  0.00    +0.000 A 
ATOM      9  C   UNL     1       0.205  10.522  19.212  0.00  0.00    +0.000 A 
ATOM     10  C   UNL     1      -1.023  10.635  18.498  0.00  0.00    +0.000 A 
ATOM     11  C   UNL     1      -1.286  10.053  17.231  0.00  0.00    +0.000 A 
ENDROOT
BRANCH   1  13
ATOM     12  C   UNL     1      -3.606  10.173  14.508  0.00  0.00    +0.000 C 
ATOM     13  O   UNL     1      -2.662   9.568  15.392  0.00  0.00    +0.000 OA
ENDBRANCH   1  13
BRANCH   9  14
ATOM     14  N   UNL     1       1.343   9.893  18.642  0.00  0.00    +0.000 N 
ATOM     15  H   UNL     1       1.655  10.265  17.750  0.00  0.00    +0.000 HD
BRANCH  14  16
ATOM     16  N   UNL     1       1.630   8.612  18.989  0.00  0.00    +0.000 NA
ATOM     17  C   UNL     1       2.419   7.979  18.176  0.00  0.00    +0.000 C 
BRANCH  17  18
ATOM     18  C   UNL     1       2.849   6.594  18.454  0.00  0.00    +0.000 A 
ATOM     19  C   UNL     1       2.461   5.973  19.646  0.00  0.00    +0.000 A 
ATOM     20  C   UNL     1       2.860   4.663  19.918  0.00  0.00    +0.000 A 
ATOM     21  C   UNL     1       3.659   3.977  18.991  0.00  0.00    +0.000 A 
ATOM     22  C   UNL     1       4.056   4.597  17.797  0.00  0.00    +0.000 A 
ATOM     23  C   UNL     1       3.648   5.911  17.527  0.00  0.00    +0.000 A 
BRANCH  21  24
ATOM     24  N   UNL     1       4.071   2.597  19.277  0.00  0.00    +0.000 N 
ATOM     25  O   UNL     1       4.859   2.409  20.209  0.00  0.00    +0.000 OA
ATOM     26  O   UNL     1       3.597   1.698  18.560  0.00  0.00    +0.000 OA
ENDBRANCH  21  24
ENDBRANCH  17  18
ENDBRANCH  14  16
ENDBRANCH   9  14
TORSDOF 5
ENDMDL
MODEL 6
REMARK VINA RESULT:      -7.7      3.375      8.790
REMARK  Name = 
REMARK  7 active torsions:
REMARK  status: ('A' for Active; 'I' for Inactive)
REMARK    1  A    between atoms: C_1  and  O_2
REMARK    2  A    between atoms: O_2  and  C_3
REMARK    3  A    between atoms: C_8  and  C_9
REMARK    4  A    between atoms: C_11  and  N_12
REMARK    5  A    between atoms: N_12  and  N_13
REMARK    6  A    between atoms: C_14  and  C_15
REMARK    7  A    between atoms: C_18  and  N_19
REMARK                            x       y       z     vdW  Elec       q    Type
REMARK                         _______ _______ _______ _____ _____    ______ ____
ROOT
ATOM      1  C   UNL     1      -2.995  10.145  16.619  0.00  0.00    +0.000 A 
ATOM      2  C   UNL     1      -4.010  10.707  17.376  0.00  0.00    +0.000 A 
ATOM      3  C   UNL     1      -3.697  11.389  18.549  0.00  0.00    +0.000 A 
ATOM      4  C   UNL     1      -2.390  11.520  18.999  0.00  0.00    +0.000 A 
ATOM      5  N   UNL     1      -2.205  12.188  20.145  0.00  0.00    +0.000 NA
ATOM      6  C   UNL     1      -0.947  12.338  20.607  0.00  0.00    +0.000 A 
ATOM      7  C   UNL     1      -0.770  13.093  21.890  0.00  0.00    +0.000 C 
ATOM      8  C   UNL     1       0.157  11.835  19.940  0.00  0.00    +0.000 A 
ATOM      9  C   UNL     1      -0.014  11.112  18.754  0.00  0.00    +0.000 A 
ATOM     10  C   UNL     1      -1.336  10.951  18.247  0.00  0.00    +0.000 A 
ATOM     11  C   UNL     1      -1.672  10.259  17.054  0.00  0.00    +0.000 A 
ENDROOT
BRANCH   1  13
ATOM     12  C   UNL     1      -3.625  10.192  14.355  0.00  0.00    +0.000 C 
ATOM     13  O   UNL     1      -3.194   9.421  15.476  0.00  0.00    +0.000 OA
ENDBRANCH   1  13
BRANCH   9  14
ATOM     14  N   UNL     1       1.123  10.677  18.023  0.00  0.00    +0.000 N 
ATOM     15  H   UNL     1       1.112  10.875  17.027  0.00  0.00    +0.000 HD
BRANCH  14  16
ATOM     16  N   UNL     1       1.866   9.651  18.509  0.00  0.00    +0.000 NA
ATOM     17  C   UNL     1       2.103   8.689  17.671  0.00  0.00    +0.000 C 
BRANCH  17  18
ATOM     18  C   UNL     1       2.936   7.531  18.053  0.00  0.00    +0.000 A 
ATOM     19  C   UNL     1       4.097   7.242  17.329  0.00  0.00    +0.000 A 
ATOM     20  C   UNL     1       4.892   6.150  17.683  0.00  0.00    +0.000 A 
ATOM     21  C   UNL     1       4.515   5.343  18.766  0.00  0.00    +0.000 A 
ATOM     22  C   UNL     1       3.348   5.624  19.492  0.00  0.00    +0.000 A 
ATOM     23  C   UNL     1       2.556   6.724  19.134  0.00  0.00    +0.000 A 
BRANCH  21  24
ATOM     24  N   UNL     1       5.357   4.200  19.140  0.00  0.00    +0.000 N 
ATOM     25  O   UNL     1       6.559   4.248  18.856  0.00  0.00    +0.000 OA
ATOM     26  O   UNL     1       4.807   3.250  19.725  0.00  0.00    +0.000 OA
ENDBRANCH  21  24
ENDBRANCH  17  18
ENDBRANCH  14  16
ENDBRANCH   9  14
TORSDOF 5
ENDMDL
MODEL 7
REMARK VINA RESULT:      -7.7      0.711      1.209
REMARK  Name = 
REMARK  7 active torsions:
REMARK  status: ('A' for Active; 'I' for Inactive)
REMARK    1  A    between atoms: C_1  and  O_2
REMARK    2  A    between atoms: O_2  and  C_3
REMARK    3  A    between atoms: C_8  and  C_9
REMARK    4  A    between atoms: C_11  and  N_12
REMARK    5  A    between atoms: N_12  and  N_13
REMARK    6  A    between atoms: C_14  and  C_15
REMARK    7  A    between atoms: C_18  and  N_19
REMARK                            x       y       z     vdW  Elec       q    Type
REMARK                         _______ _______ _______ _____ _____    ______ ____
ROOT
ATOM      1  C   UNL     1       4.527   4.415  16.663  0.00  0.00    +0.000 A 
ATOM      2  C   UNL     1       4.403   3.042  16.801  0.00  0.00    +0.000 A 
ATOM      3  C   UNL     1       3.708   2.520  17.890  0.00  0.00    +0.000 A 
ATOM      4  C   UNL     1       3.139   3.334  18.859  0.00  0.00    +0.000 A 
ATOM      5  N   UNL     1       2.503   2.724  19.868  0.00  0.00    +0.000 NA
ATOM      6  C   UNL     1       1.933   3.486  20.824  0.00  0.00    +0.000 A 
ATOM      7  C   UNL     1       1.225   2.777  21.939  0.00  0.00    +0.000 C 
ATOM      8  C   UNL     1       1.976   4.870  20.799  0.00  0.00    +0.000 A 
ATOM      9  C   UNL     1       2.657   5.528  19.768  0.00  0.00    +0.000 A 
ATOM     10  C   UNL     1       3.257   4.738  18.745  0.00  0.00    +0.000 A 
ATOM     11  C   UNL     1       3.968   5.254  17.630  0.00  0.00    +0.000 A 
ENDROOT
BRANCH   1  13
ATOM     12  C   UNL     1       6.270   4.241  15.096  0.00  0.00    +0.000 C 
ATOM     13  O   UNL     1       5.222   5.030  15.658  0.00  0.00    +0.000 OA
ENDBRANCH   1  13
BRANCH   9  14
ATOM     14  N   UNL     1       2.621   6.945  19.692  0.00  0.00    +0.000 N 
ATOM     15  H   UNL     1       3.445   7.388  19.298  0.00  0.00    +0.000 HD
BRANCH  14  16
ATOM     16  N   UNL     1       1.813   7.630  20.541  0.00  0.00    +0.000 NA
ATOM     17  C   UNL     1       1.454   8.810  20.137  0.00  0.00    +0.000 C 
BRANCH  17  18
ATOM     18  C   UNL     1       0.542   9.647  20.942  0.00  0.00    +0.000 A 
ATOM     19  C   UNL     1       0.174   9.235  22.227  0.00  0.00    +0.000 A 
ATOM     20  C   UNL     1      -0.686  10.019  22.998  0.00  0.00    +0.000 A 
ATOM     21  C   UNL     1      -1.184  11.220  22.471  0.00  0.00    +0.000 A 
ATOM     22  C   UNL     1      -0.824  11.635  21.181  0.00  0.00    +0.000 A 
ATOM     23  C   UNL     1       0.044  10.846  20.414  0.00  0.00    +0.000 A 
BRANCH  21  24
ATOM     24  N   UNL     1      -2.083  12.046  23.287  0.00  0.00    +0.000 N 
ATOM     25  O   UNL     1      -3.099  11.516  23.747  0.00  0.00    +0.000 OA
ATOM     26  O   UNL     1      -1.763  13.235  23.466  0.00  0.00    +0.000 OA
ENDBRANCH  21  24
ENDBRANCH  17  18
ENDBRANCH  14  16
ENDBRANCH   9  14
TORSDOF 5
ENDMDL
MODEL 8
REMARK VINA RESULT:      -7.6      3.573      8.843
REMARK  Name = 
REMARK  7 active torsions:
REMARK  status: ('A' for Active; 'I' for Inactive)
REMARK    1  A    between atoms: C_1  and  O_2
REMARK    2  A    between atoms: O_2  and  C_3
REMARK    3  A    between atoms: C_8  and  C_9
REMARK    4  A    between atoms: C_11  and  N_12
REMARK    5  A    between atoms: N_12  and  N_13
REMARK    6  A    between atoms: C_14  and  C_15
REMARK    7  A    between atoms: C_18  and  N_19
REMARK                            x       y       z     vdW  Elec       q    Type
REMARK                         _______ _______ _______ _____ _____    ______ ____
ROOT
ATOM      1  C   UNL     1      -3.278  10.218  16.275  0.00  0.00    +0.000 A 
ATOM      2  C   UNL     1      -4.332  10.873  16.892  0.00  0.00    +0.000 A 
ATOM      3  C   UNL     1      -4.103  11.598  18.060  0.00  0.00    +0.000 A 
ATOM      4  C   UNL     1      -2.845  11.680  18.641  0.00  0.00    +0.000 A 
ATOM      5  N   UNL     1      -2.742  12.395  19.769  0.00  0.00    +0.000 NA
ATOM      6  C   UNL     1      -1.533  12.500  20.357  0.00  0.00    +0.000 A 
ATOM      7  C   UNL     1      -1.447  13.309  21.616  0.00  0.00    +0.000 C 
ATOM      8  C   UNL     1      -0.397  11.902  19.838  0.00  0.00    +0.000 A 
ATOM      9  C   UNL     1      -0.486  11.129  18.675  0.00  0.00    +0.000 A 
ATOM     10  C   UNL     1      -1.754  11.015  18.035  0.00  0.00    +0.000 A 
ATOM     11  C   UNL     1      -2.004  10.281  16.846  0.00  0.00    +0.000 A 
ENDROOT
BRANCH   1  13
ATOM     12  C   UNL     1      -3.238  10.161  13.926  0.00  0.00    +0.000 C 
ATOM     13  O   UNL     1      -3.399   9.448  15.152  0.00  0.00    +0.000 OA
ENDBRANCH   1  13
BRANCH   9  14
ATOM     14  N   UNL     1       0.694  10.595  18.092  0.00  0.00    +0.000 N 
ATOM     15  H   UNL     1       0.920  10.933  17.161  0.00  0.00    +0.000 HD
BRANCH  14  16
ATOM     16  N   UNL     1       1.147   9.386  18.511  0.00  0.00    +0.000 NA
ATOM     17  C   UNL     1       2.174   8.923  17.866  0.00  0.00    +0.000 C 
BRANCH  17  18
ATOM     18  C   UNL     1       2.797   7.638  18.245  0.00  0.00    +0.000 A 
ATOM     19  C   UNL     1       2.330   6.946  19.367  0.00  0.00    +0.000 A 
ATOM     20  C   UNL     1       2.910   5.730  19.734  0.00  0.00    +0.000 A 
ATOM     21  C   UNL     1       3.969   5.212  18.973  0.00  0.00    +0.000 A 
ATOM     22  C   UNL     1       4.445   5.906  17.851  0.00  0.00    +0.000 A 
ATOM     23  C   UNL     1       3.855   7.124  17.485  0.00  0.00    +0.000 A 
BRANCH  21  24
ATOM     24  N   UNL     1       4.572   3.930  19.357  0.00  0.00    +0.000 N 
ATOM     25  O   UNL     1       5.760   3.741  19.076  0.00  0.00    +0.000 OA
ATOM     26  O   UNL     1       3.846   3.109  19.945  0.00  0.00    +0.000 OA
ENDBRANCH  21  24
ENDBRANCH  17  18
ENDBRANCH  14  16
ENDBRANCH   9  14
TORSDOF 5
ENDMDL
MODEL 9
REMARK VINA RESULT:      -7.6      1.605      2.054
REMARK  Name = 
REMARK  7 active torsions:
REMARK  status: ('A' for Active; 'I' for Inactive)
REMARK    1  A    between atoms: C_1  and  O_2
REMARK    2  A    between atoms: O_2  and  C_3
REMARK    3  A    between atoms: C_8  and  C_9
REMARK    4  A    between atoms: C_11  and  N_12
REMARK    5  A    between atoms: N_12  and  N_13
REMARK    6  A    between atoms: C_14  and  C_15
REMARK    7  A    between atoms: C_18  and  N_19
REMARK                            x       y       z     vdW  Elec       q    Type
REMARK                         _______ _______ _______ _____ _____    ______ ____
ROOT
ATOM      1  C   UNL     1       6.758   6.282  16.972  0.00  0.00    +0.000 A 
ATOM      2  C   UNL     1       6.988   4.916  17.019  0.00  0.00    +0.000 A 
ATOM      3  C   UNL     1       5.943   4.053  17.337  0.00  0.00    +0.000 A 
ATOM      4  C   UNL     1       4.666   4.516  17.623  0.00  0.00    +0.000 A 
ATOM      5  N   UNL     1       3.739   3.597  17.926  0.00  0.00    +0.000 NA
ATOM      6  C   UNL     1       2.487   4.013  18.202  0.00  0.00    +0.000 A 
ATOM      7  C   UNL     1       1.470   2.963  18.535  0.00  0.00    +0.000 C 
ATOM      8  C   UNL     1       2.123   5.349  18.180  0.00  0.00    +0.000 A 
ATOM      9  C   UNL     1       3.079   6.328  17.891  0.00  0.00    +0.000 A 
ATOM     10  C   UNL     1       4.406   5.906  17.588  0.00  0.00    +0.000 A 
ATOM     11  C   UNL     1       5.482   6.772  17.262  0.00  0.00    +0.000 A 
ENDROOT
BRANCH   1  13
ATOM     12  C   UNL     1       7.907   8.178  17.753  0.00  0.00    +0.000 C 
ATOM     13  O   UNL     1       7.720   7.218  16.712  0.00  0.00    +0.000 OA
ENDBRANCH   1  13
BRANCH   9  14
ATOM     14  N   UNL     1       2.685   7.687  17.776  0.00  0.00    +0.000 N 
ATOM     15  H   UNL     1       3.211   8.246  17.112  0.00  0.00    +0.000 HD
BRANCH  14  16
ATOM     16  N   UNL     1       2.049   8.279  18.819  0.00  0.00    +0.000 NA
ATOM     17  C   UNL     1       1.404   9.368  18.532  0.00  0.00    +0.000 C 
BRANCH  17  18
ATOM     18  C   UNL     1       0.632  10.091  19.563  0.00  0.00    +0.000 A 
ATOM     19  C   UNL     1       0.712   9.688  20.900  0.00  0.00    +0.000 A 
ATOM     20  C   UNL     1      -0.012  10.366  21.883  0.00  0.00    +0.000 A 
ATOM     21  C   UNL     1      -0.826  11.449  21.518  0.00  0.00    +0.000 A 
ATOM     22  C   UNL     1      -0.915  11.853  20.177  0.00  0.00    +0.000 A 
ATOM     23  C   UNL     1      -0.182  11.171  19.196  0.00  0.00    +0.000 A 
BRANCH  21  24
ATOM     24  N   UNL     1      -1.580  12.164  22.555  0.00  0.00    +0.000 N 
ATOM     25  O   UNL     1      -2.808  12.028  22.576  0.00  0.00    +0.000 OA
ATOM     26  O   UNL     1      -0.933  12.866  23.353  0.00  0.00    +0.000 OA
ENDBRANCH  21  24
ENDBRANCH  17  18
ENDBRANCH  14  16
ENDBRANCH   9  14
TORSDOF 5
ENDMDL
