MODEL 1
REMARK VINA RESULT:      -7.6      0.000      0.000
REMARK  Name = 
REMARK  3 active torsions:
REMARK  status: ('A' for Active; 'I' for Inactive)
REMARK    1  A    between atoms: C_2  and  C_3
REMARK    2  A    between atoms: N_11  and  C_12
REMARK    3  A    between atoms: N_11  and  C_19
REMARK                            x       y       z     vdW  Elec       q    Type
REMARK                         _______ _______ _______ _____ _____    ______ ____
ROOT
ATOM      1  O   UNL     1       3.904   2.333  17.560  0.00  0.00    +0.000 OA
ATOM      2  C   UNL     1       4.073   3.542  17.621  0.00  0.00    +0.000 C 
ATOM      3  N   UNL     1       3.389   4.281  18.575  0.00  0.00    +0.000 N 
ENDROOT
BRANCH   2   4
ATOM      4  C   UNL     1       5.050   4.113  16.633  0.00  0.00    +0.000 A 
ATOM      5  C   UNL     1       4.829   3.891  15.256  0.00  0.00    +0.000 A 
ATOM      6  C   UNL     1       5.740   4.338  14.294  0.00  0.00    +0.000 A 
ATOM      7  C   UNL     1       6.901   5.000  14.685  0.00  0.00    +0.000 A 
ATOM      8 CL   UNL     1       8.061   5.541  13.486  0.00  0.00    +0.000 Cl
ATOM      9  C   UNL     1       7.163   5.194  16.038  0.00  0.00    +0.000 A 
ATOM     10  C   UNL     1       6.264   4.751  17.011  0.00  0.00    +0.000 A 
ATOM     11 CL   UNL     1       6.828   4.893  18.667  0.00  0.00    +0.000 Cl
ENDBRANCH   2   4
BRANCH   3  12
ATOM     12  C   UNL     1       3.178   5.695  18.408  0.00  0.00    +0.000 A 
ATOM     13  C   UNL     1       3.634   6.367  17.256  0.00  0.00    +0.000 A 
ATOM     14  C   UNL     1       3.355   7.727  17.069  0.00  0.00    +0.000 A 
ATOM     15  C   UNL     1       2.647   8.439  18.043  0.00  0.00    +0.000 A 
ATOM     16 CL   UNL     1       2.315  10.147  17.821  0.00  0.00    +0.000 Cl
ATOM     17  C   UNL     1       2.195   7.787  19.191  0.00  0.00    +0.000 A 
ATOM     18  C   UNL     1       2.432   6.422  19.360  0.00  0.00    +0.000 A 
ENDBRANCH   3  12
BRANCH   3  19
ATOM     19  C   UNL     1       2.758   3.645  19.715  0.00  0.00    +0.000 A 
ATOM     20  C   UNL     1       1.349   3.484  19.802  0.00  0.00    +0.000 A 
ATOM     21  C   UNL     1       0.769   2.843  20.894  0.00  0.00    +0.000 A 
ATOM     22  C   UNL     1       1.579   2.359  21.917  0.00  0.00    +0.000 A 
ATOM     23  N   UNL     1       2.925   2.509  21.843  0.00  0.00    +0.000 NA
ATOM     24  C   UNL     1       3.522   3.127  20.787  0.00  0.00    +0.000 A 
ENDBRANCH   3  19
TORSDOF 3
ENDMDL
MODEL 2
REMARK VINA RESULT:      -7.4      3.265      7.045
REMARK  Name = 
REMARK  3 active torsions:
REMARK  status: ('A' for Active; 'I' for Inactive)
REMARK    1  A    between atoms: C_2  and  C_3
REMARK    2  A    between atoms: N_11  and  C_12
REMARK    3  A    between atoms: N_11  and  C_19
REMARK                            x       y       z     vdW  Elec       q    Type
REMARK                         _______ _______ _______ _____ _____    ______ ____
ROOT
ATOM      1  O   UNL     1       2.620   8.455  17.310  0.00  0.00    +0.000 OA
ATOM      2  C   UNL     1       2.474   7.778  18.318  0.00  0.00    +0.000 C 
ATOM      3  N   UNL     1       3.045   6.516  18.383  0.00  0.00    +0.000 N 
ENDROOT
BRANCH   2   4
ATOM      4  C   UNL     1       1.678   8.417  19.420  0.00  0.00    +0.000 A 
ATOM      5  C   UNL     1       1.928   8.022  20.753  0.00  0.00    +0.000 A 
ATOM      6  C   UNL     1       1.173   8.529  21.813  0.00  0.00    +0.000 A 
ATOM      7  C   UNL     1       0.137   9.427  21.568  0.00  0.00    +0.000 A 
ATOM      8 CL   UNL     1      -0.833  10.049  22.890  0.00  0.00    +0.000 Cl
ATOM      9  C   UNL     1      -0.158   9.800  20.259  0.00  0.00    +0.000 A 
ATOM     10  C   UNL     1       0.586   9.300  19.188  0.00  0.00    +0.000 A 
ATOM     11 CL   UNL     1      -0.031   9.706  17.596  0.00  0.00    +0.000 Cl
ENDBRANCH   2   4
BRANCH   3  12
ATOM     12  C   UNL     1       2.543   5.520  19.293  0.00  0.00    +0.000 A 
ATOM     13  C   UNL     1       1.310   4.878  19.060  0.00  0.00    +0.000 A 
ATOM     14  C   UNL     1       0.870   3.855  19.910  0.00  0.00    +0.000 A 
ATOM     15  C   UNL     1       1.637   3.484  21.019  0.00  0.00    +0.000 A 
ATOM     16 CL   UNL     1       1.077   2.218  22.097  0.00  0.00    +0.000 Cl
ATOM     17  C   UNL     1       2.858   4.115  21.264  0.00  0.00    +0.000 A 
ATOM     18  C   UNL     1       3.321   5.104  20.394  0.00  0.00    +0.000 A 
ENDBRANCH   3  12
BRANCH   3  19
ATOM     19  C   UNL     1       4.088   6.109  17.460  0.00  0.00    +0.000 A 
ATOM     20  C   UNL     1       4.068   4.843  16.814  0.00  0.00    +0.000 A 
ATOM     21  C   UNL     1       5.066   4.488  15.910  0.00  0.00    +0.000 A 
ATOM     22  C   UNL     1       6.099   5.380  15.640  0.00  0.00    +0.000 A 
ATOM     23  N   UNL     1       6.127   6.589  16.253  0.00  0.00    +0.000 NA
ATOM     24  C   UNL     1       5.164   6.968  17.138  0.00  0.00    +0.000 A 
ENDBRANCH   3  19
TORSDOF 3
ENDMDL
MODEL 3
REMARK VINA RESULT:      -7.3      2.851      6.301
REMARK  Name = 
REMARK  3 active torsions:
REMARK  status: ('A' for Active; 'I' for Inactive)
REMARK    1  A    between atoms: C_2  and  C_3
REMARK    2  A    between atoms: N_11  and  C_12
REMARK    3  A    between atoms: N_11  and  C_19
REMARK                            x       y       z     vdW  Elec       q    Type
REMARK                         _______ _______ _______ _____ _____    ______ ____
ROOT
ATOM      1  O   UNL     1       4.071   3.739  16.268  0.00  0.00    +0.000 OA
ATOM      2  C   UNL     1       4.505   4.786  16.728  0.00  0.00    +0.000 C 
ATOM      3  N   UNL     1       5.666   5.334  16.201  0.00  0.00    +0.000 N 
ENDROOT
BRANCH   2   4
ATOM      4  C   UNL     1       3.698   5.394  17.840  0.00  0.00    +0.000 A 
ATOM      5  C   UNL     1       3.141   6.677  17.650  0.00  0.00    +0.000 A 
ATOM      6  C   UNL     1       2.441   7.322  18.672  0.00  0.00    +0.000 A 
ATOM      7  C   UNL     1       2.295   6.710  19.915  0.00  0.00    +0.000 A 
ATOM      8 CL   UNL     1       1.440   7.524  21.211  0.00  0.00    +0.000 Cl
ATOM      9  C   UNL     1       2.871   5.463  20.141  0.00  0.00    +0.000 A 
ATOM     10  C   UNL     1       3.577   4.807  19.130  0.00  0.00    +0.000 A 
ATOM     11 CL   UNL     1       4.406   3.343  19.629  0.00  0.00    +0.000 Cl
ENDBRANCH   2   4
BRANCH   3  12
ATOM     12  C   UNL     1       6.462   6.259  16.963  0.00  0.00    +0.000 A 
ATOM     13  C   UNL     1       7.340   5.806  17.968  0.00  0.00    +0.000 A 
ATOM     14  C   UNL     1       8.168   6.708  18.649  0.00  0.00    +0.000 A 
ATOM     15  C   UNL     1       8.105   8.075  18.359  0.00  0.00    +0.000 A 
ATOM     16 CL   UNL     1       9.125   9.209  19.226  0.00  0.00    +0.000 Cl
ATOM     17  C   UNL     1       7.236   8.538  17.370  0.00  0.00    +0.000 A 
ATOM     18  C   UNL     1       6.442   7.637  16.658  0.00  0.00    +0.000 A 
ENDBRANCH   3  12
BRANCH   3  19
ATOM     19  C   UNL     1       6.185   4.911  14.915  0.00  0.00    +0.000 A 
ATOM     20  C   UNL     1       5.516   3.946  14.115  0.00  0.00    +0.000 A 
ATOM     21  C   UNL     1       6.020   3.577  12.869  0.00  0.00    +0.000 A 
ATOM     22  C   UNL     1       7.196   4.157  12.405  0.00  0.00    +0.000 A 
ATOM     23  N   UNL     1       7.842   5.078  13.162  0.00  0.00    +0.000 NA
ATOM     24  C   UNL     1       7.373   5.463  14.381  0.00  0.00    +0.000 A 
ENDBRANCH   3  19
TORSDOF 3
ENDMDL
MODEL 4
REMARK VINA RESULT:      -7.2      2.840      6.235
REMARK  Name = 
REMARK  3 active torsions:
REMARK  status: ('A' for Active; 'I' for Inactive)
REMARK    1  A    between atoms: C_2  and  C_3
REMARK    2  A    between atoms: N_11  and  C_12
REMARK    3  A    between atoms: N_11  and  C_19
REMARK                            x       y       z     vdW  Elec       q    Type
REMARK                         _______ _______ _______ _____ _____    ______ ____
ROOT
ATOM      1  O   UNL     1       4.001   3.626  16.250  0.00  0.00    +0.000 OA
ATOM      2  C   UNL     1       4.470   4.673  16.675  0.00  0.00    +0.000 C 
ATOM      3  N   UNL     1       5.618   5.193  16.096  0.00  0.00    +0.000 N 
ENDROOT
BRANCH   2   4
ATOM      4  C   UNL     1       3.714   5.313  17.805  0.00  0.00    +0.000 A 
ATOM      5  C   UNL     1       3.144   6.589  17.602  0.00  0.00    +0.000 A 
ATOM      6  C   UNL     1       2.490   7.264  18.636  0.00  0.00    +0.000 A 
ATOM      7  C   UNL     1       2.408   6.690  19.903  0.00  0.00    +0.000 A 
ATOM      8 CL   UNL     1       1.612   7.542  21.213  0.00  0.00    +0.000 Cl
ATOM      9  C   UNL     1       2.999   5.453  20.140  0.00  0.00    +0.000 A 
ATOM     10  C   UNL     1       3.658   4.767  19.117  0.00  0.00    +0.000 A 
ATOM     11 CL   UNL     1       4.516   3.322  19.621  0.00  0.00    +0.000 Cl
ENDBRANCH   2   4
BRANCH   3  12
ATOM     12  C   UNL     1       6.458   6.117  16.811  0.00  0.00    +0.000 A 
ATOM     13  C   UNL     1       6.418   7.498  16.535  0.00  0.00    +0.000 A 
ATOM     14  C   UNL     1       7.181   8.397  17.291  0.00  0.00    +0.000 A 
ATOM     15  C   UNL     1       8.018   7.926  18.308  0.00  0.00    +0.000 A 
ATOM     16 CL   UNL     1       8.992   9.047  19.242  0.00  0.00    +0.000 Cl
ATOM     17  C   UNL     1       8.071   6.559  18.588  0.00  0.00    +0.000 A 
ATOM     18  C   UNL     1       7.278   5.665  17.867  0.00  0.00    +0.000 A 
ENDBRANCH   3  12
BRANCH   3  19
ATOM     19  C   UNL     1       6.082   4.739  14.799  0.00  0.00    +0.000 A 
ATOM     20  C   UNL     1       5.301   3.881  13.979  0.00  0.00    +0.000 A 
ATOM     21  C   UNL     1       5.756   3.482  12.724  0.00  0.00    +0.000 A 
ATOM     22  C   UNL     1       6.994   3.924  12.270  0.00  0.00    +0.000 A 
ATOM     23  N   UNL     1       7.748   4.742  13.046  0.00  0.00    +0.000 NA
ATOM     24  C   UNL     1       7.329   5.153  14.274  0.00  0.00    +0.000 A 
ENDBRANCH   3  19
TORSDOF 3
ENDMDL
MODEL 5
REMARK VINA RESULT:      -7.2      9.942     12.037
REMARK  Name = 
REMARK  3 active torsions:
REMARK  status: ('A' for Active; 'I' for Inactive)
REMARK    1  A    between atoms: C_2  and  C_3
REMARK    2  A    between atoms: N_11  and  C_12
REMARK    3  A    between atoms: N_11  and  C_19
REMARK                            x       y       z     vdW  Elec       q    Type
REMARK                         _______ _______ _______ _____ _____    ______ ____
ROOT
ATOM      1  O   UNL     1      12.065  13.856  19.654  0.00  0.00    +0.000 OA
ATOM      2  C   UNL     1      10.893  13.791  19.311  0.00  0.00    +0.000 C 
ATOM      3  N   UNL     1      10.191  14.960  19.055  0.00  0.00    +0.000 N 
ENDROOT
BRANCH   2   4
ATOM      4  C   UNL     1      10.327  12.406  19.184  0.00  0.00    +0.000 A 
ATOM      5  C   UNL     1      10.196  11.843  17.896  0.00  0.00    +0.000 A 
ATOM      6  C   UNL     1       9.612  10.587  17.709  0.00  0.00    +0.000 A 
ATOM      7  C   UNL     1       9.128   9.871  18.801  0.00  0.00    +0.000 A 
ATOM      8 CL   UNL     1       8.371   8.306  18.573  0.00  0.00    +0.000 Cl
ATOM      9  C   UNL     1       9.207  10.422  20.077  0.00  0.00    +0.000 A 
ATOM     10  C   UNL     1       9.785  11.677  20.280  0.00  0.00    +0.000 A 
ATOM     11 CL   UNL     1       9.631  12.316  21.907  0.00  0.00    +0.000 Cl
ENDBRANCH   2   4
BRANCH   3  12
ATOM     12  C   UNL     1       8.753  14.989  19.110  0.00  0.00    +0.000 A 
ATOM     13  C   UNL     1       8.075  15.127  20.337  0.00  0.00    +0.000 A 
ATOM     14  C   UNL     1       6.679  15.233  20.371  0.00  0.00    +0.000 A 
ATOM     15  C   UNL     1       5.941  15.169  19.184  0.00  0.00    +0.000 A 
ATOM     16 CL   UNL     1       4.191  15.280  19.225  0.00  0.00    +0.000 Cl
ATOM     17  C   UNL     1       6.600  15.027  17.961  0.00  0.00    +0.000 A 
ATOM     18  C   UNL     1       7.993  14.966  17.921  0.00  0.00    +0.000 A 
ENDBRANCH   3  12
BRANCH   3  19
ATOM     19  C   UNL     1      10.874  16.220  18.839  0.00  0.00    +0.000 A 
ATOM     20  C   UNL     1      11.078  17.155  19.890  0.00  0.00    +0.000 A 
ATOM     21  C   UNL     1      11.763  18.346  19.664  0.00  0.00    +0.000 A 
ATOM     22  C   UNL     1      12.249  18.629  18.392  0.00  0.00    +0.000 A 
ATOM     23  N   UNL     1      12.057  17.744  17.382  0.00  0.00    +0.000 NA
ATOM     24  C   UNL     1      11.396  16.570  17.572  0.00  0.00    +0.000 A 
ENDBRANCH   3  19
TORSDOF 3
ENDMDL
MODEL 6
REMARK VINA RESULT:      -7.2      5.759      9.518
REMARK  Name = 
REMARK  3 active torsions:
REMARK  status: ('A' for Active; 'I' for Inactive)
REMARK    1  A    between atoms: C_2  and  C_3
REMARK    2  A    between atoms: N_11  and  C_12
REMARK    3  A    between atoms: N_11  and  C_19
REMARK                            x       y       z     vdW  Elec       q    Type
REMARK                         _______ _______ _______ _____ _____    ______ ____
ROOT
ATOM      1  O   UNL     1       1.784  10.911  21.562  0.00  0.00    +0.000 OA
ATOM      2  C   UNL     1       0.649  10.951  21.110  0.00  0.00    +0.000 C 
ATOM      3  N   UNL     1       0.342  10.229  19.966  0.00  0.00    +0.000 N 
ENDROOT
BRANCH   2   4
ATOM      4  C   UNL     1      -0.329  11.794  21.879  0.00  0.00    +0.000 A 
ATOM      5  C   UNL     1      -1.372  11.151  22.581  0.00  0.00    +0.000 A 
ATOM      6  C   UNL     1      -2.351  11.885  23.256  0.00  0.00    +0.000 A 
ATOM      7  C   UNL     1      -2.324  13.277  23.231  0.00  0.00    +0.000 A 
ATOM      8 CL   UNL     1      -3.563  14.205  24.054  0.00  0.00    +0.000 Cl
ATOM      9  C   UNL     1      -1.330  13.935  22.511  0.00  0.00    +0.000 A 
ATOM     10  C   UNL     1      -0.346  13.216  21.829  0.00  0.00    +0.000 A 
ATOM     11 CL   UNL     1       0.712  14.179  20.812  0.00  0.00    +0.000 Cl
ENDBRANCH   2   4
BRANCH   3  12
ATOM     12  C   UNL     1      -0.783  10.584  19.143  0.00  0.00    +0.000 A 
ATOM     13  C   UNL     1      -0.861  11.848  18.524  0.00  0.00    +0.000 A 
ATOM     14  C   UNL     1      -1.921  12.154  17.662  0.00  0.00    +0.000 A 
ATOM     15  C   UNL     1      -2.934  11.216  17.434  0.00  0.00    +0.000 A 
ATOM     16 CL   UNL     1      -4.276  11.605  16.373  0.00  0.00    +0.000 Cl
ATOM     17  C   UNL     1      -2.873   9.962  18.046  0.00  0.00    +0.000 A 
ATOM     18  C   UNL     1      -1.794   9.638  18.869  0.00  0.00    +0.000 A 
ENDBRANCH   3  12
BRANCH   3  19
ATOM     19  C   UNL     1       1.206   9.166  19.490  0.00  0.00    +0.000 A 
ATOM     20  C   UNL     1       1.827   9.217  18.212  0.00  0.00    +0.000 A 
ATOM     21  C   UNL     1       2.676   8.197  17.789  0.00  0.00    +0.000 A 
ATOM     22  C   UNL     1       2.914   7.110  18.624  0.00  0.00    +0.000 A 
ATOM     23  N   UNL     1       2.324   7.052  19.844  0.00  0.00    +0.000 NA
ATOM     24  C   UNL     1       1.494   8.034  20.288  0.00  0.00    +0.000 A 
ENDBRANCH   3  19
TORSDOF 3
ENDMDL
MODEL 7
REMARK VINA RESULT:      -7.2      2.570      3.229
REMARK  Name = 
REMARK  3 active torsions:
REMARK  status: ('A' for Active; 'I' for Inactive)
REMARK    1  A    between atoms: C_2  and  C_3
REMARK    2  A    between atoms: N_11  and  C_12
REMARK    3  A    between atoms: N_11  and  C_19
REMARK                            x       y       z     vdW  Elec       q    Type
REMARK                         _______ _______ _______ _____ _____    ______ ____
ROOT
ATOM      1  O   UNL     1       6.475   4.399  17.192  0.00  0.00    +0.000 OA
ATOM      2  C   UNL     1       5.909   5.317  17.769  0.00  0.00    +0.000 C 
ATOM      3  N   UNL     1       4.603   5.148  18.204  0.00  0.00    +0.000 N 
ENDROOT
BRANCH   2   4
ATOM      4  C   UNL     1       6.723   6.564  17.966  0.00  0.00    +0.000 A 
ATOM      5  C   UNL     1       6.489   7.667  17.117  0.00  0.00    +0.000 A 
ATOM      6  C   UNL     1       7.262   8.828  17.207  0.00  0.00    +0.000 A 
ATOM      7  C   UNL     1       8.299   8.908  18.133  0.00  0.00    +0.000 A 
ATOM      8 CL   UNL     1       9.290  10.351  18.234  0.00  0.00    +0.000 Cl
ATOM      9  C   UNL     1       8.578   7.819  18.953  0.00  0.00    +0.000 A 
ATOM     10  C   UNL     1       7.816   6.650  18.873  0.00  0.00    +0.000 A 
ATOM     11 CL   UNL     1       8.414   5.303  19.827  0.00  0.00    +0.000 Cl
ENDBRANCH   2   4
BRANCH   3  12
ATOM     12  C   UNL     1       3.750   6.280  18.451  0.00  0.00    +0.000 A 
ATOM     13  C   UNL     1       3.540   7.261  17.462  0.00  0.00    +0.000 A 
ATOM     14  C   UNL     1       2.647   8.317  17.686  0.00  0.00    +0.000 A 
ATOM     15  C   UNL     1       1.979   8.424  18.910  0.00  0.00    +0.000 A 
ATOM     16 CL   UNL     1       0.876   9.758  19.201  0.00  0.00    +0.000 Cl
ATOM     17  C   UNL     1       2.182   7.462  19.901  0.00  0.00    +0.000 A 
ATOM     18  C   UNL     1       3.037   6.384  19.665  0.00  0.00    +0.000 A 
ENDBRANCH   3  12
BRANCH   3  19
ATOM     19  C   UNL     1       4.007   3.830  18.315  0.00  0.00    +0.000 A 
ATOM     20  C   UNL     1       3.014   3.375  17.406  0.00  0.00    +0.000 A 
ATOM     21  C   UNL     1       2.478   2.094  17.515  0.00  0.00    +0.000 A 
ATOM     22  C   UNL     1       2.916   1.250  18.531  0.00  0.00    +0.000 A 
ATOM     23  N   UNL     1       3.862   1.676  19.404  0.00  0.00    +0.000 NA
ATOM     24  C   UNL     1       4.408   2.920  19.321  0.00  0.00    +0.000 A 
ENDBRANCH   3  19
TORSDOF 3
ENDMDL
MODEL 8
REMARK VINA RESULT:      -7.2      3.195      6.961
REMARK  Name = 
REMARK  3 active torsions:
REMARK  status: ('A' for Active; 'I' for Inactive)
REMARK    1  A    between atoms: C_2  and  C_3
REMARK    2  A    between atoms: N_11  and  C_12
REMARK    3  A    between atoms: N_11  and  C_19
REMARK                            x       y       z     vdW  Elec       q    Type
REMARK                         _______ _______ _______ _____ _____    ______ ____
ROOT
ATOM      1  O   UNL     1       2.796   8.354  17.193  0.00  0.00    +0.000 OA
ATOM      2  C   UNL     1       2.655   7.657  18.188  0.00  0.00    +0.000 C 
ATOM      3  N   UNL     1       3.245   6.402  18.233  0.00  0.00    +0.000 N 
ENDROOT
BRANCH   2   4
ATOM      4  C   UNL     1       1.845   8.263  19.298  0.00  0.00    +0.000 A 
ATOM      5  C   UNL     1       2.023   7.775  20.611  0.00  0.00    +0.000 A 
ATOM      6  C   UNL     1       1.248   8.251  21.673  0.00  0.00    +0.000 A 
ATOM      7  C   UNL     1       0.265   9.211  21.446  0.00  0.00    +0.000 A 
ATOM      8 CL   UNL     1      -0.729   9.794  22.768  0.00  0.00    +0.000 Cl
ATOM      9  C   UNL     1       0.041   9.677  20.154  0.00  0.00    +0.000 A 
ATOM     10  C   UNL     1       0.804   9.210  19.082  0.00  0.00    +0.000 A 
ATOM     11 CL   UNL     1       0.271   9.742  17.497  0.00  0.00    +0.000 Cl
ENDBRANCH   2   4
BRANCH   3  12
ATOM     12  C   UNL     1       2.754   5.382  19.121  0.00  0.00    +0.000 A 
ATOM     13  C   UNL     1       3.506   4.969  20.239  0.00  0.00    +0.000 A 
ATOM     14  C   UNL     1       2.984   4.033  21.141  0.00  0.00    +0.000 A 
ATOM     15  C   UNL     1       1.722   3.473  20.920  0.00  0.00    +0.000 A 
ATOM     16 CL   UNL     1       1.075   2.283  22.035  0.00  0.00    +0.000 Cl
ATOM     17  C   UNL     1       0.968   3.868  19.813  0.00  0.00    +0.000 A 
ATOM     18  C   UNL     1       1.466   4.835  18.937  0.00  0.00    +0.000 A 
ENDBRANCH   3  12
BRANCH   3  19
ATOM     19  C   UNL     1       4.298   6.028  17.308  0.00  0.00    +0.000 A 
ATOM     20  C   UNL     1       4.241   4.828  16.549  0.00  0.00    +0.000 A 
ATOM     21  C   UNL     1       5.251   4.505  15.646  0.00  0.00    +0.000 A 
ATOM     22  C   UNL     1       6.333   5.365  15.489  0.00  0.00    +0.000 A 
ATOM     23  N   UNL     1       6.396   6.513  16.210  0.00  0.00    +0.000 NA
ATOM     24  C   UNL     1       5.423   6.858  17.096  0.00  0.00    +0.000 A 
ENDBRANCH   3  19
TORSDOF 3
ENDMDL
MODEL 9
REMARK VINA RESULT:      -7.1      8.651     10.660
REMARK  Name = 
REMARK  3 active torsions:
REMARK  status: ('A' for Active; 'I' for Inactive)
REMARK    1  A    between atoms: C_2  and  C_3
REMARK    2  A    between atoms: N_11  and  C_12
REMARK    3  A    between atoms: N_11  and  C_19
REMARK                            x       y       z     vdW  Elec       q    Type
REMARK                         _______ _______ _______ _____ _____    ______ ____
ROOT
ATOM      1  O   UNL     1       0.065  14.222  22.798  0.00  0.00    +0.000 OA
ATOM      2  C   UNL     1      -0.232  13.829  21.679  0.00  0.00    +0.000 C 
ATOM      3  N   UNL     1      -1.404  13.109  21.497  0.00  0.00    +0.000 N 
ENDROOT
BRANCH   2   4
ATOM      4  C   UNL     1       0.728  14.194  20.583  0.00  0.00    +0.000 A 
ATOM      5  C   UNL     1       2.022  13.629  20.599  0.00  0.00    +0.000 A 
ATOM      6  C   UNL     1       2.980  13.985  19.646  0.00  0.00    +0.000 A 
ATOM      7  C   UNL     1       2.677  14.927  18.667  0.00  0.00    +0.000 A 
ATOM      8 CL   UNL     1       3.882  15.399  17.484  0.00  0.00    +0.000 Cl
ATOM      9  C   UNL     1       1.422  15.531  18.655  0.00  0.00    +0.000 A 
ATOM     10  C   UNL     1       0.455  15.188  19.602  0.00  0.00    +0.000 A 
ATOM     11 CL   UNL     1      -0.997  16.174  19.576  0.00  0.00    +0.000 Cl
ENDBRANCH   2   4
BRANCH   3  12
ATOM     12  C   UNL     1      -1.576  12.245  20.358  0.00  0.00    +0.000 A 
ATOM     13  C   UNL     1      -2.560  12.513  19.385  0.00  0.00    +0.000 A 
ATOM     14  C   UNL     1      -2.666  11.711  18.242  0.00  0.00    +0.000 A 
ATOM     15  C   UNL     1      -1.816  10.613  18.073  0.00  0.00    +0.000 A 
ATOM     16 CL   UNL     1      -1.961   9.593  16.653  0.00  0.00    +0.000 Cl
ATOM     17  C   UNL     1      -0.840  10.333  19.032  0.00  0.00    +0.000 A 
ATOM     18  C   UNL     1      -0.702  11.157  20.150  0.00  0.00    +0.000 A 
ENDBRANCH   3  12
BRANCH   3  19
ATOM     19  C   UNL     1      -2.452  13.105  22.499  0.00  0.00    +0.000 A 
ATOM     20  C   UNL     1      -3.272  14.243  22.734  0.00  0.00    +0.000 A 
ATOM     21  C   UNL     1      -4.291  14.205  23.682  0.00  0.00    +0.000 A 
ATOM     22  C   UNL     1      -4.507  13.042  24.414  0.00  0.00    +0.000 A 
ATOM     23  N   UNL     1      -3.728  11.952  24.198  0.00  0.00    +0.000 NA
ATOM     24  C   UNL     1      -2.728  11.956  23.276  0.00  0.00    +0.000 A 
ENDBRANCH   3  19
TORSDOF 3
ENDMDL
