MODEL 1
REMARK VINA RESULT:      -8.5      0.000      0.000
REMARK  Name = 
REMARK  4 active torsions:
REMARK  status: ('A' for Active; 'I' for Inactive)
REMARK    1  A    between atoms: C_1  and  N_2
REMARK    2  A    between atoms: C_10  and  O_11
REMARK    3  A    between atoms: O_11  and  C_12
REMARK    4  A    between atoms: C_12  and  C_13
REMARK                            x       y       z     vdW  Elec       q    Type
REMARK                         _______ _______ _______ _____ _____    ______ ____
ROOT
ATOM      1  C   UNL     1       9.589  11.249  19.184  0.00  0.00    +0.000 C 
ATOM      2  N   UNL     1       9.458   9.814  19.305  0.00  0.00    +0.000 N 
ATOM      3  C   UNL     1       8.526   9.119  18.551  0.00  0.00    +0.000 C 
ATOM      4  O   UNL     1       7.799   9.662  17.744  0.00  0.00    +0.000 OA
ATOM      5  N   UNL     1       8.583   7.754  18.812  0.00  0.00    +0.000 N 
ATOM      6  C   UNL     1       7.648   6.932  18.220  0.00  0.00    +0.000 A 
ATOM      7  N   UNL     1       6.794   6.148  18.824  0.00  0.00    +0.000 NA
ATOM      8  C   UNL     1       6.127   5.489  17.815  0.00  0.00    +0.000 A 
ATOM      9  C   UNL     1       5.049   4.609  17.882  0.00  0.00    +0.000 A 
ATOM     10  C   UNL     1       4.573   3.993  16.725  0.00  0.00    +0.000 A 
ATOM     11  C   UNL     1       5.203   4.238  15.488  0.00  0.00    +0.000 A 
ATOM     12  C   UNL     1       6.276   5.157  15.394  0.00  0.00    +0.000 A 
ATOM     13  C   UNL     1       6.685   5.769  16.580  0.00  0.00    +0.000 A 
ATOM     14  N   UNL     1       7.637   6.735  16.848  0.00  0.00    +0.000 N 
ATOM     15  H   UNL     1      10.126   9.312  19.866  0.00  0.00    +0.000 HD
ATOM     16  H   UNL     1       8.878   7.468  19.737  0.00  0.00    +0.000 HD
ATOM     17  H   UNL     1       8.227   7.193  16.198  0.00  0.00    +0.000 HD
ENDROOT
BRANCH  10  18
ATOM     18  O   UNL     1       3.499   3.126  16.797  0.00  0.00    +0.000 OA
BRANCH  18  19
ATOM     19  C   UNL     1       3.630   2.105  17.817  0.00  0.00    +0.000 C 
BRANCH  19  20
ATOM     20  C   UNL     1       2.793   2.437  19.032  0.00  0.00    +0.000 A 
ATOM     21  C   UNL     1       1.435   2.750  18.913  0.00  0.00    +0.000 A 
ATOM     22  C   UNL     1       0.690   3.108  20.036  0.00  0.00    +0.000 A 
ATOM     23  C   UNL     1       1.284   3.123  21.296  0.00  0.00    +0.000 A 
ATOM     24  C   UNL     1       2.623   2.762  21.436  0.00  0.00    +0.000 A 
ATOM     25  C   UNL     1       3.374   2.415  20.311  0.00  0.00    +0.000 A 
ENDBRANCH  19  20
ENDBRANCH  18  19
ENDBRANCH  10  18
TORSDOF 3
ENDMDL
MODEL 2
REMARK VINA RESULT:      -8.5      0.139      1.035
REMARK  Name = 
REMARK  4 active torsions:
REMARK  status: ('A' for Active; 'I' for Inactive)
REMARK    1  A    between atoms: C_1  and  N_2
REMARK    2  A    between atoms: C_10  and  O_11
REMARK    3  A    between atoms: O_11  and  C_12
REMARK    4  A    between atoms: C_12  and  C_13
REMARK                            x       y       z     vdW  Elec       q    Type
REMARK                         _______ _______ _______ _____ _____    ______ ____
ROOT
ATOM      1  C   UNL     1       9.688  11.119  19.085  0.00  0.00    +0.000 C 
ATOM      2  N   UNL     1       9.510   9.693  19.243  0.00  0.00    +0.000 N 
ATOM      3  C   UNL     1       8.562   9.008  18.498  0.00  0.00    +0.000 C 
ATOM      4  O   UNL     1       7.861   9.552  17.670  0.00  0.00    +0.000 OA
ATOM      5  N   UNL     1       8.574   7.650  18.795  0.00  0.00    +0.000 N 
ATOM      6  C   UNL     1       7.618   6.842  18.216  0.00  0.00    +0.000 A 
ATOM      7  N   UNL     1       6.734   6.101  18.832  0.00  0.00    +0.000 NA
ATOM      8  C   UNL     1       6.056   5.438  17.834  0.00  0.00    +0.000 A 
ATOM      9  C   UNL     1       4.949   4.594  17.915  0.00  0.00    +0.000 A 
ATOM     10  C   UNL     1       4.464   3.963  16.770  0.00  0.00    +0.000 A 
ATOM     11  C   UNL     1       5.112   4.156  15.533  0.00  0.00    +0.000 A 
ATOM     12  C   UNL     1       6.214   5.037  15.425  0.00  0.00    +0.000 A 
ATOM     13  C   UNL     1       6.633   5.667  16.598  0.00  0.00    +0.000 A 
ATOM     14  N   UNL     1       7.613   6.609  16.850  0.00  0.00    +0.000 N 
ATOM     15  H   UNL     1      10.157   9.185  19.822  0.00  0.00    +0.000 HD
ATOM     16  H   UNL     1       8.852   7.379  19.730  0.00  0.00    +0.000 HD
ATOM     17  H   UNL     1       8.222   7.031  16.193  0.00  0.00    +0.000 HD
ENDROOT
BRANCH  10  18
ATOM     18  O   UNL     1       3.362   3.133  16.854  0.00  0.00    +0.000 OA
BRANCH  18  19
ATOM     19  C   UNL     1       3.478   2.096  17.860  0.00  0.00    +0.000 C 
BRANCH  19  20
ATOM     20  C   UNL     1       2.726   2.468  19.118  0.00  0.00    +0.000 A 
ATOM     21  C   UNL     1       3.327   2.368  20.377  0.00  0.00    +0.000 A 
ATOM     22  C   UNL     1       2.603   2.660  21.532  0.00  0.00    +0.000 A 
ATOM     23  C   UNL     1       1.281   3.090  21.441  0.00  0.00    +0.000 A 
ATOM     24  C   UNL     1       0.686   3.244  20.190  0.00  0.00    +0.000 A 
ATOM     25  C   UNL     1       1.406   2.940  19.033  0.00  0.00    +0.000 A 
ENDBRANCH  19  20
ENDBRANCH  18  19
ENDBRANCH  10  18
TORSDOF 3
ENDMDL
MODEL 3
REMARK VINA RESULT:      -7.9      1.227      1.417
REMARK  Name = 
REMARK  4 active torsions:
REMARK  status: ('A' for Active; 'I' for Inactive)
REMARK    1  A    between atoms: C_1  and  N_2
REMARK    2  A    between atoms: C_10  and  O_11
REMARK    3  A    between atoms: O_11  and  C_12
REMARK    4  A    between atoms: C_12  and  C_13
REMARK                            x       y       z     vdW  Elec       q    Type
REMARK                         _______ _______ _______ _____ _____    ______ ____
ROOT
ATOM      1  C   UNL     1       9.434  11.501  19.046  0.00  0.00    +0.000 C 
ATOM      2  N   UNL     1       9.465  10.058  19.133  0.00  0.00    +0.000 N 
ATOM      3  C   UNL     1       8.515   9.285  18.485  0.00  0.00    +0.000 C 
ATOM      4  O   UNL     1       7.635   9.766  17.800  0.00  0.00    +0.000 OA
ATOM      5  N   UNL     1       8.744   7.929  18.688  0.00  0.00    +0.000 N 
ATOM      6  C   UNL     1       7.825   7.026  18.195  0.00  0.00    +0.000 A 
ATOM      7  N   UNL     1       7.143   6.144  18.878  0.00  0.00    +0.000 NA
ATOM      8  C   UNL     1       6.417   5.441  17.943  0.00  0.00    +0.000 A 
ATOM      9  C   UNL     1       5.451   4.452  18.121  0.00  0.00    +0.000 A 
ATOM     10  C   UNL     1       4.888   3.814  17.016  0.00  0.00    +0.000 A 
ATOM     11  C   UNL     1       5.318   4.151  15.717  0.00  0.00    +0.000 A 
ATOM     12  C   UNL     1       6.271   5.178  15.514  0.00  0.00    +0.000 A 
ATOM     13  C   UNL     1       6.772   5.804  16.657  0.00  0.00    +0.000 A 
ATOM     14  N   UNL     1       7.649   6.859  16.831  0.00  0.00    +0.000 N 
ATOM     15  H   UNL     1      10.250   9.616  19.583  0.00  0.00    +0.000 HD
ATOM     16  H   UNL     1       9.188   7.655  19.554  0.00  0.00    +0.000 HD
ATOM     17  H   UNL     1       8.097   7.389  16.125  0.00  0.00    +0.000 HD
ENDROOT
BRANCH  10  18
ATOM     18  O   UNL     1       3.927   2.839  17.198  0.00  0.00    +0.000 OA
BRANCH  18  19
ATOM     19  C   UNL     1       2.567   3.339  17.191  0.00  0.00    +0.000 C 
BRANCH  19  20
ATOM     20  C   UNL     1       2.235   4.039  18.489  0.00  0.00    +0.000 A 
ATOM     21  C   UNL     1       1.902   3.313  19.638  0.00  0.00    +0.000 A 
ATOM     22  C   UNL     1       1.543   3.973  20.813  0.00  0.00    +0.000 A 
ATOM     23  C   UNL     1       1.547   5.365  20.865  0.00  0.00    +0.000 A 
ATOM     24  C   UNL     1       1.927   6.099  19.743  0.00  0.00    +0.000 A 
ATOM     25  C   UNL     1       2.275   5.441  18.562  0.00  0.00    +0.000 A 
ENDBRANCH  19  20
ENDBRANCH  18  19
ENDBRANCH  10  18
TORSDOF 3
ENDMDL
MODEL 4
REMARK VINA RESULT:      -7.9      2.422      8.710
REMARK  Name = 
REMARK  4 active torsions:
REMARK  status: ('A' for Active; 'I' for Inactive)
REMARK    1  A    between atoms: C_1  and  N_2
REMARK    2  A    between atoms: C_10  and  O_11
REMARK    3  A    between atoms: O_11  and  C_12
REMARK    4  A    between atoms: C_12  and  C_13
REMARK                            x       y       z     vdW  Elec       q    Type
REMARK                         _______ _______ _______ _____ _____    ______ ____
ROOT
ATOM      1  C   UNL     1       1.057   1.750  18.669  0.00  0.00    +0.000 C 
ATOM      2  N   UNL     1       2.184   2.155  17.858  0.00  0.00    +0.000 N 
ATOM      3  C   UNL     1       3.061   3.134  18.299  0.00  0.00    +0.000 C 
ATOM      4  O   UNL     1       2.949   3.677  19.378  0.00  0.00    +0.000 OA
ATOM      5  N   UNL     1       4.077   3.353  17.374  0.00  0.00    +0.000 N 
ATOM      6  C   UNL     1       4.975   4.372  17.613  0.00  0.00    +0.000 A 
ATOM      7  N   UNL     1       5.217   5.404  16.848  0.00  0.00    +0.000 NA
ATOM      8  C   UNL     1       6.228   6.094  17.477  0.00  0.00    +0.000 A 
ATOM      9  C   UNL     1       6.809   7.319  17.154  0.00  0.00    +0.000 A 
ATOM     10  C   UNL     1       7.885   7.803  17.898  0.00  0.00    +0.000 A 
ATOM     11  C   UNL     1       8.406   7.038  18.961  0.00  0.00    +0.000 A 
ATOM     12  C   UNL     1       7.806   5.809  19.327  0.00  0.00    +0.000 A 
ATOM     13  C   UNL     1       6.711   5.394  18.568  0.00  0.00    +0.000 A 
ATOM     14  N   UNL     1       5.865   4.305  18.673  0.00  0.00    +0.000 N 
ATOM     15  H   UNL     1       2.386   1.640  17.018  0.00  0.00    +0.000 HD
ATOM     16  H   UNL     1       3.862   3.194  16.398  0.00  0.00    +0.000 HD
ATOM     17  H   UNL     1       5.892   3.588  19.356  0.00  0.00    +0.000 HD
ENDROOT
BRANCH  10  18
ATOM     18  O   UNL     1       8.453   9.021  17.577  0.00  0.00    +0.000 OA
BRANCH  18  19
ATOM     19  C   UNL     1       8.282  10.040  18.593  0.00  0.00    +0.000 C 
BRANCH  19  20
ATOM     20  C   UNL     1       9.573  10.787  18.842  0.00  0.00    +0.000 A 
ATOM     21  C   UNL     1       9.926  11.214  20.127  0.00  0.00    +0.000 A 
ATOM     22  C   UNL     1      11.092  11.951  20.332  0.00  0.00    +0.000 A 
ATOM     23  C   UNL     1      11.937  12.238  19.263  0.00  0.00    +0.000 A 
ATOM     24  C   UNL     1      11.624  11.774  17.987  0.00  0.00    +0.000 A 
ATOM     25  C   UNL     1      10.451  11.047  17.777  0.00  0.00    +0.000 A 
ENDBRANCH  19  20
ENDBRANCH  18  19
ENDBRANCH  10  18
TORSDOF 3
ENDMDL
MODEL 5
REMARK VINA RESULT:      -7.8      2.451      8.768
REMARK  Name = 
REMARK  4 active torsions:
REMARK  status: ('A' for Active; 'I' for Inactive)
REMARK    1  A    between atoms: C_1  and  N_2
REMARK    2  A    between atoms: C_10  and  O_11
REMARK    3  A    between atoms: O_11  and  C_12
REMARK    4  A    between atoms: C_12  and  C_13
REMARK                            x       y       z     vdW  Elec       q    Type
REMARK                         _______ _______ _______ _____ _____    ______ ____
ROOT
ATOM      1  C   UNL     1       0.805   1.856  19.091  0.00  0.00    +0.000 C 
ATOM      2  N   UNL     1       1.879   2.238  18.202  0.00  0.00    +0.000 N 
ATOM      3  C   UNL     1       2.818   3.183  18.587  0.00  0.00    +0.000 C 
ATOM      4  O   UNL     1       2.806   3.712  19.680  0.00  0.00    +0.000 OA
ATOM      5  N   UNL     1       3.766   3.386  17.591  0.00  0.00    +0.000 N 
ATOM      6  C   UNL     1       4.712   4.372  17.774  0.00  0.00    +0.000 A 
ATOM      7  N   UNL     1       4.928   5.409  17.007  0.00  0.00    +0.000 NA
ATOM      8  C   UNL     1       6.006   6.058  17.566  0.00  0.00    +0.000 A 
ATOM      9  C   UNL     1       6.599   7.269  17.215  0.00  0.00    +0.000 A 
ATOM     10  C   UNL     1       7.744   7.708  17.881  0.00  0.00    +0.000 A 
ATOM     11  C   UNL     1       8.319   6.910  18.890  0.00  0.00    +0.000 A 
ATOM     12  C   UNL     1       7.710   5.694  19.285  0.00  0.00    +0.000 A 
ATOM     13  C   UNL     1       6.547   5.325  18.607  0.00  0.00    +0.000 A 
ATOM     14  N   UNL     1       5.678   4.261  18.761  0.00  0.00    +0.000 N 
ATOM     15  H   UNL     1       1.999   1.732  17.342  0.00  0.00    +0.000 HD
ATOM     16  H   UNL     1       3.473   3.249  16.632  0.00  0.00    +0.000 HD
ATOM     17  H   UNL     1       5.734   3.533  19.430  0.00  0.00    +0.000 HD
ENDROOT
BRANCH  10  18
ATOM     18  O   UNL     1       8.324   8.913  17.534  0.00  0.00    +0.000 OA
BRANCH  18  19
ATOM     19  C   UNL     1       8.630   9.769  18.663  0.00  0.00    +0.000 C 
BRANCH  19  20
ATOM     20  C   UNL     1       9.400  10.995  18.226  0.00  0.00    +0.000 A 
ATOM     21  C   UNL     1       8.753  12.215  18.002  0.00  0.00    +0.000 A 
ATOM     22  C   UNL     1       9.468  13.322  17.546  0.00  0.00    +0.000 A 
ATOM     23  C   UNL     1      10.843  13.233  17.342  0.00  0.00    +0.000 A 
ATOM     24  C   UNL     1      11.509  12.038  17.612  0.00  0.00    +0.000 A 
ATOM     25  C   UNL     1      10.793  10.925  18.057  0.00  0.00    +0.000 A 
ENDBRANCH  19  20
ENDBRANCH  18  19
ENDBRANCH  10  18
TORSDOF 3
ENDMDL
MODEL 6
REMARK VINA RESULT:      -7.8      6.441      8.396
REMARK  Name = 
REMARK  4 active torsions:
REMARK  status: ('A' for Active; 'I' for Inactive)
REMARK    1  A    between atoms: C_1  and  N_2
REMARK    2  A    between atoms: C_10  and  O_11
REMARK    3  A    between atoms: O_11  and  C_12
REMARK    4  A    between atoms: C_12  and  C_13
REMARK                            x       y       z     vdW  Elec       q    Type
REMARK                         _______ _______ _______ _____ _____    ______ ____
ROOT
ATOM      1  C   UNL     1       3.936   1.241  18.570  0.00  0.00    +0.000 C 
ATOM      2  N   UNL     1       4.327   2.633  18.547  0.00  0.00    +0.000 N 
ATOM      3  C   UNL     1       3.413   3.633  18.837  0.00  0.00    +0.000 C 
ATOM      4  O   UNL     1       2.262   3.400  19.145  0.00  0.00    +0.000 OA
ATOM      5  N   UNL     1       4.004   4.890  18.773  0.00  0.00    +0.000 N 
ATOM      6  C   UNL     1       3.204   6.002  18.932  0.00  0.00    +0.000 A 
ATOM      7  N   UNL     1       3.033   6.978  18.079  0.00  0.00    +0.000 NA
ATOM      8  C   UNL     1       2.204   7.875  18.714  0.00  0.00    +0.000 A 
ATOM      9  C   UNL     1       1.620   9.046  18.234  0.00  0.00    +0.000 A 
ATOM     10  C   UNL     1       0.863   9.852  19.084  0.00  0.00    +0.000 A 
ATOM     11  C   UNL     1       0.713   9.497  20.440  0.00  0.00    +0.000 A 
ATOM     12  C   UNL     1       1.268   8.293  20.937  0.00  0.00    +0.000 A 
ATOM     13  C   UNL     1       1.985   7.510  20.030  0.00  0.00    +0.000 A 
ATOM     14  N   UNL     1       2.599   6.277  20.148  0.00  0.00    +0.000 N 
ATOM     15  H   UNL     1       5.300   2.860  18.423  0.00  0.00    +0.000 HD
ATOM     16  H   UNL     1       4.778   5.010  18.132  0.00  0.00    +0.000 HD
ATOM     17  H   UNL     1       2.631   5.697  20.950  0.00  0.00    +0.000 HD
ENDROOT
BRANCH  10  18
ATOM     18  O   UNL     1       0.281  11.008  18.602  0.00  0.00    +0.000 OA
BRANCH  18  19
ATOM     19  C   UNL     1      -1.037  11.276  19.140  0.00  0.00    +0.000 C 
BRANCH  19  20
ATOM     20  C   UNL     1      -2.107  11.086  18.087  0.00  0.00    +0.000 A 
ATOM     21  C   UNL     1      -1.856  10.346  16.927  0.00  0.00    +0.000 A 
ATOM     22  C   UNL     1      -2.834  10.226  15.939  0.00  0.00    +0.000 A 
ATOM     23  C   UNL     1      -4.084  10.813  16.116  0.00  0.00    +0.000 A 
ATOM     24  C   UNL     1      -4.365  11.508  17.291  0.00  0.00    +0.000 A 
ATOM     25  C   UNL     1      -3.384  11.640  18.275  0.00  0.00    +0.000 A 
ENDBRANCH  19  20
ENDBRANCH  18  19
ENDBRANCH  10  18
TORSDOF 3
ENDMDL
MODEL 7
REMARK VINA RESULT:      -7.6      2.522      8.497
REMARK  Name = 
REMARK  4 active torsions:
REMARK  status: ('A' for Active; 'I' for Inactive)
REMARK    1  A    between atoms: C_1  and  N_2
REMARK    2  A    between atoms: C_10  and  O_11
REMARK    3  A    between atoms: O_11  and  C_12
REMARK    4  A    between atoms: C_12  and  C_13
REMARK                            x       y       z     vdW  Elec       q    Type
REMARK                         _______ _______ _______ _____ _____    ______ ____
ROOT
ATOM      1  C   UNL     1       0.433   2.704  19.987  0.00  0.00    +0.000 C 
ATOM      2  N   UNL     1       1.458   2.912  18.988  0.00  0.00    +0.000 N 
ATOM      3  C   UNL     1       2.517   3.774  19.225  0.00  0.00    +0.000 C 
ATOM      4  O   UNL     1       2.656   4.371  20.273  0.00  0.00    +0.000 OA
ATOM      5  N   UNL     1       3.389   3.810  18.142  0.00  0.00    +0.000 N 
ATOM      6  C   UNL     1       4.442   4.700  18.175  0.00  0.00    +0.000 A 
ATOM      7  N   UNL     1       4.692   5.656  17.319  0.00  0.00    +0.000 NA
ATOM      8  C   UNL     1       5.875   6.221  17.739  0.00  0.00    +0.000 A 
ATOM      9  C   UNL     1       6.554   7.337  17.253  0.00  0.00    +0.000 A 
ATOM     10  C   UNL     1       7.791   7.693  17.789  0.00  0.00    +0.000 A 
ATOM     11  C   UNL     1       8.370   6.905  18.804  0.00  0.00    +0.000 A 
ATOM     12  C   UNL     1       7.680   5.790  19.335  0.00  0.00    +0.000 A 
ATOM     13  C   UNL     1       6.430   5.503  18.783  0.00  0.00    +0.000 A 
ATOM     14  N   UNL     1       5.475   4.550  19.086  0.00  0.00    +0.000 N 
ATOM     15  H   UNL     1       1.450   2.341  18.160  0.00  0.00    +0.000 HD
ATOM     16  H   UNL     1       2.999   3.643  17.223  0.00  0.00    +0.000 HD
ATOM     17  H   UNL     1       5.517   3.865  19.799  0.00  0.00    +0.000 HD
ENDROOT
BRANCH  10  18
ATOM     18  O   UNL     1       8.457   8.805  17.309  0.00  0.00    +0.000 OA
BRANCH  18  19
ATOM     19  C   UNL     1       8.089  10.044  17.964  0.00  0.00    +0.000 C 
BRANCH  19  20
ATOM     20  C   UNL     1       9.293  10.711  18.588  0.00  0.00    +0.000 A 
ATOM     21  C   UNL     1      10.346  11.189  17.800  0.00  0.00    +0.000 A 
ATOM     22  C   UNL     1      11.476  11.751  18.393  0.00  0.00    +0.000 A 
ATOM     23  C   UNL     1      11.551  11.877  19.778  0.00  0.00    +0.000 A 
ATOM     24  C   UNL     1      10.487  11.453  20.572  0.00  0.00    +0.000 A 
ATOM     25  C   UNL     1       9.361  10.879  19.981  0.00  0.00    +0.000 A 
ENDBRANCH  19  20
ENDBRANCH  18  19
ENDBRANCH  10  18
TORSDOF 3
ENDMDL
MODEL 8
REMARK VINA RESULT:      -7.3      4.625      6.258
REMARK  Name = 
REMARK  4 active torsions:
REMARK  status: ('A' for Active; 'I' for Inactive)
REMARK    1  A    between atoms: C_1  and  N_2
REMARK    2  A    between atoms: C_10  and  O_11
REMARK    3  A    between atoms: O_11  and  C_12
REMARK    4  A    between atoms: C_12  and  C_13
REMARK                            x       y       z     vdW  Elec       q    Type
REMARK                         _______ _______ _______ _____ _____    ______ ____
ROOT
ATOM      1  C   UNL     1       7.263   4.116  12.053  0.00  0.00    +0.000 C 
ATOM      2  N   UNL     1       7.307   4.914  13.258  0.00  0.00    +0.000 N 
ATOM      3  C   UNL     1       6.327   4.790  14.230  0.00  0.00    +0.000 C 
ATOM      4  O   UNL     1       5.408   4.002  14.138  0.00  0.00    +0.000 OA
ATOM      5  N   UNL     1       6.574   5.635  15.306  0.00  0.00    +0.000 N 
ATOM      6  C   UNL     1       5.635   5.710  16.313  0.00  0.00    +0.000 A 
ATOM      7  N   UNL     1       4.997   6.777  16.718  0.00  0.00    +0.000 NA
ATOM      8  C   UNL     1       4.224   6.359  17.777  0.00  0.00    +0.000 A 
ATOM      9  C   UNL     1       3.275   7.058  18.522  0.00  0.00    +0.000 A 
ATOM     10  C   UNL     1       2.656   6.453  19.615  0.00  0.00    +0.000 A 
ATOM     11  C   UNL     1       3.012   5.140  19.986  0.00  0.00    +0.000 A 
ATOM     12  C   UNL     1       3.946   4.402  19.221  0.00  0.00    +0.000 A 
ATOM     13  C   UNL     1       4.506   5.048  18.118  0.00  0.00    +0.000 A 
ATOM     14  N   UNL     1       5.385   4.625  17.138  0.00  0.00    +0.000 N 
ATOM     15  H   UNL     1       8.118   5.484  13.432  0.00  0.00    +0.000 HD
ATOM     16  H   UNL     1       7.067   6.498  15.118  0.00  0.00    +0.000 HD
ATOM     17  H   UNL     1       5.790   3.726  17.044  0.00  0.00    +0.000 HD
ENDROOT
BRANCH  10  18
ATOM     18  O   UNL     1       1.711   7.148  20.345  0.00  0.00    +0.000 OA
BRANCH  18  19
ATOM     19  C   UNL     1       1.519   8.518  19.912  0.00  0.00    +0.000 C 
BRANCH  19  20
ATOM     20  C   UNL     1       0.717   9.304  20.924  0.00  0.00    +0.000 A 
ATOM     21  C   UNL     1       0.680   8.925  22.270  0.00  0.00    +0.000 A 
ATOM     22  C   UNL     1      -0.109   9.627  23.181  0.00  0.00    +0.000 A 
ATOM     23  C   UNL     1      -0.840  10.737  22.766  0.00  0.00    +0.000 A 
ATOM     24  C   UNL     1      -0.771  11.157  21.439  0.00  0.00    +0.000 A 
ATOM     25  C   UNL     1       0.008  10.448  20.523  0.00  0.00    +0.000 A 
ENDBRANCH  19  20
ENDBRANCH  18  19
ENDBRANCH  10  18
TORSDOF 3
ENDMDL
MODEL 9
REMARK VINA RESULT:      -7.3      2.491      8.673
REMARK  Name = 
REMARK  4 active torsions:
REMARK  status: ('A' for Active; 'I' for Inactive)
REMARK    1  A    between atoms: C_1  and  N_2
REMARK    2  A    between atoms: C_10  and  O_11
REMARK    3  A    between atoms: O_11  and  C_12
REMARK    4  A    between atoms: C_12  and  C_13
REMARK                            x       y       z     vdW  Elec       q    Type
REMARK                         _______ _______ _______ _____ _____    ______ ____
ROOT
ATOM      1  C   UNL     1       0.572   2.077  18.967  0.00  0.00    +0.000 C 
ATOM      2  N   UNL     1       1.611   2.519  18.063  0.00  0.00    +0.000 N 
ATOM      3  C   UNL     1       2.605   3.384  18.491  0.00  0.00    +0.000 C 
ATOM      4  O   UNL     1       2.673   3.791  19.633  0.00  0.00    +0.000 OA
ATOM      5  N   UNL     1       3.506   3.662  17.469  0.00  0.00    +0.000 N 
ATOM      6  C   UNL     1       4.498   4.591  17.701  0.00  0.00    +0.000 A 
ATOM      7  N   UNL     1       4.712   5.697  17.038  0.00  0.00    +0.000 NA
ATOM      8  C   UNL     1       5.843   6.245  17.599  0.00  0.00    +0.000 A 
ATOM      9  C   UNL     1       6.464   7.468  17.347  0.00  0.00    +0.000 A 
ATOM     10  C   UNL     1       7.659   7.793  17.987  0.00  0.00    +0.000 A 
ATOM     11  C   UNL     1       8.257   6.871  18.870  0.00  0.00    +0.000 A 
ATOM     12  C   UNL     1       7.623   5.641  19.167  0.00  0.00    +0.000 A 
ATOM     13  C   UNL     1       6.412   5.386  18.522  0.00  0.00    +0.000 A 
ATOM     14  N   UNL     1       5.511   4.341  18.613  0.00  0.00    +0.000 N 
ATOM     15  H   UNL     1       1.664   2.105  17.147  0.00  0.00    +0.000 HD
ATOM     16  H   UNL     1       3.155   3.640  16.520  0.00  0.00    +0.000 HD
ATOM     17  H   UNL     1       5.575   3.543  19.196  0.00  0.00    +0.000 HD
ENDROOT
BRANCH  10  18
ATOM     18  O   UNL     1       8.267   9.009  17.738  0.00  0.00    +0.000 OA
BRANCH  18  19
ATOM     19  C   UNL     1       9.138   9.464  18.803  0.00  0.00    +0.000 C 
BRANCH  19  20
ATOM     20  C   UNL     1       9.333  10.962  18.747  0.00  0.00    +0.000 A 
ATOM     21  C   UNL     1      10.170  11.618  19.656  0.00  0.00    +0.000 A 
ATOM     22  C   UNL     1      10.295  13.007  19.628  0.00  0.00    +0.000 A 
ATOM     23  C   UNL     1       9.614  13.753  18.669  0.00  0.00    +0.000 A 
ATOM     24  C   UNL     1       8.818  13.108  17.724  0.00  0.00    +0.000 A 
ATOM     25  C   UNL     1       8.682  11.719  17.758  0.00  0.00    +0.000 A 
ENDBRANCH  19  20
ENDBRANCH  18  19
ENDBRANCH  10  18
TORSDOF 3
ENDMDL
