MODEL 1
REMARK VINA RESULT:      -8.4      0.000      0.000
REMARK  Name = 
REMARK  9 active torsions:
REMARK  status: ('A' for Active; 'I' for Inactive)
REMARK    1  A    between atoms: C_1  and  O_2
REMARK    2  A    between atoms: O_2  and  C_3
REMARK    3  A    between atoms: C_6  and  O_7
REMARK    4  A    between atoms: C_8  and  C_9
REMARK    5  A    between atoms: N_10  and  N_11
REMARK    6  A    between atoms: C_12  and  C_14
REMARK    7  A    between atoms: C_14  and  S_15
REMARK    8  A    between atoms: S_15  and  C_16
REMARK    9  A    between atoms: N_20  and  C_21
REMARK                            x       y       z     vdW  Elec       q    Type
REMARK                         _______ _______ _______ _____ _____    ______ ____
ROOT
ATOM      1  C   UNL     1       6.679   5.448  18.810  0.00  0.00    +0.000 C 
ENDROOT
BRANCH   1   3
ATOM      2  N   UNL     1       7.864   7.569  18.445  0.00  0.00    +0.000 N 
ATOM      3  C   UNL     1       7.839   6.374  19.158  0.00  0.00    +0.000 C 
ATOM      4  O   UNL     1       8.664   6.074  20.023  0.00  0.00    +0.000 OA
ATOM      5  H   UNL     1       7.180   7.796  17.732  0.00  0.00    +0.000 HD
BRANCH   2   7
ATOM      6  C   UNL     1       8.625   9.721  18.476  0.00  0.00    +0.000 C 
ATOM      7  N   UNL     1       8.832   8.474  18.758  0.00  0.00    +0.000 NA
BRANCH   6  12
ATOM      8  C   UNL     1      11.327  12.322  18.053  0.00  0.00    +0.000 A 
ATOM      9  C   UNL     1      11.604  12.643  19.385  0.00  0.00    +0.000 A 
ATOM     10  C   UNL     1      10.917  12.016  20.430  0.00  0.00    +0.000 A 
ATOM     11  C   UNL     1       9.943  11.059  20.143  0.00  0.00    +0.000 A 
ATOM     12  C   UNL     1       9.655  10.733  18.815  0.00  0.00    +0.000 A 
ATOM     13  C   UNL     1      10.352  11.368  17.773  0.00  0.00    +0.000 A 
BRANCH   8  15
ATOM     14  C   UNL     1      11.879  14.415  17.072  0.00  0.00    +0.000 C 
ATOM     15  O   UNL     1      12.070  13.004  17.128  0.00  0.00    +0.000 OA
ENDBRANCH   8  15
BRANCH  11  16
ATOM     16  O   UNL     1       9.271  10.442  21.164  0.00  0.00    +0.000 OA
ATOM     17  H   UNL     1       8.611  11.063  21.521  0.00  0.00    +0.000 HD
ENDBRANCH  11  16
ENDBRANCH   6  12
ENDBRANCH   2   7
ENDBRANCH   1   3
BRANCH   1  18
ATOM     18  S   UNL     1       7.295   4.234  17.617  0.00  0.00    +0.000 S 
BRANCH  18  19
ATOM     19  C   UNL     1       6.861   4.884  16.072  0.00  0.00    +0.000 A 
ATOM     20  N   UNL     1       7.591   4.831  14.982  0.00  0.00    +0.000 NA
ATOM     21  N   UNL     1       6.799   5.319  13.979  0.00  0.00    +0.000 NA
ATOM     22  N   UNL     1       5.602   5.665  14.431  0.00  0.00    +0.000 NA
ATOM     23  N   UNL     1       5.609   5.428  15.768  0.00  0.00    +0.000 N 
BRANCH  23  24
ATOM     24  C   UNL     1       4.508   5.761  16.614  0.00  0.00    +0.000 A 
ATOM     25  C   UNL     1       4.314   7.121  16.926  0.00  0.00    +0.000 A 
ATOM     26  C   UNL     1       3.344   7.520  17.834  0.00  0.00    +0.000 A 
ATOM     27  C   UNL     1       2.523   6.569  18.419  0.00  0.00    +0.000 A 
ATOM     28  C   UNL     1       2.638   5.213  18.087  0.00  0.00    +0.000 A 
ATOM     29  C   UNL     1       1.762   4.306  18.703  0.00  0.00    +0.000 A 
ATOM     30  C   UNL     1       1.824   2.945  18.428  0.00  0.00    +0.000 A 
ATOM     31  C   UNL     1       2.773   2.475  17.535  0.00  0.00    +0.000 A 
ATOM     32  C   UNL     1       3.664   3.365  16.923  0.00  0.00    +0.000 A 
ATOM     33  C   UNL     1       3.627   4.768  17.164  0.00  0.00    +0.000 A 
ENDBRANCH  23  24
ENDBRANCH  18  19
ENDBRANCH   1  18
TORSDOF 8
ENDMDL
MODEL 2
REMARK VINA RESULT:      -8.4      5.442      8.072
REMARK  Name = 
REMARK  9 active torsions:
REMARK  status: ('A' for Active; 'I' for Inactive)
REMARK    1  A    between atoms: C_1  and  O_2
REMARK    2  A    between atoms: O_2  and  C_3
REMARK    3  A    between atoms: C_6  and  O_7
REMARK    4  A    between atoms: C_8  and  C_9
REMARK    5  A    between atoms: N_10  and  N_11
REMARK    6  A    between atoms: C_12  and  C_14
REMARK    7  A    between atoms: C_14  and  S_15
REMARK    8  A    between atoms: S_15  and  C_16
REMARK    9  A    between atoms: N_20  and  C_21
REMARK                            x       y       z     vdW  Elec       q    Type
REMARK                         _______ _______ _______ _____ _____    ______ ____
ROOT
ATOM      1  C   UNL     1       3.422   6.741  18.170  0.00  0.00    +0.000 C 
ENDROOT
BRANCH   1   3
ATOM      2  N   UNL     1       1.913   7.964  19.674  0.00  0.00    +0.000 N 
ATOM      3  C   UNL     1       2.434   7.880  18.386  0.00  0.00    +0.000 C 
ATOM      4  O   UNL     1       2.152   8.667  17.480  0.00  0.00    +0.000 OA
ATOM      5  H   UNL     1       2.152   7.303  20.405  0.00  0.00    +0.000 HD
BRANCH   2   7
ATOM      6  C   UNL     1       0.799   9.252  21.195  0.00  0.00    +0.000 C 
ATOM      7  N   UNL     1       1.080   9.003  19.955  0.00  0.00    +0.000 NA
BRANCH   6  12
ATOM      8  C   UNL     1      -1.240  12.406  20.825  0.00  0.00    +0.000 A 
ATOM      9  C   UNL     1      -1.774  12.534  22.110  0.00  0.00    +0.000 A 
ATOM     10  C   UNL     1      -1.474  11.599  23.106  0.00  0.00    +0.000 A 
ATOM     11  C   UNL     1      -0.633  10.524  22.817  0.00  0.00    +0.000 A 
ATOM     12  C   UNL     1      -0.096  10.384  21.534  0.00  0.00    +0.000 A 
ATOM     13  C   UNL     1      -0.403  11.329  20.541  0.00  0.00    +0.000 A 
BRANCH   8  15
ATOM     14  C   UNL     1      -1.465  14.732  20.394  0.00  0.00    +0.000 C 
ATOM     15  O   UNL     1      -1.608  13.387  19.945  0.00  0.00    +0.000 OA
ENDBRANCH   8  15
BRANCH  11  16
ATOM     16  O   UNL     1      -0.337   9.610  23.791  0.00  0.00    +0.000 OA
ATOM     17  H   UNL     1       0.580   9.306  23.664  0.00  0.00    +0.000 HD
ENDBRANCH  11  16
ENDBRANCH   6  12
ENDBRANCH   2   7
ENDBRANCH   1   3
BRANCH   1  18
ATOM     18  S   UNL     1       2.463   5.214  18.015  0.00  0.00    +0.000 S 
BRANCH  18  19
ATOM     19  C   UNL     1       3.274   4.084  19.045  0.00  0.00    +0.000 A 
ATOM     20  N   UNL     1       2.694   3.217  19.844  0.00  0.00    +0.000 NA
ATOM     21  N   UNL     1       3.701   2.433  20.337  0.00  0.00    +0.000 NA
ATOM     22  N   UNL     1       4.880   2.798  19.854  0.00  0.00    +0.000 NA
ATOM     23  N   UNL     1       4.655   3.866  19.047  0.00  0.00    +0.000 N 
BRANCH  23  24
ATOM     24  C   UNL     1       5.711   4.586  18.410  0.00  0.00    +0.000 A 
ATOM     25  C   UNL     1       6.511   5.418  19.218  0.00  0.00    +0.000 A 
ATOM     26  C   UNL     1       7.480   6.243  18.665  0.00  0.00    +0.000 A 
ATOM     27  C   UNL     1       7.694   6.223  17.297  0.00  0.00    +0.000 A 
ATOM     28  C   UNL     1       6.967   5.363  16.464  0.00  0.00    +0.000 A 
ATOM     29  C   UNL     1       7.248   5.380  15.089  0.00  0.00    +0.000 A 
ATOM     30  C   UNL     1       6.560   4.559  14.203  0.00  0.00    +0.000 A 
ATOM     31  C   UNL     1       5.575   3.715  14.685  0.00  0.00    +0.000 A 
ATOM     32  C   UNL     1       5.272   3.695  16.052  0.00  0.00    +0.000 A 
ATOM     33  C   UNL     1       5.960   4.508  16.998  0.00  0.00    +0.000 A 
ENDBRANCH  23  24
ENDBRANCH  18  19
ENDBRANCH   1  18
TORSDOF 8
ENDMDL
MODEL 3
REMARK VINA RESULT:      -8.3      2.143      2.592
REMARK  Name = 
REMARK  9 active torsions:
REMARK  status: ('A' for Active; 'I' for Inactive)
REMARK    1  A    between atoms: C_1  and  O_2
REMARK    2  A    between atoms: O_2  and  C_3
REMARK    3  A    between atoms: C_6  and  O_7
REMARK    4  A    between atoms: C_8  and  C_9
REMARK    5  A    between atoms: N_10  and  N_11
REMARK    6  A    between atoms: C_12  and  C_14
REMARK    7  A    between atoms: C_14  and  S_15
REMARK    8  A    between atoms: S_15  and  C_16
REMARK    9  A    between atoms: N_20  and  C_21
REMARK                            x       y       z     vdW  Elec       q    Type
REMARK                         _______ _______ _______ _____ _____    ______ ____
ROOT
ATOM      1  C   UNL     1       7.322   8.073  17.421  0.00  0.00    +0.000 C 
ENDROOT
BRANCH   1   3
ATOM      2  N   UNL     1       8.260  10.329  17.681  0.00  0.00    +0.000 N 
ATOM      3  C   UNL     1       8.295   9.011  18.126  0.00  0.00    +0.000 C 
ATOM      4  O   UNL     1       9.029   8.612  19.033  0.00  0.00    +0.000 OA
ATOM      5  H   UNL     1       7.653  10.637  16.930  0.00  0.00    +0.000 HD
BRANCH   2   7
ATOM      6  C   UNL     1       9.558  12.206  17.628  0.00  0.00    +0.000 C 
ATOM      7  N   UNL     1       9.051  11.234  18.319  0.00  0.00    +0.000 NA
BRANCH   6  12
ATOM      8  C   UNL     1      10.866  15.550  18.791  0.00  0.00    +0.000 A 
ATOM      9  C   UNL     1      11.989  15.160  19.525  0.00  0.00    +0.000 A 
ATOM     10  C   UNL     1      12.331  13.809  19.646  0.00  0.00    +0.000 A 
ATOM     11  C   UNL     1      11.543  12.836  19.029  0.00  0.00    +0.000 A 
ATOM     12  C   UNL     1      10.416  13.215  18.295  0.00  0.00    +0.000 A 
ATOM     13  C   UNL     1      10.082  14.574  18.178  0.00  0.00    +0.000 A 
BRANCH   8  15
ATOM     14  C   UNL     1      10.808  17.612  19.971  0.00  0.00    +0.000 C 
ATOM     15  O   UNL     1      10.644  16.899  18.747  0.00  0.00    +0.000 OA
ENDBRANCH   8  15
BRANCH  11  16
ATOM     16  O   UNL     1      11.878  11.514  19.144  0.00  0.00    +0.000 OA
ATOM     17  H   UNL     1      11.061  10.995  19.254  0.00  0.00    +0.000 HD
ENDBRANCH  11  16
ENDBRANCH   6  12
ENDBRANCH   2   7
ENDBRANCH   1   3
BRANCH   1  18
ATOM     18  S   UNL     1       7.464   6.451  18.212  0.00  0.00    +0.000 S 
BRANCH  18  19
ATOM     19  C   UNL     1       6.723   5.356  17.095  0.00  0.00    +0.000 A 
ATOM     20  N   UNL     1       7.344   4.664  16.167  0.00  0.00    +0.000 NA
ATOM     21  N   UNL     1       6.404   3.825  15.636  0.00  0.00    +0.000 NA
ATOM     22  N   UNL     1       5.226   3.984  16.221  0.00  0.00    +0.000 NA
ATOM     23  N   UNL     1       5.379   4.972  17.140  0.00  0.00    +0.000 N 
BRANCH  23  24
ATOM     24  C   UNL     1       4.291   5.479  17.914  0.00  0.00    +0.000 A 
ATOM     25  C   UNL     1       3.839   6.782  17.625  0.00  0.00    +0.000 A 
ATOM     26  C   UNL     1       2.870   7.397  18.404  0.00  0.00    +0.000 A 
ATOM     27  C   UNL     1       2.306   6.706  19.464  0.00  0.00    +0.000 A 
ATOM     28  C   UNL     1       2.678   5.386  19.745  0.00  0.00    +0.000 A 
ATOM     29  C   UNL     1       2.054   4.738  20.823  0.00  0.00    +0.000 A 
ATOM     30  C   UNL     1       2.379   3.430  21.164  0.00  0.00    +0.000 A 
ATOM     31  C   UNL     1       3.344   2.758  20.433  0.00  0.00    +0.000 A 
ATOM     32  C   UNL     1       3.987   3.394  19.365  0.00  0.00    +0.000 A 
ATOM     33  C   UNL     1       3.675   4.726  18.970  0.00  0.00    +0.000 A 
ENDBRANCH  23  24
ENDBRANCH  18  19
ENDBRANCH   1  18
TORSDOF 8
ENDMDL
MODEL 4
REMARK VINA RESULT:      -8.2      6.866     10.222
REMARK  Name = 
REMARK  9 active torsions:
REMARK  status: ('A' for Active; 'I' for Inactive)
REMARK    1  A    between atoms: C_1  and  O_2
REMARK    2  A    between atoms: O_2  and  C_3
REMARK    3  A    between atoms: C_6  and  O_7
REMARK    4  A    between atoms: C_8  and  C_9
REMARK    5  A    between atoms: N_10  and  N_11
REMARK    6  A    between atoms: C_12  and  C_14
REMARK    7  A    between atoms: C_14  and  S_15
REMARK    8  A    between atoms: S_15  and  C_16
REMARK    9  A    between atoms: N_20  and  C_21
REMARK                            x       y       z     vdW  Elec       q    Type
REMARK                         _______ _______ _______ _____ _____    ______ ____
ROOT
ATOM      1  C   UNL     1       0.649   9.473  22.632  0.00  0.00    +0.000 C 
ENDROOT
BRANCH   1   3
ATOM      2  N   UNL     1       1.976   7.949  21.233  0.00  0.00    +0.000 N 
ATOM      3  C   UNL     1       0.722   8.515  21.448  0.00  0.00    +0.000 C 
ATOM      4  O   UNL     1      -0.272   8.261  20.765  0.00  0.00    +0.000 OA
ATOM      5  H   UNL     1       2.783   8.175  21.803  0.00  0.00    +0.000 HD
BRANCH   2   7
ATOM      6  C   UNL     1       2.055   5.773  20.550  0.00  0.00    +0.000 C 
ATOM      7  N   UNL     1       2.092   7.029  20.237  0.00  0.00    +0.000 NA
BRANCH   6  12
ATOM      8  C   UNL     1       3.259   3.975  17.458  0.00  0.00    +0.000 A 
ATOM      9  C   UNL     1       2.431   2.850  17.460  0.00  0.00    +0.000 A 
ATOM     10  C   UNL     1       1.474   2.667  18.463  0.00  0.00    +0.000 A 
ATOM     11  C   UNL     1       1.343   3.618  19.477  0.00  0.00    +0.000 A 
ATOM     12  C   UNL     1       2.168   4.745  19.487  0.00  0.00    +0.000 A 
ATOM     13  C   UNL     1       3.126   4.919  18.473  0.00  0.00    +0.000 A 
BRANCH   8  15
ATOM     14  C   UNL     1       5.511   4.285  16.763  0.00  0.00    +0.000 C 
ATOM     15  O   UNL     1       4.150   4.036  16.421  0.00  0.00    +0.000 OA
ENDBRANCH   8  15
BRANCH  11  16
ATOM     16  O   UNL     1       0.405   3.442  20.458  0.00  0.00    +0.000 OA
ATOM     17  H   UNL     1       0.761   3.792  21.295  0.00  0.00    +0.000 HD
ENDBRANCH  11  16
ENDBRANCH   6  12
ENDBRANCH   2   7
ENDBRANCH   1   3
BRANCH   1  18
ATOM     18  S   UNL     1      -0.705  10.629  22.310  0.00  0.00    +0.000 S 
BRANCH  18  19
ATOM     19  C   UNL     1      -0.007  11.844  21.293  0.00  0.00    +0.000 A 
ATOM     20  N   UNL     1       0.949  12.678  21.634  0.00  0.00    +0.000 NA
ATOM     21  N   UNL     1       1.292  13.339  20.487  0.00  0.00    +0.000 NA
ATOM     22  N   UNL     1       0.573  12.926  19.454  0.00  0.00    +0.000 NA
ATOM     23  N   UNL     1      -0.287  11.990  19.931  0.00  0.00    +0.000 N 
BRANCH  23  24
ATOM     24  C   UNL     1      -1.285  11.374  19.114  0.00  0.00    +0.000 A 
ATOM     25  C   UNL     1      -0.856  10.417  18.174  0.00  0.00    +0.000 A 
ATOM     26  C   UNL     1      -1.740   9.858  17.261  0.00  0.00    +0.000 A 
ATOM     27  C   UNL     1      -3.077  10.218  17.298  0.00  0.00    +0.000 A 
ATOM     28  C   UNL     1      -3.558  11.116  18.258  0.00  0.00    +0.000 A 
ATOM     29  C   UNL     1      -4.927  11.423  18.250  0.00  0.00    +0.000 A 
ATOM     30  C   UNL     1      -5.473  12.312  19.169  0.00  0.00    +0.000 A 
ATOM     31  C   UNL     1      -4.648  12.912  20.105  0.00  0.00    +0.000 A 
ATOM     32  C   UNL     1      -3.277  12.628  20.118  0.00  0.00    +0.000 A 
ATOM     33  C   UNL     1      -2.677  11.714  19.206  0.00  0.00    +0.000 A 
ENDBRANCH  23  24
ENDBRANCH  18  19
ENDBRANCH   1  18
TORSDOF 8
ENDMDL
MODEL 5
REMARK VINA RESULT:      -8.2      2.341      3.612
REMARK  Name = 
REMARK  9 active torsions:
REMARK  status: ('A' for Active; 'I' for Inactive)
REMARK    1  A    between atoms: C_1  and  O_2
REMARK    2  A    between atoms: O_2  and  C_3
REMARK    3  A    between atoms: C_6  and  O_7
REMARK    4  A    between atoms: C_8  and  C_9
REMARK    5  A    between atoms: N_10  and  N_11
REMARK    6  A    between atoms: C_12  and  C_14
REMARK    7  A    between atoms: C_14  and  S_15
REMARK    8  A    between atoms: S_15  and  C_16
REMARK    9  A    between atoms: N_20  and  C_21
REMARK                            x       y       z     vdW  Elec       q    Type
REMARK                         _______ _______ _______ _____ _____    ______ ____
ROOT
ATOM      1  C   UNL     1       7.899   5.892  18.278  0.00  0.00    +0.000 C 
ENDROOT
BRANCH   1   3
ATOM      2  N   UNL     1       8.656   8.165  18.825  0.00  0.00    +0.000 N 
ATOM      3  C   UNL     1       7.874   7.386  17.976  0.00  0.00    +0.000 C 
ATOM      4  O   UNL     1       7.223   7.840  17.034  0.00  0.00    +0.000 OA
ATOM      5  H   UNL     1       9.181   7.773  19.599  0.00  0.00    +0.000 HD
BRANCH   2   7
ATOM      6  C   UNL     1       9.423  10.244  19.372  0.00  0.00    +0.000 C 
ATOM      7  N   UNL     1       8.737   9.498  18.565  0.00  0.00    +0.000 NA
BRANCH   6  12
ATOM      8  C   UNL     1       8.946  13.970  19.736  0.00  0.00    +0.000 A 
ATOM      9  C   UNL     1       9.718  14.446  18.674  0.00  0.00    +0.000 A 
ATOM     10  C   UNL     1      10.397  13.561  17.830  0.00  0.00    +0.000 A 
ATOM     11  C   UNL     1      10.306  12.186  18.049  0.00  0.00    +0.000 A 
ATOM     12  C   UNL     1       9.540  11.699  19.111  0.00  0.00    +0.000 A 
ATOM     13  C   UNL     1       8.860  12.596  19.953  0.00  0.00    +0.000 A 
BRANCH   8  15
ATOM     14  C   UNL     1       7.004  15.290  20.102  0.00  0.00    +0.000 C 
ATOM     15  O   UNL     1       8.331  14.937  20.484  0.00  0.00    +0.000 OA
ENDBRANCH   8  15
BRANCH  11  16
ATOM     16  O   UNL     1      10.967  11.319  17.223  0.00  0.00    +0.000 OA
ATOM     17  H   UNL     1      11.327  10.590  17.760  0.00  0.00    +0.000 HD
ENDBRANCH  11  16
ENDBRANCH   6  12
ENDBRANCH   2   7
ENDBRANCH   1   3
BRANCH   1  18
ATOM     18  S   UNL     1       6.389   5.501  19.196  0.00  0.00    +0.000 S 
BRANCH  18  19
ATOM     19  C   UNL     1       5.288   4.916  17.995  0.00  0.00    +0.000 A 
ATOM     20  N   UNL     1       5.615   4.253  16.909  0.00  0.00    +0.000 NA
ATOM     21  N   UNL     1       4.434   3.858  16.344  0.00  0.00    +0.000 NA
ATOM     22  N   UNL     1       3.395   4.259  17.062  0.00  0.00    +0.000 NA
ATOM     23  N   UNL     1       3.896   4.961  18.111  0.00  0.00    +0.000 N 
BRANCH  23  24
ATOM     24  C   UNL     1       3.062   5.624  19.063  0.00  0.00    +0.000 A 
ATOM     25  C   UNL     1       2.669   4.895  20.202  0.00  0.00    +0.000 A 
ATOM     26  C   UNL     1       1.765   5.418  21.116  0.00  0.00    +0.000 A 
ATOM     27  C   UNL     1       1.268   6.698  20.927  0.00  0.00    +0.000 A 
ATOM     28  C   UNL     1       1.683   7.482  19.844  0.00  0.00    +0.000 A 
ATOM     29  C   UNL     1       1.153   8.776  19.723  0.00  0.00    +0.000 A 
ATOM     30  C   UNL     1       1.515   9.608  18.670  0.00  0.00    +0.000 A 
ATOM     31  C   UNL     1       2.408   9.147  17.717  0.00  0.00    +0.000 A 
ATOM     32  C   UNL     1       2.934   7.854  17.814  0.00  0.00    +0.000 A 
ATOM     33  C   UNL     1       2.604   6.973  18.884  0.00  0.00    +0.000 A 
ENDBRANCH  23  24
ENDBRANCH  18  19
ENDBRANCH   1  18
TORSDOF 8
ENDMDL
MODEL 6
REMARK VINA RESULT:      -8.2      2.047      3.211
REMARK  Name = 
REMARK  9 active torsions:
REMARK  status: ('A' for Active; 'I' for Inactive)
REMARK    1  A    between atoms: C_1  and  O_2
REMARK    2  A    between atoms: O_2  and  C_3
REMARK    3  A    between atoms: C_6  and  O_7
REMARK    4  A    between atoms: C_8  and  C_9
REMARK    5  A    between atoms: N_10  and  N_11
REMARK    6  A    between atoms: C_12  and  C_14
REMARK    7  A    between atoms: C_14  and  S_15
REMARK    8  A    between atoms: S_15  and  C_16
REMARK    9  A    between atoms: N_20  and  C_21
REMARK                            x       y       z     vdW  Elec       q    Type
REMARK                         _______ _______ _______ _____ _____    ______ ____
ROOT
ATOM      1  C   UNL     1       8.078   6.232  18.605  0.00  0.00    +0.000 C 
ENDROOT
BRANCH   1   3
ATOM      2  N   UNL     1       8.777   8.570  18.897  0.00  0.00    +0.000 N 
ATOM      3  C   UNL     1       8.034   7.679  18.127  0.00  0.00    +0.000 C 
ATOM      4  O   UNL     1       7.400   8.005  17.122  0.00  0.00    +0.000 OA
ATOM      5  H   UNL     1       9.288   8.284  19.725  0.00  0.00    +0.000 HD
BRANCH   2   7
ATOM      6  C   UNL     1       9.822  10.599  18.900  0.00  0.00    +0.000 C 
ATOM      7  N   UNL     1       8.840   9.865  18.483  0.00  0.00    +0.000 NA
BRANCH   6  12
ATOM      8  C   UNL     1       8.930  14.224  18.346  0.00  0.00    +0.000 A 
ATOM      9  C   UNL     1      10.058  14.677  17.657  0.00  0.00    +0.000 A 
ATOM     10  C   UNL     1      11.116  13.809  17.366  0.00  0.00    +0.000 A 
ATOM     11  C   UNL     1      11.047  12.474  17.767  0.00  0.00    +0.000 A 
ATOM     12  C   UNL     1       9.925  12.011  18.459  0.00  0.00    +0.000 A 
ATOM     13  C   UNL     1       8.868  12.891  18.746  0.00  0.00    +0.000 A 
BRANCH   8  15
ATOM     14  C   UNL     1       6.617  14.769  18.350  0.00  0.00    +0.000 C 
ATOM     15  O   UNL     1       7.967  15.171  18.565  0.00  0.00    +0.000 OA
ENDBRANCH   8  15
BRANCH  11  16
ATOM     16  O   UNL     1      12.079  11.623  17.480  0.00  0.00    +0.000 OA
ATOM     17  H   UNL     1      11.941  11.257  16.587  0.00  0.00    +0.000 HD
ENDBRANCH  11  16
ENDBRANCH   6  12
ENDBRANCH   2   7
ENDBRANCH   1   3
BRANCH   1  18
ATOM     18  S   UNL     1       6.369   5.699  18.874  0.00  0.00    +0.000 S 
BRANCH  18  19
ATOM     19  C   UNL     1       5.851   5.103  17.334  0.00  0.00    +0.000 A 
ATOM     20  N   UNL     1       6.442   5.328  16.182  0.00  0.00    +0.000 NA
ATOM     21  N   UNL     1       5.793   4.542  15.271  0.00  0.00    +0.000 NA
ATOM     22  N   UNL     1       4.824   3.840  15.839  0.00  0.00    +0.000 NA
ATOM     23  N   UNL     1       4.810   4.188  17.150  0.00  0.00    +0.000 N 
BRANCH  23  24
ATOM     24  C   UNL     1       3.836   3.691  18.069  0.00  0.00    +0.000 A 
ATOM     25  C   UNL     1       3.639   2.297  18.118  0.00  0.00    +0.000 A 
ATOM     26  C   UNL     1       2.632   1.738  18.893  0.00  0.00    +0.000 A 
ATOM     27  C   UNL     1       1.828   2.561  19.664  0.00  0.00    +0.000 A 
ATOM     28  C   UNL     1       2.032   3.947  19.695  0.00  0.00    +0.000 A 
ATOM     29  C   UNL     1       1.191   4.720  20.512  0.00  0.00    +0.000 A 
ATOM     30  C   UNL     1       1.331   6.101  20.587  0.00  0.00    +0.000 A 
ATOM     31  C   UNL     1       2.312   6.726  19.836  0.00  0.00    +0.000 A 
ATOM     32  C   UNL     1       3.148   5.971  19.005  0.00  0.00    +0.000 A 
ATOM     33  C   UNL     1       3.051   4.554  18.907  0.00  0.00    +0.000 A 
ENDBRANCH  23  24
ENDBRANCH  18  19
ENDBRANCH   1  18
TORSDOF 8
ENDMDL
MODEL 7
REMARK VINA RESULT:      -8.1      2.034      2.496
REMARK  Name = 
REMARK  9 active torsions:
REMARK  status: ('A' for Active; 'I' for Inactive)
REMARK    1  A    between atoms: C_1  and  O_2
REMARK    2  A    between atoms: O_2  and  C_3
REMARK    3  A    between atoms: C_6  and  O_7
REMARK    4  A    between atoms: C_8  and  C_9
REMARK    5  A    between atoms: N_10  and  N_11
REMARK    6  A    between atoms: C_12  and  C_14
REMARK    7  A    between atoms: C_14  and  S_15
REMARK    8  A    between atoms: S_15  and  C_16
REMARK    9  A    between atoms: N_20  and  C_21
REMARK                            x       y       z     vdW  Elec       q    Type
REMARK                         _______ _______ _______ _____ _____    ______ ____
ROOT
ATOM      1  C   UNL     1       8.468   6.344  18.936  0.00  0.00    +0.000 C 
ENDROOT
BRANCH   1   3
ATOM      2  N   UNL     1       8.949   8.741  19.177  0.00  0.00    +0.000 N 
ATOM      3  C   UNL     1       8.332   7.765  18.401  0.00  0.00    +0.000 C 
ATOM      4  O   UNL     1       7.737   8.001  17.348  0.00  0.00    +0.000 OA
ATOM      5  H   UNL     1       9.430   8.528  20.044  0.00  0.00    +0.000 HD
BRANCH   2   7
ATOM      6  C   UNL     1       9.664  10.905  19.317  0.00  0.00    +0.000 C 
ATOM      7  N   UNL     1       8.928  10.022  18.718  0.00  0.00    +0.000 NA
BRANCH   6  12
ATOM      8  C   UNL     1       8.802  14.567  19.021  0.00  0.00    +0.000 A 
ATOM      9  C   UNL     1       9.640  14.958  17.973  0.00  0.00    +0.000 A 
ATOM     10  C   UNL     1      10.490  14.035  17.354  0.00  0.00    +0.000 A 
ATOM     11  C   UNL     1      10.503  12.708  17.785  0.00  0.00    +0.000 A 
ATOM     12  C   UNL     1       9.672  12.307  18.834  0.00  0.00    +0.000 A 
ATOM     13  C   UNL     1       8.822  13.241  19.449  0.00  0.00    +0.000 A 
BRANCH   8  15
ATOM     14  C   UNL     1       7.100  16.181  18.641  0.00  0.00    +0.000 C 
ATOM     15  O   UNL     1       8.020  15.563  19.538  0.00  0.00    +0.000 OA
ENDBRANCH   8  15
BRANCH  11  16
ATOM     16  O   UNL     1      11.332  11.803  17.179  0.00  0.00    +0.000 OA
ATOM     17  H   UNL     1      11.004  10.905  17.368  0.00  0.00    +0.000 HD
ENDBRANCH  11  16
ENDBRANCH   6  12
ENDBRANCH   2   7
ENDBRANCH   1   3
BRANCH   1  18
ATOM     18  S   UNL     1       6.808   5.624  18.986  0.00  0.00    +0.000 S 
BRANCH  18  19
ATOM     19  C   UNL     1       6.528   5.063  17.372  0.00  0.00    +0.000 A 
ATOM     20  N   UNL     1       7.451   4.696  16.514  0.00  0.00    +0.000 NA
ATOM     21  N   UNL     1       6.778   4.183  15.440  0.00  0.00    +0.000 NA
ATOM     22  N   UNL     1       5.466   4.224  15.625  0.00  0.00    +0.000 NA
ATOM     23  N   UNL     1       5.263   4.804  16.835  0.00  0.00    +0.000 N 
BRANCH  23  24
ATOM     24  C   UNL     1       3.960   5.093  17.341  0.00  0.00    +0.000 A 
ATOM     25  C   UNL     1       3.576   6.447  17.415  0.00  0.00    +0.000 A 
ATOM     26  C   UNL     1       2.378   6.825  18.003  0.00  0.00    +0.000 A 
ATOM     27  C   UNL     1       1.522   5.853  18.494  0.00  0.00    +0.000 A 
ATOM     28  C   UNL     1       1.833   4.492  18.382  0.00  0.00    +0.000 A 
ATOM     29  C   UNL     1       0.912   3.559  18.884  0.00  0.00    +0.000 A 
ATOM     30  C   UNL     1       1.159   2.193  18.814  0.00  0.00    +0.000 A 
ATOM     31  C   UNL     1       2.339   1.745  18.245  0.00  0.00    +0.000 A 
ATOM     32  C   UNL     1       3.275   2.662  17.752  0.00  0.00    +0.000 A 
ATOM     33  C   UNL     1       3.058   4.069  17.790  0.00  0.00    +0.000 A 
ENDBRANCH  23  24
ENDBRANCH  18  19
ENDBRANCH   1  18
TORSDOF 8
ENDMDL
MODEL 8
REMARK VINA RESULT:      -8.0      5.655      8.320
REMARK  Name = 
REMARK  9 active torsions:
REMARK  status: ('A' for Active; 'I' for Inactive)
REMARK    1  A    between atoms: C_1  and  O_2
REMARK    2  A    between atoms: O_2  and  C_3
REMARK    3  A    between atoms: C_6  and  O_7
REMARK    4  A    between atoms: C_8  and  C_9
REMARK    5  A    between atoms: N_10  and  N_11
REMARK    6  A    between atoms: C_12  and  C_14
REMARK    7  A    between atoms: C_14  and  S_15
REMARK    8  A    between atoms: S_15  and  C_16
REMARK    9  A    between atoms: N_20  and  C_21
REMARK                            x       y       z     vdW  Elec       q    Type
REMARK                         _______ _______ _______ _____ _____    ______ ____
ROOT
ATOM      1  C   UNL     1       2.864   6.813  18.116  0.00  0.00    +0.000 C 
ENDROOT
BRANCH   1   3
ATOM      2  N   UNL     1       1.656   8.456  19.487  0.00  0.00    +0.000 N 
ATOM      3  C   UNL     1       2.204   8.182  18.237  0.00  0.00    +0.000 C 
ATOM      4  O   UNL     1       2.192   8.975  17.294  0.00  0.00    +0.000 OA
ATOM      5  H   UNL     1       1.671   7.788  20.250  0.00  0.00    +0.000 HD
BRANCH   2   7
ATOM      6  C   UNL     1       0.026   9.782  20.380  0.00  0.00    +0.000 C 
ATOM      7  N   UNL     1       1.116   9.690  19.685  0.00  0.00    +0.000 NA
BRANCH   6  12
ATOM      8  C   UNL     1      -1.518  12.706  22.199  0.00  0.00    +0.000 A 
ATOM      9  C   UNL     1      -1.729  13.599  21.146  0.00  0.00    +0.000 A 
ATOM     10  C   UNL     1      -1.373  13.258  19.836  0.00  0.00    +0.000 A 
ATOM     11  C   UNL     1      -0.800  12.012  19.576  0.00  0.00    +0.000 A 
ATOM     12  C   UNL     1      -0.582  11.113  20.623  0.00  0.00    +0.000 A 
ATOM     13  C   UNL     1      -0.943  11.464  21.934  0.00  0.00    +0.000 A 
BRANCH   8  15
ATOM     14  C   UNL     1      -1.402  14.427  23.834  0.00  0.00    +0.000 C 
ATOM     15  O   UNL     1      -1.912  13.159  23.429  0.00  0.00    +0.000 OA
ENDBRANCH   8  15
BRANCH  11  16
ATOM     16  O   UNL     1      -0.454  11.675  18.296  0.00  0.00    +0.000 OA
ATOM     17  H   UNL     1      -0.822  10.796  18.095  0.00  0.00    +0.000 HD
ENDBRANCH  11  16
ENDBRANCH   6  12
ENDBRANCH   2   7
ENDBRANCH   1   3
BRANCH   1  18
ATOM     18  S   UNL     1       2.576   5.935  19.672  0.00  0.00    +0.000 S 
BRANCH  18  19
ATOM     19  C   UNL     1       2.784   4.263  19.272  0.00  0.00    +0.000 A 
ATOM     20  N   UNL     1       1.880   3.320  19.413  0.00  0.00    +0.000 NA
ATOM     21  N   UNL     1       2.414   2.203  18.830  0.00  0.00    +0.000 NA
ATOM     22  N   UNL     1       3.618   2.444  18.332  0.00  0.00    +0.000 NA
ATOM     23  N   UNL     1       3.903   3.740  18.617  0.00  0.00    +0.000 N 
BRANCH  23  24
ATOM     24  C   UNL     1       5.162   4.338  18.306  0.00  0.00    +0.000 A 
ATOM     25  C   UNL     1       5.916   4.862  19.374  0.00  0.00    +0.000 A 
ATOM     26  C   UNL     1       7.092   5.565  19.150  0.00  0.00    +0.000 A 
ATOM     27  C   UNL     1       7.556   5.723  17.855  0.00  0.00    +0.000 A 
ATOM     28  C   UNL     1       6.873   5.161  16.769  0.00  0.00    +0.000 A 
ATOM     29  C   UNL     1       7.409   5.344  15.484  0.00  0.00    +0.000 A 
ATOM     30  C   UNL     1       6.781   4.821  14.360  0.00  0.00    +0.000 A 
ATOM     31  C   UNL     1       5.600   4.114  14.509  0.00  0.00    +0.000 A 
ATOM     32  C   UNL     1       5.043   3.935  15.782  0.00  0.00    +0.000 A 
ATOM     33  C   UNL     1       5.660   4.440  16.962  0.00  0.00    +0.000 A 
ENDBRANCH  23  24
ENDBRANCH  18  19
ENDBRANCH   1  18
TORSDOF 8
ENDMDL
MODEL 9
REMARK VINA RESULT:      -8.0      5.508      8.544
REMARK  Name = 
REMARK  9 active torsions:
REMARK  status: ('A' for Active; 'I' for Inactive)
REMARK    1  A    between atoms: C_1  and  O_2
REMARK    2  A    between atoms: O_2  and  C_3
REMARK    3  A    between atoms: C_6  and  O_7
REMARK    4  A    between atoms: C_8  and  C_9
REMARK    5  A    between atoms: N_10  and  N_11
REMARK    6  A    between atoms: C_12  and  C_14
REMARK    7  A    between atoms: C_14  and  S_15
REMARK    8  A    between atoms: S_15  and  C_16
REMARK    9  A    between atoms: N_20  and  C_21
REMARK                            x       y       z     vdW  Elec       q    Type
REMARK                         _______ _______ _______ _____ _____    ______ ____
ROOT
ATOM      1  C   UNL     1       3.269   6.599  18.143  0.00  0.00    +0.000 C 
ENDROOT
BRANCH   1   3
ATOM      2  N   UNL     1       1.944   8.667  18.228  0.00  0.00    +0.000 N 
ATOM      3  C   UNL     1       2.320   7.513  18.909  0.00  0.00    +0.000 C 
ATOM      4  O   UNL     1       1.912   7.218  20.034  0.00  0.00    +0.000 OA
ATOM      5  H   UNL     1       2.294   8.895  17.304  0.00  0.00    +0.000 HD
BRANCH   2   7
ATOM      6  C   UNL     1       0.126  10.040  18.092  0.00  0.00    +0.000 C 
ATOM      7  N   UNL     1       1.041   9.490  18.826  0.00  0.00    +0.000 NA
BRANCH   6  12
ATOM      8  C   UNL     1      -3.194  11.656  18.875  0.00  0.00    +0.000 A 
ATOM      9  C   UNL     1      -2.819  12.586  19.848  0.00  0.00    +0.000 A 
ATOM     10  C   UNL     1      -1.485  12.697  20.256  0.00  0.00    +0.000 A 
ATOM     11  C   UNL     1      -0.515  11.870  19.686  0.00  0.00    +0.000 A 
ATOM     12  C   UNL     1      -0.880  10.934  18.715  0.00  0.00    +0.000 A 
ATOM     13  C   UNL     1      -2.222  10.831  18.312  0.00  0.00    +0.000 A 
BRANCH   8  15
ATOM     14  C   UNL     1      -4.861  11.843  17.192  0.00  0.00    +0.000 C 
ATOM     15  O   UNL     1      -4.526  11.650  18.564  0.00  0.00    +0.000 OA
ENDBRANCH   8  15
BRANCH  11  16
ATOM     16  O   UNL     1       0.790  11.979  20.082  0.00  0.00    +0.000 OA
ATOM     17  H   UNL     1       0.993  12.921  20.228  0.00  0.00    +0.000 HD
ENDBRANCH  11  16
ENDBRANCH   6  12
ENDBRANCH   2   7
ENDBRANCH   1   3
BRANCH   1  18
ATOM     18  S   UNL     1       2.467   4.983  18.000  0.00  0.00    +0.000 S 
BRANCH  18  19
ATOM     19  C   UNL     1       3.376   3.951  19.051  0.00  0.00    +0.000 A 
ATOM     20  N   UNL     1       2.876   3.068  19.885  0.00  0.00    +0.000 NA
ATOM     21  N   UNL     1       3.947   2.380  20.384  0.00  0.00    +0.000 NA
ATOM     22  N   UNL     1       5.088   2.819  19.872  0.00  0.00    +0.000 NA
ATOM     23  N   UNL     1       4.770   3.840  19.036  0.00  0.00    +0.000 N 
BRANCH  23  24
ATOM     24  C   UNL     1       5.759   4.619  18.361  0.00  0.00    +0.000 A 
ATOM     25  C   UNL     1       6.516   5.521  19.134  0.00  0.00    +0.000 A 
ATOM     26  C   UNL     1       7.413   6.400  18.543  0.00  0.00    +0.000 A 
ATOM     27  C   UNL     1       7.597   6.366  17.171  0.00  0.00    +0.000 A 
ATOM     28  C   UNL     1       6.914   5.441  16.372  0.00  0.00    +0.000 A 
ATOM     29  C   UNL     1       7.161   5.449  14.990  0.00  0.00    +0.000 A 
ATOM     30  C   UNL     1       6.514   4.564  14.136  0.00  0.00    +0.000 A 
ATOM     31  C   UNL     1       5.601   3.663  14.658  0.00  0.00    +0.000 A 
ATOM     32  C   UNL     1       5.331   3.651  16.032  0.00  0.00    +0.000 A 
ATOM     33  C   UNL     1       5.981   4.529  16.945  0.00  0.00    +0.000 A 
ENDBRANCH  23  24
ENDBRANCH  18  19
ENDBRANCH   1  18
TORSDOF 8
ENDMDL
