MODEL 1
REMARK VINA RESULT:      -8.4      0.000      0.000
REMARK  Name = 
REMARK  6 active torsions:
REMARK  status: ('A' for Active; 'I' for Inactive)
REMARK    1  A    between atoms: C_1  and  O_2
REMARK    2  A    between atoms: O_2  and  C_3
REMARK    3  A    between atoms: C_8  and  C_9
REMARK    4  A    between atoms: C_11  and  O_12
REMARK    5  A    between atoms: O_12  and  C_13
REMARK    6  A    between atoms: C_13  and  C_14
REMARK                            x       y       z     vdW  Elec       q    Type
REMARK                         _______ _______ _______ _____ _____    ______ ____
ROOT
ATOM      1  C   UNL     1       5.910   3.517  12.503  0.00  0.00    +0.000 A 
ATOM      2  C   UNL     1       7.138   4.134  12.362  0.00  0.00    +0.000 A 
ATOM      3  C   UNL     1       7.627   4.922  13.411  0.00  0.00    +0.000 A 
ATOM      4  C   UNL     1       6.947   5.079  14.617  0.00  0.00    +0.000 A 
ATOM      5  N   UNL     1       7.508   5.860  15.556  0.00  0.00    +0.000 NA
ATOM      6  C   UNL     1       6.873   6.027  16.736  0.00  0.00    +0.000 A 
ATOM      7  C   UNL     1       7.521   6.937  17.737  0.00  0.00    +0.000 C 
ATOM      8  C   UNL     1       5.682   5.385  17.033  0.00  0.00    +0.000 A 
ATOM      9  C   UNL     1       5.107   4.547  16.076  0.00  0.00    +0.000 A 
ATOM     10  C   UNL     1       5.716   4.417  14.798  0.00  0.00    +0.000 A 
ATOM     11  C   UNL     1       5.208   3.699  13.686  0.00  0.00    +0.000 A 
ENDROOT
BRANCH   1  13
ATOM     12  C   UNL     1       3.986   3.106  11.173  0.00  0.00    +0.000 C 
ATOM     13  O   UNL     1       5.272   2.706  11.611  0.00  0.00    +0.000 OA
ENDBRANCH   1  13
BRANCH   9  14
ATOM     14  O   UNL     1       3.967   3.926  16.537  0.00  0.00    +0.000 OA
BRANCH  14  15
ATOM     15  C   UNL     1       4.093   3.106  17.693  0.00  0.00    +0.000 C 
BRANCH  15  16
ATOM     16  C   UNL     1       3.025   3.412  18.702  0.00  0.00    +0.000 A 
ATOM     17  C   UNL     1       1.810   2.714  18.662  0.00  0.00    +0.000 A 
ATOM     18  C   UNL     1       0.828   2.963  19.615  0.00  0.00    +0.000 A 
ATOM     19  C   UNL     1       1.053   3.912  20.610  0.00  0.00    +0.000 A 
ATOM     20  C   UNL     1       2.264   4.605  20.660  0.00  0.00    +0.000 A 
ATOM     21  C   UNL     1       3.249   4.356  19.709  0.00  0.00    +0.000 A 
ENDBRANCH  15  16
ENDBRANCH  14  15
ENDBRANCH   9  14
TORSDOF 4
ENDMDL
MODEL 2
REMARK VINA RESULT:      -8.4      0.127      1.060
REMARK  Name = 
REMARK  6 active torsions:
REMARK  status: ('A' for Active; 'I' for Inactive)
REMARK    1  A    between atoms: C_1  and  O_2
REMARK    2  A    between atoms: O_2  and  C_3
REMARK    3  A    between atoms: C_8  and  C_9
REMARK    4  A    between atoms: C_11  and  O_12
REMARK    5  A    between atoms: O_12  and  C_13
REMARK    6  A    between atoms: C_13  and  C_14
REMARK                            x       y       z     vdW  Elec       q    Type
REMARK                         _______ _______ _______ _____ _____    ______ ____
ROOT
ATOM      1  C   UNL     1       5.899   3.497  12.516  0.00  0.00    +0.000 A 
ATOM      2  C   UNL     1       7.105   4.148  12.344  0.00  0.00    +0.000 A 
ATOM      3  C   UNL     1       7.605   4.938  13.386  0.00  0.00    +0.000 A 
ATOM      4  C   UNL     1       6.960   5.065  14.614  0.00  0.00    +0.000 A 
ATOM      5  N   UNL     1       7.528   5.851  15.543  0.00  0.00    +0.000 NA
ATOM      6  C   UNL     1       6.926   5.990  16.743  0.00  0.00    +0.000 A 
ATOM      7  C   UNL     1       7.581   6.907  17.733  0.00  0.00    +0.000 C 
ATOM      8  C   UNL     1       5.763   5.313  17.070  0.00  0.00    +0.000 A 
ATOM      9  C   UNL     1       5.181   4.470  16.123  0.00  0.00    +0.000 A 
ATOM     10  C   UNL     1       5.753   4.369  14.826  0.00  0.00    +0.000 A 
ATOM     11  C   UNL     1       5.229   3.648  13.722  0.00  0.00    +0.000 A 
ENDROOT
BRANCH   1  13
ATOM     12  C   UNL     1       3.998   3.109  11.146  0.00  0.00    +0.000 C 
ATOM     13  O   UNL     1       5.255   2.677  11.636  0.00  0.00    +0.000 OA
ENDBRANCH   1  13
BRANCH   9  14
ATOM     14  O   UNL     1       4.072   3.814  16.612  0.00  0.00    +0.000 OA
BRANCH  14  15
ATOM     15  C   UNL     1       4.220   3.111  17.841  0.00  0.00    +0.000 C 
BRANCH  15  16
ATOM     16  C   UNL     1       3.057   3.356  18.757  0.00  0.00    +0.000 A 
ATOM     17  C   UNL     1       3.190   4.254  19.825  0.00  0.00    +0.000 A 
ATOM     18  C   UNL     1       2.107   4.516  20.658  0.00  0.00    +0.000 A 
ATOM     19  C   UNL     1       0.887   3.882  20.430  0.00  0.00    +0.000 A 
ATOM     20  C   UNL     1       0.746   2.993  19.363  0.00  0.00    +0.000 A 
ATOM     21  C   UNL     1       1.827   2.730  18.527  0.00  0.00    +0.000 A 
ENDBRANCH  15  16
ENDBRANCH  14  15
ENDBRANCH   9  14
TORSDOF 4
ENDMDL
MODEL 3
REMARK VINA RESULT:      -8.0      2.843      5.252
REMARK  Name = 
REMARK  6 active torsions:
REMARK  status: ('A' for Active; 'I' for Inactive)
REMARK    1  A    between atoms: C_1  and  O_2
REMARK    2  A    between atoms: O_2  and  C_3
REMARK    3  A    between atoms: C_8  and  C_9
REMARK    4  A    between atoms: C_11  and  O_12
REMARK    5  A    between atoms: O_12  and  C_13
REMARK    6  A    between atoms: C_13  and  C_14
REMARK                            x       y       z     vdW  Elec       q    Type
REMARK                         _______ _______ _______ _____ _____    ______ ____
ROOT
ATOM      1  C   UNL     1       2.450   6.975  19.544  0.00  0.00    +0.000 A 
ATOM      2  C   UNL     1       2.415   7.720  18.381  0.00  0.00    +0.000 A 
ATOM      3  C   UNL     1       3.331   7.432  17.362  0.00  0.00    +0.000 A 
ATOM      4  C   UNL     1       4.254   6.392  17.448  0.00  0.00    +0.000 A 
ATOM      5  N   UNL     1       5.087   6.205  16.411  0.00  0.00    +0.000 NA
ATOM      6  C   UNL     1       5.990   5.202  16.467  0.00  0.00    +0.000 A 
ATOM      7  C   UNL     1       6.922   5.058  15.300  0.00  0.00    +0.000 C 
ATOM      8  C   UNL     1       6.059   4.327  17.537  0.00  0.00    +0.000 A 
ATOM      9  C   UNL     1       5.177   4.493  18.606  0.00  0.00    +0.000 A 
ATOM     10  C   UNL     1       4.271   5.589  18.607  0.00  0.00    +0.000 A 
ATOM     11  C   UNL     1       3.391   5.962  19.655  0.00  0.00    +0.000 A 
ENDROOT
BRANCH   1  13
ATOM     12  C   UNL     1       1.286   8.396  21.050  0.00  0.00    +0.000 C 
ATOM     13  O   UNL     1       1.642   7.089  20.637  0.00  0.00    +0.000 OA
ENDBRANCH   1  13
BRANCH   9  14
ATOM     14  O   UNL     1       5.316   3.511  19.562  0.00  0.00    +0.000 OA
BRANCH  14  15
ATOM     15  C   UNL     1       4.593   2.301  19.363  0.00  0.00    +0.000 C 
BRANCH  15  16
ATOM     16  C   UNL     1       3.128   2.487  19.629  0.00  0.00    +0.000 A 
ATOM     17  C   UNL     1       2.690   2.788  20.927  0.00  0.00    +0.000 A 
ATOM     18  C   UNL     1       1.338   2.998  21.177  0.00  0.00    +0.000 A 
ATOM     19  C   UNL     1       0.417   2.908  20.135  0.00  0.00    +0.000 A 
ATOM     20  C   UNL     1       0.848   2.617  18.840  0.00  0.00    +0.000 A 
ATOM     21  C   UNL     1       2.201   2.407  18.585  0.00  0.00    +0.000 A 
ENDBRANCH  15  16
ENDBRANCH  14  15
ENDBRANCH   9  14
TORSDOF 4
ENDMDL
MODEL 4
REMARK VINA RESULT:      -7.9      2.846      5.184
REMARK  Name = 
REMARK  6 active torsions:
REMARK  status: ('A' for Active; 'I' for Inactive)
REMARK    1  A    between atoms: C_1  and  O_2
REMARK    2  A    between atoms: O_2  and  C_3
REMARK    3  A    between atoms: C_8  and  C_9
REMARK    4  A    between atoms: C_11  and  O_12
REMARK    5  A    between atoms: O_12  and  C_13
REMARK    6  A    between atoms: C_13  and  C_14
REMARK                            x       y       z     vdW  Elec       q    Type
REMARK                         _______ _______ _______ _____ _____    ______ ____
ROOT
ATOM      1  C   UNL     1       2.434   6.988  19.525  0.00  0.00    +0.000 A 
ATOM      2  C   UNL     1       2.392   7.724  18.356  0.00  0.00    +0.000 A 
ATOM      3  C   UNL     1       3.309   7.437  17.339  0.00  0.00    +0.000 A 
ATOM      4  C   UNL     1       4.242   6.406  17.432  0.00  0.00    +0.000 A 
ATOM      5  N   UNL     1       5.077   6.219  16.397  0.00  0.00    +0.000 NA
ATOM      6  C   UNL     1       5.989   5.226  16.459  0.00  0.00    +0.000 A 
ATOM      7  C   UNL     1       6.922   5.082  15.293  0.00  0.00    +0.000 C 
ATOM      8  C   UNL     1       6.067   4.360  17.536  0.00  0.00    +0.000 A 
ATOM      9  C   UNL     1       5.185   4.526  18.605  0.00  0.00    +0.000 A 
ATOM     10  C   UNL     1       4.268   5.612  18.597  0.00  0.00    +0.000 A 
ATOM     11  C   UNL     1       3.385   5.985  19.643  0.00  0.00    +0.000 A 
ENDROOT
BRANCH   1  13
ATOM     12  C   UNL     1       1.303   8.411  21.053  0.00  0.00    +0.000 C 
ATOM     13  O   UNL     1       1.626   7.102  20.618  0.00  0.00    +0.000 OA
ENDBRANCH   1  13
BRANCH   9  14
ATOM     14  O   UNL     1       5.334   3.552  19.568  0.00  0.00    +0.000 OA
BRANCH  14  15
ATOM     15  C   UNL     1       4.600   2.345  19.394  0.00  0.00    +0.000 C 
BRANCH  15  16
ATOM     16  C   UNL     1       3.135   2.552  19.651  0.00  0.00    +0.000 A 
ATOM     17  C   UNL     1       2.224   2.470  18.588  0.00  0.00    +0.000 A 
ATOM     18  C   UNL     1       0.862   2.624  18.821  0.00  0.00    +0.000 A 
ATOM     19  C   UNL     1       0.402   2.863  20.115  0.00  0.00    +0.000 A 
ATOM     20  C   UNL     1       1.303   2.937  21.178  0.00  0.00    +0.000 A 
ATOM     21  C   UNL     1       2.668   2.782  20.949  0.00  0.00    +0.000 A 
ENDBRANCH  15  16
ENDBRANCH  14  15
ENDBRANCH   9  14
TORSDOF 4
ENDMDL
MODEL 5
REMARK VINA RESULT:      -7.8      3.425      6.961
REMARK  Name = 
REMARK  6 active torsions:
REMARK  status: ('A' for Active; 'I' for Inactive)
REMARK    1  A    between atoms: C_1  and  O_2
REMARK    2  A    between atoms: O_2  and  C_3
REMARK    3  A    between atoms: C_8  and  C_9
REMARK    4  A    between atoms: C_11  and  O_12
REMARK    5  A    between atoms: O_12  and  C_13
REMARK    6  A    between atoms: C_13  and  C_14
REMARK                            x       y       z     vdW  Elec       q    Type
REMARK                         _______ _______ _______ _____ _____    ______ ____
ROOT
ATOM      1  C   UNL     1       2.026   8.554  18.506  0.00  0.00    +0.000 A 
ATOM      2  C   UNL     1       1.589   8.609  19.816  0.00  0.00    +0.000 A 
ATOM      3  C   UNL     1       1.597   7.439  20.584  0.00  0.00    +0.000 A 
ATOM      4  C   UNL     1       2.069   6.221  20.100  0.00  0.00    +0.000 A 
ATOM      5  N   UNL     1       2.029   5.161  20.924  0.00  0.00    +0.000 NA
ATOM      6  C   UNL     1       2.483   3.968  20.482  0.00  0.00    +0.000 A 
ATOM      7  C   UNL     1       2.383   2.807  21.427  0.00  0.00    +0.000 C 
ATOM      8  C   UNL     1       3.034   3.807  19.222  0.00  0.00    +0.000 A 
ATOM      9  C   UNL     1       3.108   4.909  18.369  0.00  0.00    +0.000 A 
ATOM     10  C   UNL     1       2.565   6.156  18.782  0.00  0.00    +0.000 A 
ATOM     11  C   UNL     1       2.462   7.337  18.003  0.00  0.00    +0.000 A 
ENDROOT
BRANCH   1  13
ATOM     12  C   UNL     1       1.977  10.894  18.104  0.00  0.00    +0.000 C 
ATOM     13  O   UNL     1       2.109   9.575  17.605  0.00  0.00    +0.000 OA
ENDBRANCH   1  13
BRANCH   9  14
ATOM     14  O   UNL     1       3.740   4.614  17.181  0.00  0.00    +0.000 OA
BRANCH  14  15
ATOM     15  C   UNL     1       5.075   4.124  17.256  0.00  0.00    +0.000 C 
BRANCH  15  16
ATOM     16  C   UNL     1       6.041   5.217  17.608  0.00  0.00    +0.000 A 
ATOM     17  C   UNL     1       6.932   5.040  18.676  0.00  0.00    +0.000 A 
ATOM     18  C   UNL     1       7.857   6.032  18.987  0.00  0.00    +0.000 A 
ATOM     19  C   UNL     1       7.895   7.205  18.236  0.00  0.00    +0.000 A 
ATOM     20  C   UNL     1       7.016   7.383  17.166  0.00  0.00    +0.000 A 
ATOM     21  C   UNL     1       6.090   6.392  16.851  0.00  0.00    +0.000 A 
ENDBRANCH  15  16
ENDBRANCH  14  15
ENDBRANCH   9  14
TORSDOF 4
ENDMDL
MODEL 6
REMARK VINA RESULT:      -7.6      3.240      5.837
REMARK  Name = 
REMARK  6 active torsions:
REMARK  status: ('A' for Active; 'I' for Inactive)
REMARK    1  A    between atoms: C_1  and  O_2
REMARK    2  A    between atoms: O_2  and  C_3
REMARK    3  A    between atoms: C_8  and  C_9
REMARK    4  A    between atoms: C_11  and  O_12
REMARK    5  A    between atoms: O_12  and  C_13
REMARK    6  A    between atoms: C_13  and  C_14
REMARK                            x       y       z     vdW  Elec       q    Type
REMARK                         _______ _______ _______ _____ _____    ______ ____
ROOT
ATOM      1  C   UNL     1       1.938   3.156  19.291  0.00  0.00    +0.000 A 
ATOM      2  C   UNL     1       2.466   2.070  18.620  0.00  0.00    +0.000 A 
ATOM      3  C   UNL     1       3.408   2.287  17.608  0.00  0.00    +0.000 A 
ATOM      4  C   UNL     1       3.875   3.556  17.272  0.00  0.00    +0.000 A 
ATOM      5  N   UNL     1       4.779   3.650  16.283  0.00  0.00    +0.000 NA
ATOM      6  C   UNL     1       5.252   4.867  15.939  0.00  0.00    +0.000 A 
ATOM      7  C   UNL     1       6.232   4.923  14.804  0.00  0.00    +0.000 C 
ATOM      8  C   UNL     1       4.873   6.023  16.600  0.00  0.00    +0.000 A 
ATOM      9  C   UNL     1       3.957   5.933  17.650  0.00  0.00    +0.000 A 
ATOM     10  C   UNL     1       3.386   4.673  17.979  0.00  0.00    +0.000 A 
ATOM     11  C   UNL     1       2.369   4.427  18.937  0.00  0.00    +0.000 A 
ENDROOT
BRANCH   1  13
ATOM     12  C   UNL     1       1.492   2.793  21.594  0.00  0.00    +0.000 C 
ATOM     13  O   UNL     1       1.028   3.155  20.307  0.00  0.00    +0.000 OA
ENDBRANCH   1  13
BRANCH   9  14
ATOM     14  O   UNL     1       3.728   7.149  18.255  0.00  0.00    +0.000 OA
BRANCH  14  15
ATOM     15  C   UNL     1       2.672   7.948  17.735  0.00  0.00    +0.000 C 
BRANCH  15  16
ATOM     16  C   UNL     1       1.792   8.476  18.831  0.00  0.00    +0.000 A 
ATOM     17  C   UNL     1       1.837   7.888  20.103  0.00  0.00    +0.000 A 
ATOM     18  C   UNL     1       1.054   8.393  21.135  0.00  0.00    +0.000 A 
ATOM     19  C   UNL     1       0.220   9.486  20.902  0.00  0.00    +0.000 A 
ATOM     20  C   UNL     1       0.178  10.081  19.640  0.00  0.00    +0.000 A 
ATOM     21  C   UNL     1       0.962   9.579  18.605  0.00  0.00    +0.000 A 
ENDBRANCH  15  16
ENDBRANCH  14  15
ENDBRANCH   9  14
TORSDOF 4
ENDMDL
MODEL 7
REMARK VINA RESULT:      -7.6      2.864      6.709
REMARK  Name = 
REMARK  6 active torsions:
REMARK  status: ('A' for Active; 'I' for Inactive)
REMARK    1  A    between atoms: C_1  and  O_2
REMARK    2  A    between atoms: O_2  and  C_3
REMARK    3  A    between atoms: C_8  and  C_9
REMARK    4  A    between atoms: C_11  and  O_12
REMARK    5  A    between atoms: O_12  and  C_13
REMARK    6  A    between atoms: C_13  and  C_14
REMARK                            x       y       z     vdW  Elec       q    Type
REMARK                         _______ _______ _______ _____ _____    ______ ____
ROOT
ATOM      1  C   UNL     1       2.239   7.389  19.262  0.00  0.00    +0.000 A 
ATOM      2  C   UNL     1       1.823   6.656  20.356  0.00  0.00    +0.000 A 
ATOM      3  C   UNL     1       2.046   5.274  20.373  0.00  0.00    +0.000 A 
ATOM      4  C   UNL     1       2.713   4.605  19.349  0.00  0.00    +0.000 A 
ATOM      5  N   UNL     1       2.872   3.276  19.468  0.00  0.00    +0.000 NA
ATOM      6  C   UNL     1       3.518   2.602  18.492  0.00  0.00    +0.000 A 
ATOM      7  C   UNL     1       3.636   1.115  18.653  0.00  0.00    +0.000 C 
ATOM      8  C   UNL     1       4.065   3.238  17.391  0.00  0.00    +0.000 A 
ATOM      9  C   UNL     1       3.934   4.623  17.274  0.00  0.00    +0.000 A 
ATOM     10  C   UNL     1       3.190   5.343  18.248  0.00  0.00    +0.000 A 
ATOM     11  C   UNL     1       2.871   6.725  18.219  0.00  0.00    +0.000 A 
ENDROOT
BRANCH   1  13
ATOM     12  C   UNL     1       1.534   9.163  17.849  0.00  0.00    +0.000 C 
ATOM     13  O   UNL     1       2.128   8.734  19.061  0.00  0.00    +0.000 OA
ENDBRANCH   1  13
BRANCH   9  14
ATOM     14  O   UNL     1       4.586   5.122  16.168  0.00  0.00    +0.000 OA
BRANCH  14  15
ATOM     15  C   UNL     1       5.974   4.834  16.044  0.00  0.00    +0.000 C 
BRANCH  15  16
ATOM     16  C   UNL     1       6.791   5.648  17.005  0.00  0.00    +0.000 A 
ATOM     17  C   UNL     1       6.990   7.015  16.764  0.00  0.00    +0.000 A 
ATOM     18  C   UNL     1       7.714   7.787  17.667  0.00  0.00    +0.000 A 
ATOM     19  C   UNL     1       8.245   7.198  18.813  0.00  0.00    +0.000 A 
ATOM     20  C   UNL     1       8.043   5.839  19.063  0.00  0.00    +0.000 A 
ATOM     21  C   UNL     1       7.318   5.064  18.162  0.00  0.00    +0.000 A 
ENDBRANCH  15  16
ENDBRANCH  14  15
ENDBRANCH   9  14
TORSDOF 4
ENDMDL
MODEL 8
REMARK VINA RESULT:      -7.5      2.813      6.580
REMARK  Name = 
REMARK  6 active torsions:
REMARK  status: ('A' for Active; 'I' for Inactive)
REMARK    1  A    between atoms: C_1  and  O_2
REMARK    2  A    between atoms: O_2  and  C_3
REMARK    3  A    between atoms: C_8  and  C_9
REMARK    4  A    between atoms: C_11  and  O_12
REMARK    5  A    between atoms: O_12  and  C_13
REMARK    6  A    between atoms: C_13  and  C_14
REMARK                            x       y       z     vdW  Elec       q    Type
REMARK                         _______ _______ _______ _____ _____    ______ ____
ROOT
ATOM      1  C   UNL     1       2.458   7.600  18.815  0.00  0.00    +0.000 A 
ATOM      2  C   UNL     1       2.000   6.973  19.959  0.00  0.00    +0.000 A 
ATOM      3  C   UNL     1       2.166   5.589  20.089  0.00  0.00    +0.000 A 
ATOM      4  C   UNL     1       2.817   4.814  19.131  0.00  0.00    +0.000 A 
ATOM      5  N   UNL     1       2.918   3.494  19.357  0.00  0.00    +0.000 NA
ATOM      6  C   UNL     1       3.547   2.719  18.447  0.00  0.00    +0.000 A 
ATOM      7  C   UNL     1       3.602   1.246  18.727  0.00  0.00    +0.000 C 
ATOM      8  C   UNL     1       4.132   3.242  17.307  0.00  0.00    +0.000 A 
ATOM      9  C   UNL     1       4.058   4.617  17.078  0.00  0.00    +0.000 A 
ATOM     10  C   UNL     1       3.335   5.443  17.981  0.00  0.00    +0.000 A 
ATOM     11  C   UNL     1       3.073   6.830  17.838  0.00  0.00    +0.000 A 
ENDROOT
BRANCH   1  13
ATOM     12  C   UNL     1       1.197   9.418  17.954  0.00  0.00    +0.000 C 
ATOM     13  O   UNL     1       2.405   8.927  18.507  0.00  0.00    +0.000 OA
ENDBRANCH   1  13
BRANCH   9  14
ATOM     14  O   UNL     1       4.743   5.000  15.945  0.00  0.00    +0.000 OA
BRANCH  14  15
ATOM     15  C   UNL     1       6.148   4.775  15.925  0.00  0.00    +0.000 C 
BRANCH  15  16
ATOM     16  C   UNL     1       6.853   5.617  16.949  0.00  0.00    +0.000 A 
ATOM     17  C   UNL     1       7.370   5.018  18.105  0.00  0.00    +0.000 A 
ATOM     18  C   UNL     1       8.057   5.783  19.043  0.00  0.00    +0.000 A 
ATOM     19  C   UNL     1       8.228   7.149  18.831  0.00  0.00    +0.000 A 
ATOM     20  C   UNL     1       7.722   7.751  17.677  0.00  0.00    +0.000 A 
ATOM     21  C   UNL     1       7.036   6.988  16.736  0.00  0.00    +0.000 A 
ENDBRANCH  15  16
ENDBRANCH  14  15
ENDBRANCH   9  14
TORSDOF 4
ENDMDL
MODEL 9
REMARK VINA RESULT:      -7.5      3.265      6.770
REMARK  Name = 
REMARK  6 active torsions:
REMARK  status: ('A' for Active; 'I' for Inactive)
REMARK    1  A    between atoms: C_1  and  O_2
REMARK    2  A    between atoms: O_2  and  C_3
REMARK    3  A    between atoms: C_8  and  C_9
REMARK    4  A    between atoms: C_11  and  O_12
REMARK    5  A    between atoms: O_12  and  C_13
REMARK    6  A    between atoms: C_13  and  C_14
REMARK                            x       y       z     vdW  Elec       q    Type
REMARK                         _______ _______ _______ _____ _____    ______ ____
ROOT
ATOM      1  C   UNL     1       2.213   8.095  18.519  0.00  0.00    +0.000 A 
ATOM      2  C   UNL     1       1.893   8.254  19.853  0.00  0.00    +0.000 A 
ATOM      3  C   UNL     1       1.757   7.118  20.660  0.00  0.00    +0.000 A 
ATOM      4  C   UNL     1       1.977   5.826  20.187  0.00  0.00    +0.000 A 
ATOM      5  N   UNL     1       1.817   4.808  21.048  0.00  0.00    +0.000 NA
ATOM      6  C   UNL     1       2.026   3.545  20.618  0.00  0.00    +0.000 A 
ATOM      7  C   UNL     1       1.800   2.441  21.607  0.00  0.00    +0.000 C 
ATOM      8  C   UNL     1       2.444   3.262  19.329  0.00  0.00    +0.000 A 
ATOM      9  C   UNL     1       2.642   4.316  18.434  0.00  0.00    +0.000 A 
ATOM     10  C   UNL     1       2.353   5.647  18.840  0.00  0.00    +0.000 A 
ATOM     11  C   UNL     1       2.396   6.809  18.029  0.00  0.00    +0.000 A 
ENDROOT
BRANCH   1  13
ATOM     12  C   UNL     1       1.990  10.380  17.910  0.00  0.00    +0.000 C 
ATOM     13  O   UNL     1       2.402   9.066  17.579  0.00  0.00    +0.000 OA
ENDBRANCH   1  13
BRANCH   9  14
ATOM     14  O   UNL     1       3.122   3.889  17.215  0.00  0.00    +0.000 OA
BRANCH  14  15
ATOM     15  C   UNL     1       4.466   3.419  17.172  0.00  0.00    +0.000 C 
BRANCH  15  16
ATOM     16  C   UNL     1       5.444   4.537  17.390  0.00  0.00    +0.000 A 
ATOM     17  C   UNL     1       5.592   5.532  16.414  0.00  0.00    +0.000 A 
ATOM     18  C   UNL     1       6.469   6.592  16.622  0.00  0.00    +0.000 A 
ATOM     19  C   UNL     1       7.204   6.661  17.804  0.00  0.00    +0.000 A 
ATOM     20  C   UNL     1       7.055   5.678  18.783  0.00  0.00    +0.000 A 
ATOM     21  C   UNL     1       6.177   4.617  18.579  0.00  0.00    +0.000 A 
ENDBRANCH  15  16
ENDBRANCH  14  15
ENDBRANCH   9  14
TORSDOF 4
ENDMDL
