MODEL 1
REMARK VINA RESULT:      -6.7      0.000      0.000
REMARK  Name = 
REMARK  10 active torsions:
REMARK  status: ('A' for Active; 'I' for Inactive)
REMARK    1  A    between atoms: C_1  and  C_2
REMARK    2  A    between atoms: C_2  and  C_3
REMARK    3  A    between atoms: C_2  and  N_7
REMARK    4  A    between atoms: C_2  and  C_24
REMARK    5  A    between atoms: C_3  and  C_4
REMARK    6  A    between atoms: C_8  and  C_10
REMARK    7  A    between atoms: C_12  and  O_13
REMARK    8  A    between atoms: O_13  and  C_14
REMARK    9  A    between atoms: C_14  and  C_15
REMARK   10  A    between atoms: C_18  and  C_19
REMARK                            x       y       z     vdW  Elec       q    Type
REMARK                         _______ _______ _______ _____ _____    ______ ____
ROOT
ATOM      1  N   UNL     1       0.970   9.507  19.590  0.00  0.00    +0.000 N 
ATOM      2  C   UNL     1       1.777   9.289  18.497  0.00  0.00    +0.000 C 
ATOM      3  O   UNL     1       1.945  10.094  17.585  0.00  0.00    +0.000 OA
ATOM      4  H   UNL     1       1.078   8.831  20.345  0.00  0.00    +0.000 HD
ENDROOT
BRANCH   2   5
ATOM      5  C   UNL     1       2.474   7.962  18.479  0.00  0.00    +0.000 A 
ATOM      6  C   UNL     1       2.203   7.050  19.486  0.00  0.00    +0.000 A 
ATOM      7  C   UNL     1       2.868   5.824  19.476  0.00  0.00    +0.000 A 
ATOM      8  C   UNL     1       3.800   5.535  18.459  0.00  0.00    +0.000 A 
ATOM      9  C   UNL     1       3.979   6.534  17.494  0.00  0.00    +0.000 A 
ATOM     10  N   UNL     1       3.352   7.736  17.472  0.00  0.00    +0.000 NA
BRANCH   8  11
ATOM     11  C   UNL     1       4.534   4.212  18.342  0.00  0.00    +0.000 C 
ATOM     12  C   UNL     1       3.948   3.084  17.521  0.00  0.00    +0.000 C 
ATOM     13  C   UNL     1       5.177   3.790  17.041  0.00  0.00    +0.000 C 
ENDBRANCH   8  11
BRANCH   7  14
ATOM     14  O   UNL     1       2.673   4.842  20.420  0.00  0.00    +0.000 OA
BRANCH  14  15
ATOM     15  C   UNL     1       1.320   4.445  20.677  0.00  0.00    +0.000 C 
BRANCH  15  16
ATOM     16  C   UNL     1       1.030   3.114  20.005  0.00  0.00    +0.000 C 
ATOM     17  F   UNL     1       0.872   3.310  18.670  0.00  0.00    +0.000 F 
ATOM     18  F   UNL     1       2.090   2.278  20.145  0.00  0.00    +0.000 F 
ENDBRANCH  15  16
ENDBRANCH  14  15
ENDBRANCH   7  14
ENDBRANCH   2   5
BRANCH   1  20
ATOM     19  C   UNL     1      -0.925  10.853  18.818  0.00  0.00    +0.000 C 
ATOM     20  C   UNL     1       0.217  10.739  19.851  0.00  0.00    +0.000 C 
BRANCH  20  21
ATOM     21  C   UNL     1       1.206  11.912  19.704  0.00  0.00    +0.000 C 
ATOM     22  C   UNL     1       0.722  13.290  19.295  0.00  0.00    +0.000 C 
ATOM     23  C   UNL     1       1.316  13.085  20.658  0.00  0.00    +0.000 C 
ENDBRANCH  20  21
BRANCH  20  24
ATOM     24  C   UNL     1      -0.375  10.764  21.287  0.00  0.00    +0.000 C 
BRANCH  24  25
ATOM     25  C   UNL     1       0.287   9.829  22.282  0.00  0.00    +0.000 C 
ATOM     26  N   UNL     1      -0.591   9.141  23.075  0.00  0.00    +0.000 N 
ATOM     27  O   UNL     1       1.491   9.647  22.410  0.00  0.00    +0.000 OA
ATOM     28  H   UNL     1      -1.544   9.450  23.201  0.00  0.00    +0.000 HD
ATOM     29  H   UNL     1      -0.179   8.572  23.805  0.00  0.00    +0.000 HD
ENDBRANCH  24  25
ENDBRANCH  20  24
ENDBRANCH   1  20
TORSDOF 9
ENDMDL
MODEL 2
REMARK VINA RESULT:      -6.6      1.653      2.607
REMARK  Name = 
REMARK  10 active torsions:
REMARK  status: ('A' for Active; 'I' for Inactive)
REMARK    1  A    between atoms: C_1  and  C_2
REMARK    2  A    between atoms: C_2  and  C_3
REMARK    3  A    between atoms: C_2  and  N_7
REMARK    4  A    between atoms: C_2  and  C_24
REMARK    5  A    between atoms: C_3  and  C_4
REMARK    6  A    between atoms: C_8  and  C_10
REMARK    7  A    between atoms: C_12  and  O_13
REMARK    8  A    between atoms: O_13  and  C_14
REMARK    9  A    between atoms: C_14  and  C_15
REMARK   10  A    between atoms: C_18  and  C_19
REMARK                            x       y       z     vdW  Elec       q    Type
REMARK                         _______ _______ _______ _____ _____    ______ ____
ROOT
ATOM      1  N   UNL     1       1.141   8.987  19.381  0.00  0.00    +0.000 N 
ATOM      2  C   UNL     1       1.898   8.973  18.232  0.00  0.00    +0.000 C 
ATOM      3  O   UNL     1       1.905   9.869  17.392  0.00  0.00    +0.000 OA
ATOM      4  H   UNL     1       1.381   8.269  20.062  0.00  0.00    +0.000 HD
ENDROOT
BRANCH   2   5
ATOM      5  C   UNL     1       2.754   7.756  18.053  0.00  0.00    +0.000 A 
ATOM      6  C   UNL     1       2.349   6.562  18.627  0.00  0.00    +0.000 A 
ATOM      7  C   UNL     1       3.158   5.437  18.474  0.00  0.00    +0.000 A 
ATOM      8  C   UNL     1       4.367   5.528  17.753  0.00  0.00    +0.000 A 
ATOM      9  C   UNL     1       4.660   6.787  17.214  0.00  0.00    +0.000 A 
ATOM     10  N   UNL     1       3.899   7.902  17.342  0.00  0.00    +0.000 NA
BRANCH   8  11
ATOM     11  C   UNL     1       5.285   4.349  17.497  0.00  0.00    +0.000 C 
ATOM     12  C   UNL     1       5.398   3.757  16.108  0.00  0.00    +0.000 C 
ATOM     13  C   UNL     1       6.554   4.509  16.692  0.00  0.00    +0.000 C 
ENDBRANCH   8  11
BRANCH   7  14
ATOM     14  O   UNL     1       2.853   4.200  18.994  0.00  0.00    +0.000 OA
BRANCH  14  15
ATOM     15  C   UNL     1       2.199   4.174  20.269  0.00  0.00    +0.000 C 
BRANCH  15  16
ATOM     16  C   UNL     1       1.448   2.865  20.445  0.00  0.00    +0.000 C 
ATOM     17  F   UNL     1       0.990   2.778  21.720  0.00  0.00    +0.000 F 
ATOM     18  F   UNL     1       0.353   2.845  19.643  0.00  0.00    +0.000 F 
ENDBRANCH  15  16
ENDBRANCH  14  15
ENDBRANCH   7  14
ENDBRANCH   2   5
BRANCH   1  20
ATOM     19  C   UNL     1       1.092  11.373  19.934  0.00  0.00    +0.000 C 
ATOM     20  C   UNL     1       0.256  10.082  19.795  0.00  0.00    +0.000 C 
BRANCH  20  21
ATOM     21  C   UNL     1      -0.355   9.680  21.152  0.00  0.00    +0.000 C 
ATOM     22  C   UNL     1       0.531   9.391  22.349  0.00  0.00    +0.000 C 
ATOM     23  C   UNL     1      -0.404  10.565  22.382  0.00  0.00    +0.000 C 
ENDBRANCH  20  21
BRANCH  20  24
ATOM     24  C   UNL     1      -0.896  10.314  18.780  0.00  0.00    +0.000 C 
BRANCH  24  25
ATOM     25  C   UNL     1      -1.488  11.711  18.771  0.00  0.00    +0.000 C 
ATOM     26  N   UNL     1      -1.278  12.402  17.609  0.00  0.00    +0.000 N 
ATOM     27  O   UNL     1      -2.120  12.232  19.681  0.00  0.00    +0.000 OA
ATOM     28  H   UNL     1      -0.551  12.138  16.959  0.00  0.00    +0.000 HD
ATOM     29  H   UNL     1      -1.589  13.366  17.602  0.00  0.00    +0.000 HD
ENDBRANCH  24  25
ENDBRANCH  20  24
ENDBRANCH   1  20
TORSDOF 9
ENDMDL
MODEL 3
REMARK VINA RESULT:      -6.5      3.019      7.250
REMARK  Name = 
REMARK  10 active torsions:
REMARK  status: ('A' for Active; 'I' for Inactive)
REMARK    1  A    between atoms: C_1  and  C_2
REMARK    2  A    between atoms: C_2  and  C_3
REMARK    3  A    between atoms: C_2  and  N_7
REMARK    4  A    between atoms: C_2  and  C_24
REMARK    5  A    between atoms: C_3  and  C_4
REMARK    6  A    between atoms: C_8  and  C_10
REMARK    7  A    between atoms: C_12  and  O_13
REMARK    8  A    between atoms: O_13  and  C_14
REMARK    9  A    between atoms: C_14  and  C_15
REMARK   10  A    between atoms: C_18  and  C_19
REMARK                            x       y       z     vdW  Elec       q    Type
REMARK                         _______ _______ _______ _____ _____    ______ ____
ROOT
ATOM      1  N   UNL     1       3.895   5.758  18.489  0.00  0.00    +0.000 N 
ATOM      2  C   UNL     1       3.681   6.857  17.688  0.00  0.00    +0.000 C 
ATOM      3  O   UNL     1       4.235   7.048  16.608  0.00  0.00    +0.000 OA
ATOM      4  H   UNL     1       3.231   5.650  19.254  0.00  0.00    +0.000 HD
ENDROOT
BRANCH   2   5
ATOM      5  C   UNL     1       2.690   7.846  18.221  0.00  0.00    +0.000 A 
ATOM      6  C   UNL     1       2.131   7.628  19.470  0.00  0.00    +0.000 A 
ATOM      7  C   UNL     1       1.196   8.542  19.954  0.00  0.00    +0.000 A 
ATOM      8  C   UNL     1       0.830   9.658  19.175  0.00  0.00    +0.000 A 
ATOM      9  C   UNL     1       1.472   9.772  17.935  0.00  0.00    +0.000 A 
ATOM     10  N   UNL     1       2.384   8.905  17.432  0.00  0.00    +0.000 NA
BRANCH   8  11
ATOM     11  C   UNL     1      -0.142  10.726  19.639  0.00  0.00    +0.000 C 
ATOM     12  C   UNL     1       0.369  12.070  20.110  0.00  0.00    +0.000 C 
ATOM     13  C   UNL     1      -0.381  11.972  18.819  0.00  0.00    +0.000 C 
ENDBRANCH   8  11
BRANCH   7  14
ATOM     14  O   UNL     1       0.583   8.428  21.180  0.00  0.00    +0.000 OA
BRANCH  14  15
ATOM     15  C   UNL     1       1.161   9.160  22.268  0.00  0.00    +0.000 C 
BRANCH  15  16
ATOM     16  C   UNL     1       0.083   9.559  23.262  0.00  0.00    +0.000 C 
ATOM     17  F   UNL     1      -0.277  10.850  23.040  0.00  0.00    +0.000 F 
ATOM     18  F   UNL     1      -1.033   8.812  23.065  0.00  0.00    +0.000 F 
ENDBRANCH  15  16
ENDBRANCH  14  15
ENDBRANCH   7  14
ENDBRANCH   2   5
BRANCH   1  20
ATOM     19  C   UNL     1       5.059   3.832  19.454  0.00  0.00    +0.000 C 
ATOM     20  C   UNL     1       4.786   4.638  18.166  0.00  0.00    +0.000 C 
BRANCH  20  21
ATOM     21  C   UNL     1       6.091   5.244  17.615  0.00  0.00    +0.000 C 
ATOM     22  C   UNL     1       7.291   5.458  18.518  0.00  0.00    +0.000 C 
ATOM     23  C   UNL     1       7.378   4.477  17.384  0.00  0.00    +0.000 C 
ENDBRANCH  20  21
BRANCH  20  24
ATOM     24  C   UNL     1       4.175   3.704  17.086  0.00  0.00    +0.000 C 
BRANCH  24  25
ATOM     25  C   UNL     1       2.772   3.201  17.375  0.00  0.00    +0.000 C 
ATOM     26  N   UNL     1       2.716   1.888  17.758  0.00  0.00    +0.000 N 
ATOM     27  O   UNL     1       1.742   3.859  17.307  0.00  0.00    +0.000 OA
ATOM     28  H   UNL     1       3.472   1.247  17.567  0.00  0.00    +0.000 HD
ATOM     29  H   UNL     1       1.788   1.500  17.879  0.00  0.00    +0.000 HD
ENDBRANCH  24  25
ENDBRANCH  20  24
ENDBRANCH   1  20
TORSDOF 9
ENDMDL
MODEL 4
REMARK VINA RESULT:      -6.4      1.790      2.762
REMARK  Name = 
REMARK  10 active torsions:
REMARK  status: ('A' for Active; 'I' for Inactive)
REMARK    1  A    between atoms: C_1  and  C_2
REMARK    2  A    between atoms: C_2  and  C_3
REMARK    3  A    between atoms: C_2  and  N_7
REMARK    4  A    between atoms: C_2  and  C_24
REMARK    5  A    between atoms: C_3  and  C_4
REMARK    6  A    between atoms: C_8  and  C_10
REMARK    7  A    between atoms: C_12  and  O_13
REMARK    8  A    between atoms: O_13  and  C_14
REMARK    9  A    between atoms: C_14  and  C_15
REMARK   10  A    between atoms: C_18  and  C_19
REMARK                            x       y       z     vdW  Elec       q    Type
REMARK                         _______ _______ _______ _____ _____    ______ ____
ROOT
ATOM      1  N   UNL     1       1.169   9.036  19.307  0.00  0.00    +0.000 N 
ATOM      2  C   UNL     1       1.924   9.005  18.156  0.00  0.00    +0.000 C 
ATOM      3  O   UNL     1       1.966   9.911  17.328  0.00  0.00    +0.000 OA
ATOM      4  H   UNL     1       1.381   8.300  19.978  0.00  0.00    +0.000 HD
ENDROOT
BRANCH   2   5
ATOM      5  C   UNL     1       2.729   7.757  17.960  0.00  0.00    +0.000 A 
ATOM      6  C   UNL     1       2.170   6.537  18.311  0.00  0.00    +0.000 A 
ATOM      7  C   UNL     1       2.930   5.380  18.144  0.00  0.00    +0.000 A 
ATOM      8  C   UNL     1       4.242   5.463  17.635  0.00  0.00    +0.000 A 
ATOM      9  C   UNL     1       4.688   6.751  17.309  0.00  0.00    +0.000 A 
ATOM     10  N   UNL     1       3.980   7.897  17.458  0.00  0.00    +0.000 NA
BRANCH   8  11
ATOM     11  C   UNL     1       5.122   4.256  17.377  0.00  0.00    +0.000 C 
ATOM     12  C   UNL     1       5.449   3.838  15.960  0.00  0.00    +0.000 C 
ATOM     13  C   UNL     1       6.522   4.414  16.830  0.00  0.00    +0.000 C 
ENDBRANCH   8  11
BRANCH   7  14
ATOM     14  O   UNL     1       2.476   4.119  18.452  0.00  0.00    +0.000 OA
BRANCH  14  15
ATOM     15  C   UNL     1       1.475   4.018  19.473  0.00  0.00    +0.000 C 
BRANCH  15  16
ATOM     16  C   UNL     1       2.122   3.707  20.811  0.00  0.00    +0.000 C 
ATOM     17  F   UNL     1       3.351   3.167  20.602  0.00  0.00    +0.000 F 
ATOM     18  F   UNL     1       2.323   4.853  21.510  0.00  0.00    +0.000 F 
ENDBRANCH  15  16
ENDBRANCH  14  15
ENDBRANCH   7  14
ENDBRANCH   2   5
BRANCH   1  20
ATOM     19  C   UNL     1       1.190  11.444  19.753  0.00  0.00    +0.000 C 
ATOM     20  C   UNL     1       0.331  10.161  19.737  0.00  0.00    +0.000 C 
BRANCH  20  21
ATOM     21  C   UNL     1      -0.178   9.829  21.154  0.00  0.00    +0.000 C 
ATOM     22  C   UNL     1      -0.295   8.391  21.621  0.00  0.00    +0.000 C 
ATOM     23  C   UNL     1       0.682   9.313  22.291  0.00  0.00    +0.000 C 
ENDBRANCH  20  21
BRANCH  20  24
ATOM     24  C   UNL     1      -0.892  10.364  18.803  0.00  0.00    +0.000 C 
BRANCH  24  25
ATOM     25  C   UNL     1      -1.469  11.768  18.778  0.00  0.00    +0.000 C 
ATOM     26  N   UNL     1      -1.305  12.420  17.586  0.00  0.00    +0.000 N 
ATOM     27  O   UNL     1      -2.053  12.324  19.698  0.00  0.00    +0.000 OA
ATOM     28  H   UNL     1      -0.611  12.127  16.912  0.00  0.00    +0.000 HD
ATOM     29  H   UNL     1      -1.605  13.387  17.563  0.00  0.00    +0.000 HD
ENDBRANCH  24  25
ENDBRANCH  20  24
ENDBRANCH   1  20
TORSDOF 9
ENDMDL
MODEL 5
REMARK VINA RESULT:      -6.4      2.844      4.038
REMARK  Name = 
REMARK  10 active torsions:
REMARK  status: ('A' for Active; 'I' for Inactive)
REMARK    1  A    between atoms: C_1  and  C_2
REMARK    2  A    between atoms: C_2  and  C_3
REMARK    3  A    between atoms: C_2  and  N_7
REMARK    4  A    between atoms: C_2  and  C_24
REMARK    5  A    between atoms: C_3  and  C_4
REMARK    6  A    between atoms: C_8  and  C_10
REMARK    7  A    between atoms: C_12  and  O_13
REMARK    8  A    between atoms: O_13  and  C_14
REMARK    9  A    between atoms: C_14  and  C_15
REMARK   10  A    between atoms: C_18  and  C_19
REMARK                            x       y       z     vdW  Elec       q    Type
REMARK                         _______ _______ _______ _____ _____    ______ ____
ROOT
ATOM      1  N   UNL     1       1.150   9.007  19.327  0.00  0.00    +0.000 N 
ATOM      2  C   UNL     1       1.947   8.802  18.225  0.00  0.00    +0.000 C 
ATOM      3  O   UNL     1       2.119   9.624  17.328  0.00  0.00    +0.000 OA
ATOM      4  H   UNL     1       1.255   8.315  20.067  0.00  0.00    +0.000 HD
ENDROOT
BRANCH   2   5
ATOM      5  C   UNL     1       2.628   7.468  18.174  0.00  0.00    +0.000 A 
ATOM      6  C   UNL     1       3.821   7.350  17.479  0.00  0.00    +0.000 A 
ATOM      7  C   UNL     1       4.441   6.103  17.420  0.00  0.00    +0.000 A 
ATOM      8  C   UNL     1       3.850   4.989  18.052  0.00  0.00    +0.000 A 
ATOM      9  C   UNL     1       2.650   5.239  18.729  0.00  0.00    +0.000 A 
ATOM     10  N   UNL     1       2.019   6.436  18.809  0.00  0.00    +0.000 NA
BRANCH   8  11
ATOM     11  C   UNL     1       4.476   3.608  18.078  0.00  0.00    +0.000 C 
ATOM     12  C   UNL     1       4.543   2.825  19.371  0.00  0.00    +0.000 C 
ATOM     13  C   UNL     1       3.628   2.372  18.276  0.00  0.00    +0.000 C 
ENDBRANCH   8  11
BRANCH   7  14
ATOM     14  O   UNL     1       5.628   5.872  16.764  0.00  0.00    +0.000 OA
BRANCH  14  15
ATOM     15  C   UNL     1       6.768   6.625  17.196  0.00  0.00    +0.000 C 
BRANCH  15  16
ATOM     16  C   UNL     1       7.388   5.981  18.423  0.00  0.00    +0.000 C 
ATOM     17  F   UNL     1       7.969   4.806  18.068  0.00  0.00    +0.000 F 
ATOM     18  F   UNL     1       8.382   6.766  18.911  0.00  0.00    +0.000 F 
ENDBRANCH  15  16
ENDBRANCH  14  15
ENDBRANCH   7  14
ENDBRANCH   2   5
BRANCH   1  20
ATOM     19  C   UNL     1       1.370  11.443  19.448  0.00  0.00    +0.000 C 
ATOM     20  C   UNL     1       0.414  10.243  19.619  0.00  0.00    +0.000 C 
BRANCH  20  21
ATOM     21  C   UNL     1      -0.079  10.141  21.076  0.00  0.00    +0.000 C 
ATOM     22  C   UNL     1      -0.424   8.797  21.689  0.00  0.00    +0.000 C 
ATOM     23  C   UNL     1       0.729   9.590  22.233  0.00  0.00    +0.000 C 
ENDBRANCH  20  21
BRANCH  20  24
ATOM     24  C   UNL     1      -0.816  10.419  18.688  0.00  0.00    +0.000 C 
BRANCH  24  25
ATOM     25  C   UNL     1      -1.412  11.814  18.650  0.00  0.00    +0.000 C 
ATOM     26  N   UNL     1      -1.306  12.436  17.436  0.00  0.00    +0.000 N 
ATOM     27  O   UNL     1      -1.966  12.388  19.580  0.00  0.00    +0.000 OA
ATOM     28  H   UNL     1      -0.636  12.134  16.742  0.00  0.00    +0.000 HD
ATOM     29  H   UNL     1      -1.619  13.399  17.400  0.00  0.00    +0.000 HD
ENDBRANCH  24  25
ENDBRANCH  20  24
ENDBRANCH   1  20
TORSDOF 9
ENDMDL
MODEL 6
REMARK VINA RESULT:      -6.3      1.329      2.331
REMARK  Name = 
REMARK  10 active torsions:
REMARK  status: ('A' for Active; 'I' for Inactive)
REMARK    1  A    between atoms: C_1  and  C_2
REMARK    2  A    between atoms: C_2  and  C_3
REMARK    3  A    between atoms: C_2  and  N_7
REMARK    4  A    between atoms: C_2  and  C_24
REMARK    5  A    between atoms: C_3  and  C_4
REMARK    6  A    between atoms: C_8  and  C_10
REMARK    7  A    between atoms: C_12  and  O_13
REMARK    8  A    between atoms: O_13  and  C_14
REMARK    9  A    between atoms: C_14  and  C_15
REMARK   10  A    between atoms: C_18  and  C_19
REMARK                            x       y       z     vdW  Elec       q    Type
REMARK                         _______ _______ _______ _____ _____    ______ ____
ROOT
ATOM      1  N   UNL     1       1.006   9.702  19.589  0.00  0.00    +0.000 N 
ATOM      2  C   UNL     1       1.848   9.504  18.518  0.00  0.00    +0.000 C 
ATOM      3  O   UNL     1       2.098  10.351  17.664  0.00  0.00    +0.000 OA
ATOM      4  H   UNL     1       1.045   8.978  20.304  0.00  0.00    +0.000 HD
ENDROOT
BRANCH   2   5
ATOM      5  C   UNL     1       2.473   8.144  18.446  0.00  0.00    +0.000 A 
ATOM      6  C   UNL     1       2.212   7.233  19.458  0.00  0.00    +0.000 A 
ATOM      7  C   UNL     1       2.810   5.975  19.397  0.00  0.00    +0.000 A 
ATOM      8  C   UNL     1       3.668   5.652  18.325  0.00  0.00    +0.000 A 
ATOM      9  C   UNL     1       3.843   6.654  17.363  0.00  0.00    +0.000 A 
ATOM     10  N   UNL     1       3.280   7.887  17.388  0.00  0.00    +0.000 NA
BRANCH   8  11
ATOM     11  C   UNL     1       4.324   4.296  18.153  0.00  0.00    +0.000 C 
ATOM     12  C   UNL     1       3.645   3.217  17.337  0.00  0.00    +0.000 C 
ATOM     13  C   UNL     1       4.890   3.867  16.819  0.00  0.00    +0.000 C 
ENDBRANCH   8  11
BRANCH   7  14
ATOM     14  O   UNL     1       2.618   4.992  20.340  0.00  0.00    +0.000 OA
BRANCH  14  15
ATOM     15  C   UNL     1       1.267   4.601  20.607  0.00  0.00    +0.000 C 
BRANCH  15  16
ATOM     16  C   UNL     1       1.016   3.196  20.087  0.00  0.00    +0.000 C 
ATOM     17  F   UNL     1       0.747   3.251  18.757  0.00  0.00    +0.000 F 
ATOM     18  F   UNL     1       2.138   2.443  20.219  0.00  0.00    +0.000 F 
ENDBRANCH  15  16
ENDBRANCH  14  15
ENDBRANCH   7  14
ENDBRANCH   2   5
BRANCH   1  20
ATOM     19  C   UNL     1       1.340  11.985  20.409  0.00  0.00    +0.000 C 
ATOM     20  C   UNL     1       0.310  10.957  19.894  0.00  0.00    +0.000 C 
BRANCH  20  21
ATOM     21  C   UNL     1      -0.735  10.640  20.983  0.00  0.00    +0.000 C 
ATOM     22  C   UNL     1      -0.315  10.045  22.313  0.00  0.00    +0.000 C 
ATOM     23  C   UNL     1      -0.917  11.420  22.270  0.00  0.00    +0.000 C 
ENDBRANCH  20  21
BRANCH  20  24
ATOM     24  C   UNL     1      -0.424  11.531  18.652  0.00  0.00    +0.000 C 
BRANCH  24  25
ATOM     25  C   UNL     1      -1.611  10.720  18.162  0.00  0.00    +0.000 C 
ATOM     26  N   UNL     1      -2.820  11.336  18.336  0.00  0.00    +0.000 N 
ATOM     27  O   UNL     1      -1.562   9.615  17.637  0.00  0.00    +0.000 OA
ATOM     28  H   UNL     1      -2.939  12.094  18.993  0.00  0.00    +0.000 HD
ATOM     29  H   UNL     1      -3.637  10.788  18.096  0.00  0.00    +0.000 HD
ENDBRANCH  24  25
ENDBRANCH  20  24
ENDBRANCH   1  20
TORSDOF 9
ENDMDL
MODEL 7
REMARK VINA RESULT:      -6.3      2.981      7.270
REMARK  Name = 
REMARK  10 active torsions:
REMARK  status: ('A' for Active; 'I' for Inactive)
REMARK    1  A    between atoms: C_1  and  C_2
REMARK    2  A    between atoms: C_2  and  C_3
REMARK    3  A    between atoms: C_2  and  N_7
REMARK    4  A    between atoms: C_2  and  C_24
REMARK    5  A    between atoms: C_3  and  C_4
REMARK    6  A    between atoms: C_8  and  C_10
REMARK    7  A    between atoms: C_12  and  O_13
REMARK    8  A    between atoms: O_13  and  C_14
REMARK    9  A    between atoms: C_14  and  C_15
REMARK   10  A    between atoms: C_18  and  C_19
REMARK                            x       y       z     vdW  Elec       q    Type
REMARK                         _______ _______ _______ _____ _____    ______ ____
ROOT
ATOM      1  N   UNL     1       3.937   5.662  18.117  0.00  0.00    +0.000 N 
ATOM      2  C   UNL     1       3.994   6.978  17.718  0.00  0.00    +0.000 C 
ATOM      3  O   UNL     1       4.883   7.453  17.016  0.00  0.00    +0.000 OA
ATOM      4  H   UNL     1       3.052   5.379  18.535  0.00  0.00    +0.000 HD
ENDROOT
BRANCH   2   5
ATOM      5  C   UNL     1       2.866   7.836  18.202  0.00  0.00    +0.000 A 
ATOM      6  C   UNL     1       2.351   7.614  19.469  0.00  0.00    +0.000 A 
ATOM      7  C   UNL     1       1.288   8.403  19.908  0.00  0.00    +0.000 A 
ATOM      8  C   UNL     1       0.752   9.398  19.066  0.00  0.00    +0.000 A 
ATOM      9  C   UNL     1       1.365   9.531  17.813  0.00  0.00    +0.000 A 
ATOM     10  N   UNL     1       2.398   8.783  17.352  0.00  0.00    +0.000 NA
BRANCH   8  11
ATOM     11  C   UNL     1      -0.370  10.332  19.476  0.00  0.00    +0.000 C 
ATOM     12  C   UNL     1      -0.088  11.796  19.737  0.00  0.00    +0.000 C 
ATOM     13  C   UNL     1      -0.883  11.396  18.533  0.00  0.00    +0.000 C 
ENDBRANCH   8  11
BRANCH   7  14
ATOM     14  O   UNL     1       0.704   8.275  21.147  0.00  0.00    +0.000 OA
BRANCH  14  15
ATOM     15  C   UNL     1       1.265   9.047  22.215  0.00  0.00    +0.000 C 
BRANCH  15  16
ATOM     16  C   UNL     1       0.172   9.488  23.173  0.00  0.00    +0.000 C 
ATOM     17  F   UNL     1      -0.156  10.781  22.917  0.00  0.00    +0.000 F 
ATOM     18  F   UNL     1      -0.955   8.760  22.962  0.00  0.00    +0.000 F 
ENDBRANCH  15  16
ENDBRANCH  14  15
ENDBRANCH   7  14
ENDBRANCH   2   5
BRANCH   1  20
ATOM     19  C   UNL     1       6.194   4.822  18.563  0.00  0.00    +0.000 C 
ATOM     20  C   UNL     1       4.902   4.622  17.741  0.00  0.00    +0.000 C 
BRANCH  20  21
ATOM     21  C   UNL     1       5.182   4.790  16.235  0.00  0.00    +0.000 C 
ATOM     22  C   UNL     1       6.604   4.891  15.714  0.00  0.00    +0.000 C 
ATOM     23  C   UNL     1       5.752   3.716  15.329  0.00  0.00    +0.000 C 
ENDBRANCH  20  21
BRANCH  20  24
ATOM     24  C   UNL     1       4.343   3.195  17.987  0.00  0.00    +0.000 C 
BRANCH  24  25
ATOM     25  C   UNL     1       4.108   2.828  19.441  0.00  0.00    +0.000 C 
ATOM     26  N   UNL     1       4.921   1.830  19.906  0.00  0.00    +0.000 N 
ATOM     27  O   UNL     1       3.292   3.346  20.193  0.00  0.00    +0.000 OA
ATOM     28  H   UNL     1       5.398   1.199  19.278  0.00  0.00    +0.000 HD
ATOM     29  H   UNL     1       4.733   1.506  20.847  0.00  0.00    +0.000 HD
ENDBRANCH  24  25
ENDBRANCH  20  24
ENDBRANCH   1  20
TORSDOF 9
ENDMDL
MODEL 8
REMARK VINA RESULT:      -6.3      2.390      3.089
REMARK  Name = 
REMARK  10 active torsions:
REMARK  status: ('A' for Active; 'I' for Inactive)
REMARK    1  A    between atoms: C_1  and  C_2
REMARK    2  A    between atoms: C_2  and  C_3
REMARK    3  A    between atoms: C_2  and  N_7
REMARK    4  A    between atoms: C_2  and  C_24
REMARK    5  A    between atoms: C_3  and  C_4
REMARK    6  A    between atoms: C_8  and  C_10
REMARK    7  A    between atoms: C_12  and  O_13
REMARK    8  A    between atoms: O_13  and  C_14
REMARK    9  A    between atoms: C_14  and  C_15
REMARK   10  A    between atoms: C_18  and  C_19
REMARK                            x       y       z     vdW  Elec       q    Type
REMARK                         _______ _______ _______ _____ _____    ______ ____
ROOT
ATOM      1  N   UNL     1       1.033   9.223  19.562  0.00  0.00    +0.000 N 
ATOM      2  C   UNL     1       1.821   8.844  18.500  0.00  0.00    +0.000 C 
ATOM      3  O   UNL     1       2.002   9.522  17.491  0.00  0.00    +0.000 OA
ATOM      4  H   UNL     1       1.130   8.646  20.396  0.00  0.00    +0.000 HD
ENDROOT
BRANCH   2   5
ATOM      5  C   UNL     1       2.480   7.506  18.645  0.00  0.00    +0.000 A 
ATOM      6  C   UNL     1       3.200   6.994  17.578  0.00  0.00    +0.000 A 
ATOM      7  C   UNL     1       3.796   5.741  17.711  0.00  0.00    +0.000 A 
ATOM      8  C   UNL     1       3.653   5.015  18.911  0.00  0.00    +0.000 A 
ATOM      9  C   UNL     1       2.910   5.644  19.918  0.00  0.00    +0.000 A 
ATOM     10  N   UNL     1       2.316   6.859  19.825  0.00  0.00    +0.000 NA
BRANCH   8  11
ATOM     11  C   UNL     1       4.303   3.668  19.162  0.00  0.00    +0.000 C 
ATOM     12  C   UNL     1       3.612   2.635  20.025  0.00  0.00    +0.000 C 
ATOM     13  C   UNL     1       3.741   2.405  18.551  0.00  0.00    +0.000 C 
ENDBRANCH   8  11
BRANCH   7  14
ATOM     14  O   UNL     1       4.538   5.140  16.721  0.00  0.00    +0.000 OA
BRANCH  14  15
ATOM     15  C   UNL     1       5.848   5.666  16.478  0.00  0.00    +0.000 C 
BRANCH  15  16
ATOM     16  C   UNL     1       6.884   4.561  16.590  0.00  0.00    +0.000 C 
ATOM     17  F   UNL     1       7.536   4.434  15.405  0.00  0.00    +0.000 F 
ATOM     18  F   UNL     1       7.826   4.895  17.509  0.00  0.00    +0.000 F 
ENDBRANCH  15  16
ENDBRANCH  14  15
ENDBRANCH   7  14
ENDBRANCH   2   5
BRANCH   1  20
ATOM     19  C   UNL     1      -0.816  10.526  18.622  0.00  0.00    +0.000 C 
ATOM     20  C   UNL     1       0.318  10.500  19.670  0.00  0.00    +0.000 C 
BRANCH  20  21
ATOM     21  C   UNL     1       1.344  11.616  19.391  0.00  0.00    +0.000 C 
ATOM     22  C   UNL     1       0.893  12.992  18.938  0.00  0.00    +0.000 C 
ATOM     23  C   UNL     1       1.570  12.832  20.268  0.00  0.00    +0.000 C 
ENDBRANCH  20  21
BRANCH  20  24
ATOM     24  C   UNL     1      -0.277  10.714  21.088  0.00  0.00    +0.000 C 
BRANCH  24  25
ATOM     25  C   UNL     1       0.305   9.835  22.180  0.00  0.00    +0.000 C 
ATOM     26  N   UNL     1      -0.633   9.257  22.993  0.00  0.00    +0.000 N 
ATOM     27  O   UNL     1       1.493   9.606  22.365  0.00  0.00    +0.000 OA
ATOM     28  H   UNL     1      -1.573   9.620  23.059  0.00  0.00    +0.000 HD
ATOM     29  H   UNL     1      -0.274   8.731  23.781  0.00  0.00    +0.000 HD
ENDBRANCH  24  25
ENDBRANCH  20  24
ENDBRANCH   1  20
TORSDOF 9
ENDMDL
MODEL 9
REMARK VINA RESULT:      -6.3      1.584      2.413
REMARK  Name = 
REMARK  10 active torsions:
REMARK  status: ('A' for Active; 'I' for Inactive)
REMARK    1  A    between atoms: C_1  and  C_2
REMARK    2  A    between atoms: C_2  and  C_3
REMARK    3  A    between atoms: C_2  and  N_7
REMARK    4  A    between atoms: C_2  and  C_24
REMARK    5  A    between atoms: C_3  and  C_4
REMARK    6  A    between atoms: C_8  and  C_10
REMARK    7  A    between atoms: C_12  and  O_13
REMARK    8  A    between atoms: O_13  and  C_14
REMARK    9  A    between atoms: C_14  and  C_15
REMARK   10  A    between atoms: C_18  and  C_19
REMARK                            x       y       z     vdW  Elec       q    Type
REMARK                         _______ _______ _______ _____ _____    ______ ____
ROOT
ATOM      1  N   UNL     1       0.861   9.569  19.878  0.00  0.00    +0.000 N 
ATOM      2  C   UNL     1       1.677   9.371  18.788  0.00  0.00    +0.000 C 
ATOM      3  O   UNL     1       1.889  10.210  17.916  0.00  0.00    +0.000 OA
ATOM      4  H   UNL     1       0.933   8.856  20.603  0.00  0.00    +0.000 HD
ENDROOT
BRANCH   2   5
ATOM      5  C   UNL     1       2.326   8.022  18.719  0.00  0.00    +0.000 A 
ATOM      6  C   UNL     1       2.101   7.117  19.745  0.00  0.00    +0.000 A 
ATOM      7  C   UNL     1       2.721   5.870  19.686  0.00  0.00    +0.000 A 
ATOM      8  C   UNL     1       3.566   5.552  18.603  0.00  0.00    +0.000 A 
ATOM      9  C   UNL     1       3.705   6.546  17.627  0.00  0.00    +0.000 A 
ATOM     10  N   UNL     1       3.119   7.768  17.650  0.00  0.00    +0.000 NA
BRANCH   8  11
ATOM     11  C   UNL     1       4.244   4.206  18.433  0.00  0.00    +0.000 C 
ATOM     12  C   UNL     1       3.519   3.066  17.750  0.00  0.00    +0.000 C 
ATOM     13  C   UNL     1       4.682   3.720  17.071  0.00  0.00    +0.000 C 
ENDBRANCH   8  11
BRANCH   7  14
ATOM     14  O   UNL     1       2.564   4.894  20.643  0.00  0.00    +0.000 OA
BRANCH  14  15
ATOM     15  C   UNL     1       1.297   4.227  20.692  0.00  0.00    +0.000 C 
BRANCH  15  16
ATOM     16  C   UNL     1       1.467   2.821  21.241  0.00  0.00    +0.000 C 
ATOM     17  F   UNL     1       1.559   1.944  20.209  0.00  0.00    +0.000 F 
ATOM     18  F   UNL     1       2.634   2.726  21.928  0.00  0.00    +0.000 F 
ENDBRANCH  15  16
ENDBRANCH  14  15
ENDBRANCH   7  14
ENDBRANCH   2   5
BRANCH   1  20
ATOM     19  C   UNL     1       1.182  11.903  20.546  0.00  0.00    +0.000 C 
ATOM     20  C   UNL     1       0.149  10.815  20.184  0.00  0.00    +0.000 C 
BRANCH  20  21
ATOM     21  C   UNL     1      -0.778  10.523  21.381  0.00  0.00    +0.000 C 
ATOM     22  C   UNL     1      -0.234   9.897  22.651  0.00  0.00    +0.000 C 
ATOM     23  C   UNL     1      -0.784  11.293  22.687  0.00  0.00    +0.000 C 
ENDBRANCH  20  21
BRANCH  20  24
ATOM     24  C   UNL     1      -0.719  11.296  18.989  0.00  0.00    +0.000 C 
BRANCH  24  25
ATOM     25  C   UNL     1      -1.662  12.447  19.289  0.00  0.00    +0.000 C 
ATOM     26  N   UNL     1      -2.978  12.175  19.030  0.00  0.00    +0.000 N 
ATOM     27  O   UNL     1      -1.345  13.541  19.738  0.00  0.00    +0.000 OA
ATOM     28  H   UNL     1      -3.252  11.419  18.418  0.00  0.00    +0.000 HD
ATOM     29  H   UNL     1      -3.622  12.949  19.141  0.00  0.00    +0.000 HD
ENDBRANCH  24  25
ENDBRANCH  20  24
ENDBRANCH   1  20
TORSDOF 9
ENDMDL
