MODEL 1
REMARK VINA RESULT:      -7.1      0.000      0.000
REMARK  Name = 
REMARK  6 active torsions:
REMARK  status: ('A' for Active; 'I' for Inactive)
REMARK    1  A    between atoms: N_3  and  C_4
REMARK    2  A    between atoms: C_18  and  C_19
REMARK    3  A    between atoms: C_19  and  C_20
REMARK    4  A    between atoms: C_20  and  O_21
REMARK    5  A    between atoms: O_21  and  C_22
REMARK    6  A    between atoms: C_22  and  C_23
REMARK                            x       y       z     vdW  Elec       q    Type
REMARK                         _______ _______ _______ _____ _____    ______ ____
ROOT
ATOM      1  O   UNL     1       1.467   6.123  20.930  0.00  0.00    +0.000 OA
ATOM      2  C   UNL     1       1.873   6.959  20.127  0.00  0.00    +0.000 C 
ATOM      3  N   UNL     1       2.667   6.663  19.044  0.00  0.00    +0.000 N 
ATOM      4  N   UNL     1       1.626   8.323  20.270  0.00  0.00    +0.000 N 
ATOM      5  C   UNL     1       1.698   9.267  19.157  0.00  0.00    +0.000 C 
ATOM      6  C   UNL     1       0.318   9.876  18.936  0.00  0.00    +0.000 C 
ATOM      7  C   UNL     1      -0.106  10.680  20.181  0.00  0.00    +0.000 C 
ATOM      8  C   UNL     1      -0.230   9.628  21.308  0.00  0.00    +0.000 C 
ATOM      9  C   UNL     1       1.052   8.827  21.520  0.00  0.00    +0.000 C 
ATOM     10  C   UNL     1       0.860  11.824  20.585  0.00  0.00    +0.000 C 
ATOM     11  C   UNL     1       0.850  13.045  19.641  0.00  0.00    +0.000 C 
ATOM     12  C   UNL     1      -0.608  13.492  19.506  0.00  0.00    +0.000 C 
ATOM     13  C   UNL     1      -1.555  12.350  19.168  0.00  0.00    +0.000 C 
ATOM     14  O   UNL     1      -1.425  11.228  20.034  0.00  0.00    +0.000 OA
ATOM     15  H   UNL     1       3.394   7.344  18.872  0.00  0.00    +0.000 HD
ENDROOT
BRANCH   3  16
ATOM     16  C   UNL     1       2.953   5.368  18.579  0.00  0.00    +0.000 A 
ATOM     17  C   UNL     1       2.079   4.645  17.770  0.00  0.00    +0.000 A 
ATOM     18  C   UNL     1       2.438   3.366  17.330  0.00  0.00    +0.000 A 
ATOM     19  C   UNL     1       3.660   2.807  17.713  0.00  0.00    +0.000 A 
ATOM     20  C   UNL     1       4.542   3.534  18.512  0.00  0.00    +0.000 A 
ATOM     21  C   UNL     1       4.191   4.814  18.919  0.00  0.00    +0.000 A 
ATOM     22  F   UNL     1       5.044   5.517  19.682  0.00  0.00    +0.000 F 
ENDBRANCH   3  16
BRANCH  11  23
ATOM     23  C   UNL     1       1.604  12.842  18.303  0.00  0.00    +0.000 C 
BRANCH  23  24
ATOM     24  C   UNL     1       2.962  13.540  18.221  0.00  0.00    +0.000 C 
BRANCH  24  25
ATOM     25  O   UNL     1       2.777  14.935  17.944  0.00  0.00    +0.000 OA
BRANCH  25  26
ATOM     26  C   UNL     1       4.040  15.564  17.703  0.00  0.00    +0.000 C 
BRANCH  26  27
ATOM     27  C   UNL     1       5.141  14.777  18.342  0.00  0.00    +0.000 C 
ATOM     28  C   UNL     1       6.468  14.557  17.673  0.00  0.00    +0.000 C 
ATOM     29  C   UNL     1       6.372  15.505  18.839  0.00  0.00    +0.000 C 
ENDBRANCH  26  27
ENDBRANCH  25  26
ENDBRANCH  24  25
ENDBRANCH  23  24
ENDBRANCH  11  23
TORSDOF 6
ENDMDL
MODEL 2
REMARK VINA RESULT:      -7.0      3.986      9.199
REMARK  Name = 
REMARK  6 active torsions:
REMARK  status: ('A' for Active; 'I' for Inactive)
REMARK    1  A    between atoms: N_3  and  C_4
REMARK    2  A    between atoms: C_18  and  C_19
REMARK    3  A    between atoms: C_19  and  C_20
REMARK    4  A    between atoms: C_20  and  O_21
REMARK    5  A    between atoms: O_21  and  C_22
REMARK    6  A    between atoms: C_22  and  C_23
REMARK                            x       y       z     vdW  Elec       q    Type
REMARK                         _______ _______ _______ _____ _____    ______ ____
ROOT
ATOM      1  O   UNL     1       1.477   8.278  20.145  0.00  0.00    +0.000 OA
ATOM      2  C   UNL     1       1.885   8.213  18.987  0.00  0.00    +0.000 C 
ATOM      3  N   UNL     1       1.580   9.134  18.012  0.00  0.00    +0.000 N 
ATOM      4  N   UNL     1       2.650   7.149  18.517  0.00  0.00    +0.000 N 
ATOM      5  C   UNL     1       3.498   7.239  17.330  0.00  0.00    +0.000 C 
ATOM      6  C   UNL     1       4.950   7.030  17.743  0.00  0.00    +0.000 C 
ATOM      7  C   UNL     1       5.133   5.613  18.319  0.00  0.00    +0.000 C 
ATOM      8  C   UNL     1       4.270   5.593  19.603  0.00  0.00    +0.000 C 
ATOM      9  C   UNL     1       2.809   5.950  19.345  0.00  0.00    +0.000 C 
ATOM     10  C   UNL     1       4.741   4.458  17.361  0.00  0.00    +0.000 C 
ATOM     11  C   UNL     1       5.710   4.237  16.180  0.00  0.00    +0.000 C 
ATOM     12  C   UNL     1       7.112   4.089  16.776  0.00  0.00    +0.000 C 
ATOM     13  C   UNL     1       7.463   5.196  17.761  0.00  0.00    +0.000 C 
ATOM     14  O   UNL     1       6.478   5.393  18.769  0.00  0.00    +0.000 OA
ATOM     15  H   UNL     1       1.400   8.725  17.105  0.00  0.00    +0.000 HD
ENDROOT
BRANCH   3  16
ATOM     16  C   UNL     1       0.951  10.371  18.234  0.00  0.00    +0.000 A 
ATOM     17  C   UNL     1       1.652  11.528  18.564  0.00  0.00    +0.000 A 
ATOM     18  C   UNL     1       0.960  12.729  18.754  0.00  0.00    +0.000 A 
ATOM     19  C   UNL     1      -0.431  12.768  18.630  0.00  0.00    +0.000 A 
ATOM     20  C   UNL     1      -1.134  11.613  18.286  0.00  0.00    +0.000 A 
ATOM     21  C   UNL     1      -0.436  10.432  18.070  0.00  0.00    +0.000 A 
ATOM     22  F   UNL     1      -1.113   9.322  17.731  0.00  0.00    +0.000 F 
ENDBRANCH   3  16
BRANCH  11  23
ATOM     23  C   UNL     1       5.586   5.270  15.032  0.00  0.00    +0.000 C 
BRANCH  23  24
ATOM     24  C   UNL     1       5.147   4.686  13.689  0.00  0.00    +0.000 C 
BRANCH  24  25
ATOM     25  O   UNL     1       6.149   3.784  13.199  0.00  0.00    +0.000 OA
BRANCH  25  26
ATOM     26  C   UNL     1       5.671   3.097  12.038  0.00  0.00    +0.000 C 
BRANCH  26  27
ATOM     27  C   UNL     1       4.268   3.517  11.728  0.00  0.00    +0.000 C 
ATOM     28  C   UNL     1       3.835   3.928  10.350  0.00  0.00    +0.000 C 
ATOM     29  C   UNL     1       3.392   2.599  10.902  0.00  0.00    +0.000 C 
ENDBRANCH  26  27
ENDBRANCH  25  26
ENDBRANCH  24  25
ENDBRANCH  23  24
ENDBRANCH  11  23
TORSDOF 6
ENDMDL
MODEL 3
REMARK VINA RESULT:      -7.0      1.447      2.233
REMARK  Name = 
REMARK  6 active torsions:
REMARK  status: ('A' for Active; 'I' for Inactive)
REMARK    1  A    between atoms: N_3  and  C_4
REMARK    2  A    between atoms: C_18  and  C_19
REMARK    3  A    between atoms: C_19  and  C_20
REMARK    4  A    between atoms: C_20  and  O_21
REMARK    5  A    between atoms: O_21  and  C_22
REMARK    6  A    between atoms: C_22  and  C_23
REMARK                            x       y       z     vdW  Elec       q    Type
REMARK                         _______ _______ _______ _____ _____    ______ ____
ROOT
ATOM      1  O   UNL     1       1.469   6.163  20.831  0.00  0.00    +0.000 OA
ATOM      2  C   UNL     1       1.932   7.017  20.080  0.00  0.00    +0.000 C 
ATOM      3  N   UNL     1       2.859   6.757  19.098  0.00  0.00    +0.000 N 
ATOM      4  N   UNL     1       1.614   8.369  20.190  0.00  0.00    +0.000 N 
ATOM      5  C   UNL     1       1.777   9.318  19.091  0.00  0.00    +0.000 C 
ATOM      6  C   UNL     1       0.409   9.871  18.709  0.00  0.00    +0.000 C 
ATOM      7  C   UNL     1      -0.191  10.653  19.893  0.00  0.00    +0.000 C 
ATOM      8  C   UNL     1      -0.403   9.594  21.000  0.00  0.00    +0.000 C 
ATOM      9  C   UNL     1       0.877   8.846  21.363  0.00  0.00    +0.000 C 
ATOM     10  C   UNL     1       0.673  11.835  20.406  0.00  0.00    +0.000 C 
ATOM     11  C   UNL     1       0.724  13.057  19.464  0.00  0.00    +0.000 C 
ATOM     12  C   UNL     1      -0.726  13.445  19.158  0.00  0.00    +0.000 C 
ATOM     13  C   UNL     1      -1.579  12.265  18.713  0.00  0.00    +0.000 C 
ATOM     14  O   UNL     1      -1.505  11.148  19.592  0.00  0.00    +0.000 OA
ATOM     15  H   UNL     1       3.573   7.468  19.011  0.00  0.00    +0.000 HD
ENDROOT
BRANCH   3  16
ATOM     16  C   UNL     1       3.251   5.476  18.672  0.00  0.00    +0.000 A 
ATOM     17  C   UNL     1       4.437   4.871  19.084  0.00  0.00    +0.000 A 
ATOM     18  C   UNL     1       4.753   3.586  18.632  0.00  0.00    +0.000 A 
ATOM     19  C   UNL     1       3.894   2.914  17.759  0.00  0.00    +0.000 A 
ATOM     20  C   UNL     1       2.699   3.512  17.356  0.00  0.00    +0.000 A 
ATOM     21  C   UNL     1       2.379   4.776  17.833  0.00  0.00    +0.000 A 
ATOM     22  F   UNL     1       1.225   5.348  17.451  0.00  0.00    +0.000 F 
ENDBRANCH   3  16
BRANCH  11  23
ATOM     23  C   UNL     1       1.638  12.889  18.224  0.00  0.00    +0.000 C 
BRANCH  23  24
ATOM     24  C   UNL     1       3.009  13.554  18.344  0.00  0.00    +0.000 C 
BRANCH  24  25
ATOM     25  O   UNL     1       2.884  14.810  19.025  0.00  0.00    +0.000 OA
BRANCH  25  26
ATOM     26  C   UNL     1       2.810  15.882  18.079  0.00  0.00    +0.000 C 
BRANCH  26  27
ATOM     27  C   UNL     1       1.880  16.946  18.573  0.00  0.00    +0.000 C 
ATOM     28  C   UNL     1       1.190  17.906  17.647  0.00  0.00    +0.000 C 
ATOM     29  C   UNL     1       0.396  16.808  18.305  0.00  0.00    +0.000 C 
ENDBRANCH  26  27
ENDBRANCH  25  26
ENDBRANCH  24  25
ENDBRANCH  23  24
ENDBRANCH  11  23
TORSDOF 6
ENDMDL
MODEL 4
REMARK VINA RESULT:      -7.0      1.308      1.944
REMARK  Name = 
REMARK  6 active torsions:
REMARK  status: ('A' for Active; 'I' for Inactive)
REMARK    1  A    between atoms: N_3  and  C_4
REMARK    2  A    between atoms: C_18  and  C_19
REMARK    3  A    between atoms: C_19  and  C_20
REMARK    4  A    between atoms: C_20  and  O_21
REMARK    5  A    between atoms: O_21  and  C_22
REMARK    6  A    between atoms: C_22  and  C_23
REMARK                            x       y       z     vdW  Elec       q    Type
REMARK                         _______ _______ _______ _____ _____    ______ ____
ROOT
ATOM      1  O   UNL     1       1.616   6.321  20.805  0.00  0.00    +0.000 OA
ATOM      2  C   UNL     1       1.897   7.195  19.989  0.00  0.00    +0.000 C 
ATOM      3  N   UNL     1       2.587   6.962  18.821  0.00  0.00    +0.000 N 
ATOM      4  N   UNL     1       1.606   8.541  20.195  0.00  0.00    +0.000 N 
ATOM      5  C   UNL     1       1.519   9.514  19.107  0.00  0.00    +0.000 C 
ATOM      6  C   UNL     1       0.098  10.062  19.048  0.00  0.00    +0.000 C 
ATOM      7  C   UNL     1      -0.229  10.815  20.352  0.00  0.00    +0.000 C 
ATOM      8  C   UNL     1      -0.188   9.732  21.456  0.00  0.00    +0.000 C 
ATOM      9  C   UNL     1       1.144   8.988  21.512  0.00  0.00    +0.000 C 
ATOM     10  C   UNL     1       0.721  11.994  20.687  0.00  0.00    +0.000 C 
ATOM     11  C   UNL     1       0.559  13.235  19.784  0.00  0.00    +0.000 C 
ATOM     12  C   UNL     1      -0.925  13.616  19.813  0.00  0.00    +0.000 C 
ATOM     13  C   UNL     1      -1.850  12.438  19.542  0.00  0.00    +0.000 C 
ATOM     14  O   UNL     1      -1.579  11.304  20.359  0.00  0.00    +0.000 OA
ATOM     15  H   UNL     1       3.261   7.681  18.595  0.00  0.00    +0.000 HD
ENDROOT
BRANCH   3  16
ATOM     16  C   UNL     1       2.880   5.694  18.292  0.00  0.00    +0.000 A 
ATOM     17  C   UNL     1       1.894   4.772  17.946  0.00  0.00    +0.000 A 
ATOM     18  C   UNL     1       2.260   3.534  17.409  0.00  0.00    +0.000 A 
ATOM     19  C   UNL     1       3.609   3.212  17.234  0.00  0.00    +0.000 A 
ATOM     20  C   UNL     1       4.597   4.138  17.568  0.00  0.00    +0.000 A 
ATOM     21  C   UNL     1       4.224   5.377  18.072  0.00  0.00    +0.000 A 
ATOM     22  F   UNL     1       5.176   6.272  18.386  0.00  0.00    +0.000 F 
ENDBRANCH   3  16
BRANCH  11  23
ATOM     23  C   UNL     1       1.177  13.100  18.370  0.00  0.00    +0.000 C 
BRANCH  23  24
ATOM     24  C   UNL     1       2.641  13.526  18.268  0.00  0.00    +0.000 C 
BRANCH  24  25
ATOM     25  O   UNL     1       2.843  14.754  18.981  0.00  0.00    +0.000 OA
BRANCH  25  26
ATOM     26  C   UNL     1       2.685  15.870  18.100  0.00  0.00    +0.000 C 
BRANCH  26  27
ATOM     27  C   UNL     1       1.739  16.868  18.692  0.00  0.00    +0.000 C 
ATOM     28  C   UNL     1       1.130  17.978  17.884  0.00  0.00    +0.000 C 
ATOM     29  C   UNL     1       0.276  16.812  18.306  0.00  0.00    +0.000 C 
ENDBRANCH  26  27
ENDBRANCH  25  26
ENDBRANCH  24  25
ENDBRANCH  23  24
ENDBRANCH  11  23
TORSDOF 6
ENDMDL
MODEL 5
REMARK VINA RESULT:      -6.9      4.029      9.305
REMARK  Name = 
REMARK  6 active torsions:
REMARK  status: ('A' for Active; 'I' for Inactive)
REMARK    1  A    between atoms: N_3  and  C_4
REMARK    2  A    between atoms: C_18  and  C_19
REMARK    3  A    between atoms: C_19  and  C_20
REMARK    4  A    between atoms: C_20  and  O_21
REMARK    5  A    between atoms: O_21  and  C_22
REMARK    6  A    between atoms: C_22  and  C_23
REMARK                            x       y       z     vdW  Elec       q    Type
REMARK                         _______ _______ _______ _____ _____    ______ ____
ROOT
ATOM      1  O   UNL     1       1.616   8.076  20.198  0.00  0.00    +0.000 OA
ATOM      2  C   UNL     1       1.960   7.998  19.022  0.00  0.00    +0.000 C 
ATOM      3  N   UNL     1       1.555   8.876  18.043  0.00  0.00    +0.000 N 
ATOM      4  N   UNL     1       2.749   6.959  18.534  0.00  0.00    +0.000 N 
ATOM      5  C   UNL     1       3.522   7.057  17.298  0.00  0.00    +0.000 C 
ATOM      6  C   UNL     1       5.004   6.929  17.631  0.00  0.00    +0.000 C 
ATOM      7  C   UNL     1       5.289   5.538  18.230  0.00  0.00    +0.000 C 
ATOM      8  C   UNL     1       4.503   5.512  19.562  0.00  0.00    +0.000 C 
ATOM      9  C   UNL     1       3.013   5.792  19.381  0.00  0.00    +0.000 C 
ATOM     10  C   UNL     1       4.900   4.339  17.326  0.00  0.00    +0.000 C 
ATOM     11  C   UNL     1       5.810   4.133  16.096  0.00  0.00    +0.000 C 
ATOM     12  C   UNL     1       7.250   4.068  16.614  0.00  0.00    +0.000 C 
ATOM     13  C   UNL     1       7.601   5.217  17.548  0.00  0.00    +0.000 C 
ATOM     14  O   UNL     1       6.667   5.395  18.607  0.00  0.00    +0.000 OA
ATOM     15  H   UNL     1       1.344   8.434  17.159  0.00  0.00    +0.000 HD
ENDROOT
BRANCH   3  16
ATOM     16  C   UNL     1       0.880  10.087  18.270  0.00  0.00    +0.000 A 
ATOM     17  C   UNL     1      -0.493  10.157  18.500  0.00  0.00    +0.000 A 
ATOM     18  C   UNL     1      -1.095  11.397  18.736  0.00  0.00    +0.000 A 
ATOM     19  C   UNL     1      -0.329  12.565  18.724  0.00  0.00    +0.000 A 
ATOM     20  C   UNL     1       1.047  12.497  18.507  0.00  0.00    +0.000 A 
ATOM     21  C   UNL     1       1.641  11.259  18.304  0.00  0.00    +0.000 A 
ATOM     22  F   UNL     1       2.968  11.193  18.103  0.00  0.00    +0.000 F 
ENDBRANCH   3  16
BRANCH  11  23
ATOM     23  C   UNL     1       5.571   5.126  14.933  0.00  0.00    +0.000 C 
BRANCH  23  24
ATOM     24  C   UNL     1       5.920   4.585  13.546  0.00  0.00    +0.000 C 
BRANCH  24  25
ATOM     25  O   UNL     1       4.821   3.822  13.029  0.00  0.00    +0.000 OA
BRANCH  25  26
ATOM     26  C   UNL     1       5.171   3.240  11.770  0.00  0.00    +0.000 C 
BRANCH  26  27
ATOM     27  C   UNL     1       6.212   2.181  11.959  0.00  0.00    +0.000 C 
ATOM     28  C   UNL     1       6.334   0.999  11.041  0.00  0.00    +0.000 C 
ATOM     29  C   UNL     1       7.362   2.098  10.978  0.00  0.00    +0.000 C 
ENDBRANCH  26  27
ENDBRANCH  25  26
ENDBRANCH  24  25
ENDBRANCH  23  24
ENDBRANCH  11  23
TORSDOF 6
ENDMDL
MODEL 6
REMARK VINA RESULT:      -6.9      1.215      1.445
REMARK  Name = 
REMARK  6 active torsions:
REMARK  status: ('A' for Active; 'I' for Inactive)
REMARK    1  A    between atoms: N_3  and  C_4
REMARK    2  A    between atoms: C_18  and  C_19
REMARK    3  A    between atoms: C_19  and  C_20
REMARK    4  A    between atoms: C_20  and  O_21
REMARK    5  A    between atoms: O_21  and  C_22
REMARK    6  A    between atoms: C_22  and  C_23
REMARK                            x       y       z     vdW  Elec       q    Type
REMARK                         _______ _______ _______ _____ _____    ______ ____
ROOT
ATOM      1  O   UNL     1       1.441   6.078  20.894  0.00  0.00    +0.000 OA
ATOM      2  C   UNL     1       1.891   6.922  20.122  0.00  0.00    +0.000 C 
ATOM      3  N   UNL     1       2.722   6.630  19.065  0.00  0.00    +0.000 N 
ATOM      4  N   UNL     1       1.661   8.286  20.279  0.00  0.00    +0.000 N 
ATOM      5  C   UNL     1       1.790   9.248  19.186  0.00  0.00    +0.000 C 
ATOM      6  C   UNL     1       0.429   9.884  18.924  0.00  0.00    +0.000 C 
ATOM      7  C   UNL     1      -0.029  10.673  20.165  0.00  0.00    +0.000 C 
ATOM      8  C   UNL     1      -0.213   9.604  21.268  0.00  0.00    +0.000 C 
ATOM      9  C   UNL     1       1.047   8.779  21.516  0.00  0.00    +0.000 C 
ATOM     10  C   UNL     1       0.939  11.794  20.627  0.00  0.00    +0.000 C 
ATOM     11  C   UNL     1       0.985  13.031  19.704  0.00  0.00    +0.000 C 
ATOM     12  C   UNL     1      -0.460  13.504  19.522  0.00  0.00    +0.000 C 
ATOM     13  C   UNL     1      -1.412  12.384  19.128  0.00  0.00    +0.000 C 
ATOM     14  O   UNL     1      -1.332  11.245  19.979  0.00  0.00    +0.000 OA
ATOM     15  H   UNL     1       3.465   7.302  18.933  0.00  0.00    +0.000 HD
ENDROOT
BRANCH   3  16
ATOM     16  C   UNL     1       3.004   5.339  18.588  0.00  0.00    +0.000 A 
ATOM     17  C   UNL     1       2.123   4.619  17.784  0.00  0.00    +0.000 A 
ATOM     18  C   UNL     1       2.479   3.345  17.332  0.00  0.00    +0.000 A 
ATOM     19  C   UNL     1       3.706   2.785  17.697  0.00  0.00    +0.000 A 
ATOM     20  C   UNL     1       4.596   3.508  18.491  0.00  0.00    +0.000 A 
ATOM     21  C   UNL     1       4.247   4.786  18.910  0.00  0.00    +0.000 A 
ATOM     22  F   UNL     1       5.107   5.486  19.668  0.00  0.00    +0.000 F 
ENDBRANCH   3  16
BRANCH  11  23
ATOM     23  C   UNL     1       1.786  12.838  18.393  0.00  0.00    +0.000 C 
BRANCH  23  24
ATOM     24  C   UNL     1       2.693  14.011  18.018  0.00  0.00    +0.000 C 
BRANCH  24  25
ATOM     25  O   UNL     1       2.807  14.913  19.127  0.00  0.00    +0.000 OA
BRANCH  25  26
ATOM     26  C   UNL     1       4.171  15.009  19.549  0.00  0.00    +0.000 C 
BRANCH  26  27
ATOM     27  C   UNL     1       4.241  15.366  21.001  0.00  0.00    +0.000 C 
ATOM     28  C   UNL     1       3.178  14.961  21.982  0.00  0.00    +0.000 C 
ATOM     29  C   UNL     1       4.519  14.276  22.014  0.00  0.00    +0.000 C 
ENDBRANCH  26  27
ENDBRANCH  25  26
ENDBRANCH  24  25
ENDBRANCH  23  24
ENDBRANCH  11  23
TORSDOF 6
ENDMDL
MODEL 7
REMARK VINA RESULT:      -6.7      1.053      1.406
REMARK  Name = 
REMARK  6 active torsions:
REMARK  status: ('A' for Active; 'I' for Inactive)
REMARK    1  A    between atoms: N_3  and  C_4
REMARK    2  A    between atoms: C_18  and  C_19
REMARK    3  A    between atoms: C_19  and  C_20
REMARK    4  A    between atoms: C_20  and  O_21
REMARK    5  A    between atoms: O_21  and  C_22
REMARK    6  A    between atoms: C_22  and  C_23
REMARK                            x       y       z     vdW  Elec       q    Type
REMARK                         _______ _______ _______ _____ _____    ______ ____
ROOT
ATOM      1  O   UNL     1       1.427   5.990  20.902  0.00  0.00    +0.000 OA
ATOM      2  C   UNL     1       1.914   6.813  20.130  0.00  0.00    +0.000 C 
ATOM      3  N   UNL     1       2.824   6.500  19.147  0.00  0.00    +0.000 N 
ATOM      4  N   UNL     1       1.646   8.177  20.215  0.00  0.00    +0.000 N 
ATOM      5  C   UNL     1       1.834   9.098  19.096  0.00  0.00    +0.000 C 
ATOM      6  C   UNL     1       0.483   9.692  18.714  0.00  0.00    +0.000 C 
ATOM      7  C   UNL     1      -0.078  10.518  19.887  0.00  0.00    +0.000 C 
ATOM      8  C   UNL     1      -0.319   9.489  21.016  0.00  0.00    +0.000 C 
ATOM      9  C   UNL     1       0.936   8.703  21.385  0.00  0.00    +0.000 C 
ATOM     10  C   UNL     1       0.831  11.678  20.370  0.00  0.00    +0.000 C 
ATOM     11  C   UNL     1       0.919  12.879  19.403  0.00  0.00    +0.000 C 
ATOM     12  C   UNL     1      -0.519  13.312  19.101  0.00  0.00    +0.000 C 
ATOM     13  C   UNL     1      -1.417  12.155  18.686  0.00  0.00    +0.000 C 
ATOM     14  O   UNL     1      -1.376  11.053  19.586  0.00  0.00    +0.000 OA
ATOM     15  H   UNL     1       3.561   7.182  19.040  0.00  0.00    +0.000 HD
ENDROOT
BRANCH   3  16
ATOM     16  C   UNL     1       3.165   5.197  18.743  0.00  0.00    +0.000 A 
ATOM     17  C   UNL     1       4.304   4.538  19.202  0.00  0.00    +0.000 A 
ATOM     18  C   UNL     1       4.571   3.234  18.770  0.00  0.00    +0.000 A 
ATOM     19  C   UNL     1       3.712   2.600  17.870  0.00  0.00    +0.000 A 
ATOM     20  C   UNL     1       2.564   3.253  17.420  0.00  0.00    +0.000 A 
ATOM     21  C   UNL     1       2.291   4.535  17.877  0.00  0.00    +0.000 A 
ATOM     22  F   UNL     1       1.181   5.161  17.450  0.00  0.00    +0.000 F 
ENDBRANCH   3  16
BRANCH  11  23
ATOM     23  C   UNL     1       1.815  12.654  18.160  0.00  0.00    +0.000 C 
BRANCH  23  24
ATOM     24  C   UNL     1       3.159  13.381  18.200  0.00  0.00    +0.000 C 
BRANCH  24  25
ATOM     25  O   UNL     1       3.272  14.132  19.416  0.00  0.00    +0.000 OA
BRANCH  25  26
ATOM     26  C   UNL     1       3.755  15.451  19.141  0.00  0.00    +0.000 C 
BRANCH  26  27
ATOM     27  C   UNL     1       5.216  15.543  19.453  0.00  0.00    +0.000 C 
ATOM     28  C   UNL     1       6.276  15.360  18.405  0.00  0.00    +0.000 C 
ATOM     29  C   UNL     1       6.001  16.736  18.950  0.00  0.00    +0.000 C 
ENDBRANCH  26  27
ENDBRANCH  25  26
ENDBRANCH  24  25
ENDBRANCH  23  24
ENDBRANCH  11  23
TORSDOF 6
ENDMDL
MODEL 8
REMARK VINA RESULT:      -6.6      1.508      1.919
REMARK  Name = 
REMARK  6 active torsions:
REMARK  status: ('A' for Active; 'I' for Inactive)
REMARK    1  A    between atoms: N_3  and  C_4
REMARK    2  A    between atoms: C_18  and  C_19
REMARK    3  A    between atoms: C_19  and  C_20
REMARK    4  A    between atoms: C_20  and  O_21
REMARK    5  A    between atoms: O_21  and  C_22
REMARK    6  A    between atoms: C_22  and  C_23
REMARK                            x       y       z     vdW  Elec       q    Type
REMARK                         _______ _______ _______ _____ _____    ______ ____
ROOT
ATOM      1  O   UNL     1       1.452   6.000  20.904  0.00  0.00    +0.000 OA
ATOM      2  C   UNL     1       1.938   6.858  20.171  0.00  0.00    +0.000 C 
ATOM      3  N   UNL     1       2.865   6.594  19.189  0.00  0.00    +0.000 N 
ATOM      4  N   UNL     1       1.650   8.214  20.303  0.00  0.00    +0.000 N 
ATOM      5  C   UNL     1       1.841   9.179  19.223  0.00  0.00    +0.000 C 
ATOM      6  C   UNL     1       0.487   9.770  18.844  0.00  0.00    +0.000 C 
ATOM      7  C   UNL     1      -0.101  10.543  20.040  0.00  0.00    +0.000 C 
ATOM      8  C   UNL     1      -0.344   9.469  21.126  0.00  0.00    +0.000 C 
ATOM      9  C   UNL     1       0.917   8.686  21.482  0.00  0.00    +0.000 C 
ATOM     10  C   UNL     1       0.786  11.696  20.579  0.00  0.00    +0.000 C 
ATOM     11  C   UNL     1       0.870  12.934  19.660  0.00  0.00    +0.000 C 
ATOM     12  C   UNL     1      -0.569  13.359  19.354  0.00  0.00    +0.000 C 
ATOM     13  C   UNL     1      -1.446  12.208  18.883  0.00  0.00    +0.000 C 
ATOM     14  O   UNL     1      -1.402  11.073  19.741  0.00  0.00    +0.000 OA
ATOM     15  H   UNL     1       3.595   7.290  19.119  0.00  0.00    +0.000 HD
ENDROOT
BRANCH   3  16
ATOM     16  C   UNL     1       3.230   5.313  18.742  0.00  0.00    +0.000 A 
ATOM     17  C   UNL     1       4.376   4.655  19.184  0.00  0.00    +0.000 A 
ATOM     18  C   UNL     1       4.666   3.373  18.708  0.00  0.00    +0.000 A 
ATOM     19  C   UNL     1       3.823   2.757  17.779  0.00  0.00    +0.000 A 
ATOM     20  C   UNL     1       2.669   3.409  17.344  0.00  0.00    +0.000 A 
ATOM     21  C   UNL     1       2.371   4.669  17.846  0.00  0.00    +0.000 A 
ATOM     22  F   UNL     1       1.255   5.293  17.433  0.00  0.00    +0.000 F 
ENDBRANCH   3  16
BRANCH  11  23
ATOM     23  C   UNL     1       1.786  12.768  18.422  0.00  0.00    +0.000 C 
BRANCH  23  24
ATOM     24  C   UNL     1       2.591  14.013  18.050  0.00  0.00    +0.000 C 
BRANCH  24  25
ATOM     25  O   UNL     1       3.804  14.057  18.816  0.00  0.00    +0.000 OA
BRANCH  25  26
ATOM     26  C   UNL     1       4.036  15.383  19.300  0.00  0.00    +0.000 C 
BRANCH  26  27
ATOM     27  C   UNL     1       3.077  15.707  20.403  0.00  0.00    +0.000 C 
ATOM     28  C   UNL     1       3.107  15.003  21.730  0.00  0.00    +0.000 C 
ATOM     29  C   UNL     1       3.588  16.427  21.633  0.00  0.00    +0.000 C 
ENDBRANCH  26  27
ENDBRANCH  25  26
ENDBRANCH  24  25
ENDBRANCH  23  24
ENDBRANCH  11  23
TORSDOF 6
ENDMDL
MODEL 9
REMARK VINA RESULT:      -6.4      6.032     10.918
REMARK  Name = 
REMARK  6 active torsions:
REMARK  status: ('A' for Active; 'I' for Inactive)
REMARK    1  A    between atoms: N_3  and  C_4
REMARK    2  A    between atoms: C_18  and  C_19
REMARK    3  A    between atoms: C_19  and  C_20
REMARK    4  A    between atoms: C_20  and  O_21
REMARK    5  A    between atoms: O_21  and  C_22
REMARK    6  A    between atoms: C_22  and  C_23
REMARK                            x       y       z     vdW  Elec       q    Type
REMARK                         _______ _______ _______ _____ _____    ______ ____
ROOT
ATOM      1  O   UNL     1       6.758  17.759  18.988  0.00  0.00    +0.000 OA
ATOM      2  C   UNL     1       6.625  16.553  19.177  0.00  0.00    +0.000 C 
ATOM      3  N   UNL     1       5.408  15.916  19.249  0.00  0.00    +0.000 N 
ATOM      4  N   UNL     1       7.703  15.703  19.411  0.00  0.00    +0.000 N 
ATOM      5  C   UNL     1       7.640  14.258  19.203  0.00  0.00    +0.000 C 
ATOM      6  C   UNL     1       8.630  13.872  18.110  0.00  0.00    +0.000 C 
ATOM      7  C   UNL     1      10.065  14.198  18.564  0.00  0.00    +0.000 C 
ATOM      8  C   UNL     1      10.096  15.738  18.705  0.00  0.00    +0.000 C 
ATOM      9  C   UNL     1       9.031  16.271  19.660  0.00  0.00    +0.000 C 
ATOM     10  C   UNL     1      10.514  13.505  19.877  0.00  0.00    +0.000 C 
ATOM     11  C   UNL     1      10.764  11.987  19.756  0.00  0.00    +0.000 C 
ATOM     12  C   UNL     1      11.741  11.787  18.593  0.00  0.00    +0.000 C 
ATOM     13  C   UNL     1      11.321  12.521  17.327  0.00  0.00    +0.000 C 
ATOM     14  O   UNL     1      11.027  13.897  17.540  0.00  0.00    +0.000 OA
ATOM     15  H   UNL     1       5.362  15.202  19.963  0.00  0.00    +0.000 HD
ENDROOT
BRANCH   3  16
ATOM     16  C   UNL     1       4.171  16.492  18.914  0.00  0.00    +0.000 A 
ATOM     17  C   UNL     1       3.677  16.521  17.612  0.00  0.00    +0.000 A 
ATOM     18  C   UNL     1       2.429  17.096  17.355  0.00  0.00    +0.000 A 
ATOM     19  C   UNL     1       1.684  17.657  18.396  0.00  0.00    +0.000 A 
ATOM     20  C   UNL     1       2.170  17.619  19.703  0.00  0.00    +0.000 A 
ATOM     21  C   UNL     1       3.397  17.018  19.953  0.00  0.00    +0.000 A 
ATOM     22  F   UNL     1       3.861  16.974  21.213  0.00  0.00    +0.000 F 
ENDBRANCH   3  16
BRANCH  11  23
ATOM     23  C   UNL     1       9.485  11.116  19.700  0.00  0.00    +0.000 C 
BRANCH  23  24
ATOM     24  C   UNL     1       9.336  10.277  18.430  0.00  0.00    +0.000 C 
BRANCH  24  25
ATOM     25  O   UNL     1       8.739   9.013  18.748  0.00  0.00    +0.000 OA
BRANCH  25  26
ATOM     26  C   UNL     1       7.882   8.588  17.684  0.00  0.00    +0.000 C 
BRANCH  26  27
ATOM     27  C   UNL     1       7.391   7.197  17.938  0.00  0.00    +0.000 C 
ATOM     28  C   UNL     1       6.046   6.719  17.471  0.00  0.00    +0.000 C 
ATOM     29  C   UNL     1       7.289   6.230  16.777  0.00  0.00    +0.000 C 
ENDBRANCH  26  27
ENDBRANCH  25  26
ENDBRANCH  24  25
ENDBRANCH  23  24
ENDBRANCH  11  23
TORSDOF 6
ENDMDL
