MODEL 1
REMARK VINA RESULT:      -6.2      0.000      0.000
REMARK  Name = 
REMARK  6 active torsions:
REMARK  status: ('A' for Active; 'I' for Inactive)
REMARK    1  A    between atoms: C_1  and  C_2
REMARK    2  A    between atoms: C_2  and  C_3
REMARK    3  A    between atoms: C_2  and  C_4
REMARK    4  A    between atoms: C_2  and  C_5
REMARK    5  A    between atoms: C_5  and  C_6
REMARK    6  A    between atoms: C_6  and  N_7
REMARK                            x       y       z     vdW  Elec       q    Type
REMARK                         _______ _______ _______ _____ _____    ______ ____
ROOT
ATOM      1  N   UNL     1       4.000   5.689  18.968  0.00  0.00    +0.000 NA
ATOM      2  S   UNL     1       3.774   6.578  17.586  0.00  0.00    +0.000 S 
ATOM      3  C   UNL     1       5.066   5.836  16.649  0.00  0.00    +0.000 A 
ATOM      4  C   UNL     1       5.262   5.950  15.280  0.00  0.00    +0.000 A 
ATOM      5  C   UNL     1       6.364   5.315  14.700  0.00  0.00    +0.000 A 
ATOM      6  C   UNL     1       7.249   4.575  15.493  0.00  0.00    +0.000 A 
ATOM      7  C   UNL     1       7.028   4.451  16.867  0.00  0.00    +0.000 A 
ATOM      8  C   UNL     1       5.926   5.087  17.434  0.00  0.00    +0.000 A 
ATOM      9  S   UNL     1       5.527   5.049  19.174  0.00  0.00    +0.000 S 
ATOM     10  O   UNL     1       5.542   3.545  19.616  0.00  0.00    +0.000 OA
ENDROOT
BRANCH   1  11
ATOM     11  C   UNL     1       2.925   5.412  19.921  0.00  0.00    +0.000 C 
BRANCH  11  12
ATOM     12  C   UNL     1       1.740   4.693  19.252  0.00  0.00    +0.000 C 
BRANCH  12  14
ATOM     13  C   UNL     1       2.425   2.596  20.534  0.00  0.00    +0.000 C 
ATOM     14  C   UNL     1       1.830   3.143  19.227  0.00  0.00    +0.000 C 
ATOM     15  C   UNL     1       2.675   2.656  18.038  0.00  0.00    +0.000 C 
ATOM     16  C   UNL     1       0.402   2.583  19.072  0.00  0.00    +0.000 C 
ENDBRANCH  12  14
ENDBRANCH  11  12
ENDBRANCH   1  11
TORSDOF 3
ENDMDL
MODEL 2
REMARK VINA RESULT:      -6.2      1.685      5.356
REMARK  Name = 
REMARK  6 active torsions:
REMARK  status: ('A' for Active; 'I' for Inactive)
REMARK    1  A    between atoms: C_1  and  C_2
REMARK    2  A    between atoms: C_2  and  C_3
REMARK    3  A    between atoms: C_2  and  C_4
REMARK    4  A    between atoms: C_2  and  C_5
REMARK    5  A    between atoms: C_5  and  C_6
REMARK    6  A    between atoms: C_6  and  N_7
REMARK                            x       y       z     vdW  Elec       q    Type
REMARK                         _______ _______ _______ _____ _____    ______ ____
ROOT
ATOM      1  N   UNL     1       3.675   5.407  17.261  0.00  0.00    +0.000 NA
ATOM      2  S   UNL     1       2.761   6.247  18.361  0.00  0.00    +0.000 S 
ATOM      3  C   UNL     1       2.326   4.869  19.364  0.00  0.00    +0.000 A 
ATOM      4  C   UNL     1       1.763   4.917  20.632  0.00  0.00    +0.000 A 
ATOM      5  C   UNL     1       1.451   3.718  21.278  0.00  0.00    +0.000 A 
ATOM      6  C   UNL     1       1.709   2.493  20.654  0.00  0.00    +0.000 A 
ATOM      7  C   UNL     1       2.297   2.458  19.387  0.00  0.00    +0.000 A 
ATOM      8  C   UNL     1       2.604   3.659  18.752  0.00  0.00    +0.000 A 
ATOM      9  S   UNL     1       3.325   3.781  17.124  0.00  0.00    +0.000 S 
ATOM     10  O   UNL     1       4.587   2.850  17.108  0.00  0.00    +0.000 OA
ENDROOT
BRANCH   1  11
ATOM     11  C   UNL     1       4.768   6.016  16.502  0.00  0.00    +0.000 C 
BRANCH  11  12
ATOM     12  C   UNL     1       5.718   6.815  17.413  0.00  0.00    +0.000 C 
BRANCH  12  14
ATOM     13  C   UNL     1       8.034   6.906  18.476  0.00  0.00    +0.000 C 
ATOM     14  C   UNL     1       6.868   5.996  18.058  0.00  0.00    +0.000 C 
ATOM     15  C   UNL     1       7.385   4.913  17.097  0.00  0.00    +0.000 C 
ATOM     16  C   UNL     1       6.315   5.305  19.321  0.00  0.00    +0.000 C 
ENDBRANCH  12  14
ENDBRANCH  11  12
ENDBRANCH   1  11
TORSDOF 3
ENDMDL
MODEL 3
REMARK VINA RESULT:      -6.2      0.085      1.075
REMARK  Name = 
REMARK  6 active torsions:
REMARK  status: ('A' for Active; 'I' for Inactive)
REMARK    1  A    between atoms: C_1  and  C_2
REMARK    2  A    between atoms: C_2  and  C_3
REMARK    3  A    between atoms: C_2  and  C_4
REMARK    4  A    between atoms: C_2  and  C_5
REMARK    5  A    between atoms: C_5  and  C_6
REMARK    6  A    between atoms: C_6  and  N_7
REMARK                            x       y       z     vdW  Elec       q    Type
REMARK                         _______ _______ _______ _____ _____    ______ ____
ROOT
ATOM      1  N   UNL     1       3.988   5.686  18.967  0.00  0.00    +0.000 NA
ATOM      2  S   UNL     1       3.762   6.577  17.586  0.00  0.00    +0.000 S 
ATOM      3  C   UNL     1       5.063   5.846  16.653  0.00  0.00    +0.000 A 
ATOM      4  C   UNL     1       5.264   5.965  15.284  0.00  0.00    +0.000 A 
ATOM      5  C   UNL     1       6.373   5.340  14.708  0.00  0.00    +0.000 A 
ATOM      6  C   UNL     1       7.259   4.604  15.503  0.00  0.00    +0.000 A 
ATOM      7  C   UNL     1       7.034   4.475  16.875  0.00  0.00    +0.000 A 
ATOM      8  C   UNL     1       5.925   5.101  17.439  0.00  0.00    +0.000 A 
ATOM      9  S   UNL     1       5.519   5.056  19.177  0.00  0.00    +0.000 S 
ATOM     10  O   UNL     1       5.542   3.551  19.616  0.00  0.00    +0.000 OA
ENDROOT
BRANCH   1  11
ATOM     11  C   UNL     1       2.911   5.399  19.915  0.00  0.00    +0.000 C 
BRANCH  11  12
ATOM     12  C   UNL     1       1.715   4.716  19.230  0.00  0.00    +0.000 C 
BRANCH  12  14
ATOM     13  C   UNL     1       0.406   2.542  18.966  0.00  0.00    +0.000 C 
ATOM     14  C   UNL     1       1.800   3.169  19.127  0.00  0.00    +0.000 C 
ATOM     15  C   UNL     1       2.489   2.568  20.364  0.00  0.00    +0.000 C 
ATOM     16  C   UNL     1       2.638   2.816  17.882  0.00  0.00    +0.000 C 
ENDBRANCH  12  14
ENDBRANCH  11  12
ENDBRANCH   1  11
TORSDOF 3
ENDMDL
MODEL 4
REMARK VINA RESULT:      -6.2      1.527      1.917
REMARK  Name = 
REMARK  6 active torsions:
REMARK  status: ('A' for Active; 'I' for Inactive)
REMARK    1  A    between atoms: C_1  and  C_2
REMARK    2  A    between atoms: C_2  and  C_3
REMARK    3  A    between atoms: C_2  and  C_4
REMARK    4  A    between atoms: C_2  and  C_5
REMARK    5  A    between atoms: C_5  and  C_6
REMARK    6  A    between atoms: C_6  and  N_7
REMARK                            x       y       z     vdW  Elec       q    Type
REMARK                         _______ _______ _______ _____ _____    ______ ____
ROOT
ATOM      1  N   UNL     1       4.655   4.315  18.577  0.00  0.00    +0.000 NA
ATOM      2  S   UNL     1       3.774   3.983  17.211  0.00  0.00    +0.000 S 
ATOM      3  C   UNL     1       5.074   4.252  16.056  0.00  0.00    +0.000 A 
ATOM      4  C   UNL     1       5.075   3.890  14.715  0.00  0.00    +0.000 A 
ATOM      5  C   UNL     1       6.185   4.210  13.930  0.00  0.00    +0.000 A 
ATOM      6  C   UNL     1       7.276   4.881  14.493  0.00  0.00    +0.000 A 
ATOM      7  C   UNL     1       7.272   5.221  15.847  0.00  0.00    +0.000 A 
ATOM      8  C   UNL     1       6.160   4.896  16.621  0.00  0.00    +0.000 A 
ATOM      9  S   UNL     1       5.991   5.291  18.354  0.00  0.00    +0.000 S 
ATOM     10  O   UNL     1       7.288   4.780  19.071  0.00  0.00    +0.000 OA
ENDROOT
BRANCH   1  11
ATOM     11  C   UNL     1       4.340   3.744  19.886  0.00  0.00    +0.000 C 
BRANCH  11  12
ATOM     12  C   UNL     1       3.165   2.753  19.808  0.00  0.00    +0.000 C 
BRANCH  12  14
ATOM     13  C   UNL     1       1.530   2.527  21.753  0.00  0.00    +0.000 C 
ATOM     14  C   UNL     1       1.832   3.250  20.430  0.00  0.00    +0.000 C 
ATOM     15  C   UNL     1       0.658   3.049  19.459  0.00  0.00    +0.000 C 
ATOM     16  C   UNL     1       1.972   4.757  20.722  0.00  0.00    +0.000 C 
ENDBRANCH  12  14
ENDBRANCH  11  12
ENDBRANCH   1  11
TORSDOF 3
ENDMDL
MODEL 5
REMARK VINA RESULT:      -6.1      1.512      2.074
REMARK  Name = 
REMARK  6 active torsions:
REMARK  status: ('A' for Active; 'I' for Inactive)
REMARK    1  A    between atoms: C_1  and  C_2
REMARK    2  A    between atoms: C_2  and  C_3
REMARK    3  A    between atoms: C_2  and  C_4
REMARK    4  A    between atoms: C_2  and  C_5
REMARK    5  A    between atoms: C_5  and  C_6
REMARK    6  A    between atoms: C_6  and  N_7
REMARK                            x       y       z     vdW  Elec       q    Type
REMARK                         _______ _______ _______ _____ _____    ______ ____
ROOT
ATOM      1  N   UNL     1       4.593   3.821  18.853  0.00  0.00    +0.000 NA
ATOM      2  S   UNL     1       4.037   3.333  17.368  0.00  0.00    +0.000 S 
ATOM      3  C   UNL     1       5.312   4.082  16.414  0.00  0.00    +0.000 A 
ATOM      4  C   UNL     1       5.591   3.840  15.075  0.00  0.00    +0.000 A 
ATOM      5  C   UNL     1       6.627   4.551  14.463  0.00  0.00    +0.000 A 
ATOM      6  C   UNL     1       7.369   5.485  15.193  0.00  0.00    +0.000 A 
ATOM      7  C   UNL     1       7.092   5.703  16.545  0.00  0.00    +0.000 A 
ATOM      8  C   UNL     1       6.058   4.990  17.146  0.00  0.00    +0.000 A 
ATOM      9  S   UNL     1       5.562   5.179  18.851  0.00  0.00    +0.000 S 
ATOM     10  O   UNL     1       6.858   5.047  19.723  0.00  0.00    +0.000 OA
ENDROOT
BRANCH   1  11
ATOM     11  C   UNL     1       4.321   3.082  20.086  0.00  0.00    +0.000 C 
BRANCH  11  12
ATOM     12  C   UNL     1       2.964   2.359  20.031  0.00  0.00    +0.000 C 
BRANCH  12  14
ATOM     13  C   UNL     1       2.128   4.621  20.864  0.00  0.00    +0.000 C 
ATOM     14  C   UNL     1       1.765   3.146  20.625  0.00  0.00    +0.000 C 
ATOM     15  C   UNL     1       1.287   2.517  21.944  0.00  0.00    +0.000 C 
ATOM     16  C   UNL     1       0.605   3.091  19.610  0.00  0.00    +0.000 C 
ENDBRANCH  12  14
ENDBRANCH  11  12
ENDBRANCH   1  11
TORSDOF 3
ENDMDL
MODEL 6
REMARK VINA RESULT:      -6.1      1.600      2.125
REMARK  Name = 
REMARK  6 active torsions:
REMARK  status: ('A' for Active; 'I' for Inactive)
REMARK    1  A    between atoms: C_1  and  C_2
REMARK    2  A    between atoms: C_2  and  C_3
REMARK    3  A    between atoms: C_2  and  C_4
REMARK    4  A    between atoms: C_2  and  C_5
REMARK    5  A    between atoms: C_5  and  C_6
REMARK    6  A    between atoms: C_6  and  N_7
REMARK                            x       y       z     vdW  Elec       q    Type
REMARK                         _______ _______ _______ _____ _____    ______ ____
ROOT
ATOM      1  N   UNL     1       4.881   4.331  18.374  0.00  0.00    +0.000 NA
ATOM      2  S   UNL     1       3.908   4.085  17.053  0.00  0.00    +0.000 S 
ATOM      3  C   UNL     1       5.166   4.258  15.835  0.00  0.00    +0.000 A 
ATOM      4  C   UNL     1       5.069   3.909  14.494  0.00  0.00    +0.000 A 
ATOM      5  C   UNL     1       6.161   4.145  13.655  0.00  0.00    +0.000 A 
ATOM      6  C   UNL     1       7.331   4.719  14.165  0.00  0.00    +0.000 A 
ATOM      7  C   UNL     1       7.423   5.045  15.520  0.00  0.00    +0.000 A 
ATOM      8  C   UNL     1       6.329   4.805  16.348  0.00  0.00    +0.000 A 
ATOM      9  S   UNL     1       6.280   5.196  18.089  0.00  0.00    +0.000 S 
ATOM     10  O   UNL     1       7.565   4.573  18.737  0.00  0.00    +0.000 OA
ENDROOT
BRANCH   1  11
ATOM     11  C   UNL     1       4.587   3.775  19.695  0.00  0.00    +0.000 C 
BRANCH  11  12
ATOM     12  C   UNL     1       3.368   2.836  19.659  0.00  0.00    +0.000 C 
BRANCH  12  14
ATOM     13  C   UNL     1       0.825   3.040  19.649  0.00  0.00    +0.000 C 
ATOM     14  C   UNL     1       2.116   3.339  20.427  0.00  0.00    +0.000 C 
ATOM     15  C   UNL     1       2.206   4.849  20.706  0.00  0.00    +0.000 C 
ATOM     16  C   UNL     1       2.052   2.596  21.777  0.00  0.00    +0.000 C 
ENDBRANCH  12  14
ENDBRANCH  11  12
ENDBRANCH   1  11
TORSDOF 3
ENDMDL
MODEL 7
REMARK VINA RESULT:      -6.0      1.835      5.603
REMARK  Name = 
REMARK  6 active torsions:
REMARK  status: ('A' for Active; 'I' for Inactive)
REMARK    1  A    between atoms: C_1  and  C_2
REMARK    2  A    between atoms: C_2  and  C_3
REMARK    3  A    between atoms: C_2  and  C_4
REMARK    4  A    between atoms: C_2  and  C_5
REMARK    5  A    between atoms: C_5  and  C_6
REMARK    6  A    between atoms: C_6  and  N_7
REMARK                            x       y       z     vdW  Elec       q    Type
REMARK                         _______ _______ _______ _____ _____    ______ ____
ROOT
ATOM      1  N   UNL     1       3.565   5.583  17.468  0.00  0.00    +0.000 NA
ATOM      2  S   UNL     1       2.531   6.244  18.585  0.00  0.00    +0.000 S 
ATOM      3  C   UNL     1       2.152   4.746  19.427  0.00  0.00    +0.000 A 
ATOM      4  C   UNL     1       1.519   4.629  20.658  0.00  0.00    +0.000 A 
ATOM      5  C   UNL     1       1.268   3.353  21.169  0.00  0.00    +0.000 A 
ATOM      6  C   UNL     1       1.653   2.217  20.449  0.00  0.00    +0.000 A 
ATOM      7  C   UNL     1       2.308   2.349  19.222  0.00  0.00    +0.000 A 
ATOM      8  C   UNL     1       2.554   3.625  18.722  0.00  0.00    +0.000 A 
ATOM      9  S   UNL     1       3.350   3.957  17.159  0.00  0.00    +0.000 S 
ATOM     10  O   UNL     1       4.678   3.125  17.132  0.00  0.00    +0.000 OA
ENDROOT
BRANCH   1  11
ATOM     11  C   UNL     1       4.646   6.341  16.838  0.00  0.00    +0.000 C 
BRANCH  11  12
ATOM     12  C   UNL     1       5.580   6.977  17.882  0.00  0.00    +0.000 C 
BRANCH  12  14
ATOM     13  C   UNL     1       7.638   5.884  18.921  0.00  0.00    +0.000 C 
ATOM     14  C   UNL     1       7.089   6.655  17.710  0.00  0.00    +0.000 C 
ATOM     15  C   UNL     1       7.911   7.939  17.507  0.00  0.00    +0.000 C 
ATOM     16  C   UNL     1       7.251   5.770  16.457  0.00  0.00    +0.000 C 
ENDBRANCH  12  14
ENDBRANCH  11  12
ENDBRANCH   1  11
TORSDOF 3
ENDMDL
MODEL 8
REMARK VINA RESULT:      -6.0      1.815      5.685
REMARK  Name = 
REMARK  6 active torsions:
REMARK  status: ('A' for Active; 'I' for Inactive)
REMARK    1  A    between atoms: C_1  and  C_2
REMARK    2  A    between atoms: C_2  and  C_3
REMARK    3  A    between atoms: C_2  and  C_4
REMARK    4  A    between atoms: C_2  and  C_5
REMARK    5  A    between atoms: C_5  and  C_6
REMARK    6  A    between atoms: C_6  and  N_7
REMARK                            x       y       z     vdW  Elec       q    Type
REMARK                         _______ _______ _______ _____ _____    ______ ____
ROOT
ATOM      1  N   UNL     1       3.550   5.446  17.562  0.00  0.00    +0.000 NA
ATOM      2  S   UNL     1       2.863   6.213  18.863  0.00  0.00    +0.000 S 
ATOM      3  C   UNL     1       2.475   4.760  19.778  0.00  0.00    +0.000 A 
ATOM      4  C   UNL     1       2.100   4.702  21.114  0.00  0.00    +0.000 A 
ATOM      5  C   UNL     1       1.796   3.460  21.676  0.00  0.00    +0.000 A 
ATOM      6  C   UNL     1       1.875   2.297  20.901  0.00  0.00    +0.000 A 
ATOM      7  C   UNL     1       2.274   2.367  19.564  0.00  0.00    +0.000 A 
ATOM      8  C   UNL     1       2.575   3.611  19.014  0.00  0.00    +0.000 A 
ATOM      9  S   UNL     1       3.067   3.868  17.317  0.00  0.00    +0.000 S 
ATOM     10  O   UNL     1       4.243   2.873  17.023  0.00  0.00    +0.000 OA
ENDROOT
BRANCH   1  11
ATOM     11  C   UNL     1       4.566   6.071  16.716  0.00  0.00    +0.000 C 
BRANCH  11  12
ATOM     12  C   UNL     1       5.490   6.999  17.524  0.00  0.00    +0.000 C 
BRANCH  12  14
ATOM     13  C   UNL     1       7.357   5.628  16.455  0.00  0.00    +0.000 C 
ATOM     14  C   UNL     1       6.969   6.540  17.630  0.00  0.00    +0.000 C 
ATOM     15  C   UNL     1       7.227   5.803  18.955  0.00  0.00    +0.000 C 
ATOM     16  C   UNL     1       7.864   7.795  17.587  0.00  0.00    +0.000 C 
ENDBRANCH  12  14
ENDBRANCH  11  12
ENDBRANCH   1  11
TORSDOF 3
ENDMDL
MODEL 9
REMARK VINA RESULT:      -5.9      1.257      5.388
REMARK  Name = 
REMARK  6 active torsions:
REMARK  status: ('A' for Active; 'I' for Inactive)
REMARK    1  A    between atoms: C_1  and  C_2
REMARK    2  A    between atoms: C_2  and  C_3
REMARK    3  A    between atoms: C_2  and  C_4
REMARK    4  A    between atoms: C_2  and  C_5
REMARK    5  A    between atoms: C_5  and  C_6
REMARK    6  A    between atoms: C_6  and  N_7
REMARK                            x       y       z     vdW  Elec       q    Type
REMARK                         _______ _______ _______ _____ _____    ______ ____
ROOT
ATOM      1  N   UNL     1       4.194   5.005  17.933  0.00  0.00    +0.000 NA
ATOM      2  S   UNL     1       2.545   4.908  17.783  0.00  0.00    +0.000 S 
ATOM      3  C   UNL     1       2.252   4.031  19.280  0.00  0.00    +0.000 A 
ATOM      4  C   UNL     1       1.024   3.845  19.900  0.00  0.00    +0.000 A 
ATOM      5  C   UNL     1       0.969   3.090  21.075  0.00  0.00    +0.000 A 
ATOM      6  C   UNL     1       2.136   2.538  21.614  0.00  0.00    +0.000 A 
ATOM      7  C   UNL     1       3.369   2.751  20.992  0.00  0.00    +0.000 A 
ATOM      8  C   UNL     1       3.412   3.505  19.821  0.00  0.00    +0.000 A 
ATOM      9  S   UNL     1       4.901   3.838  18.894  0.00  0.00    +0.000 S 
ATOM     10  O   UNL     1       5.960   4.393  19.908  0.00  0.00    +0.000 OA
ENDROOT
BRANCH   1  11
ATOM     11  C   UNL     1       4.988   6.076  17.329  0.00  0.00    +0.000 C 
BRANCH  11  12
ATOM     12  C   UNL     1       5.242   5.822  15.833  0.00  0.00    +0.000 C 
BRANCH  12  14
ATOM     13  C   UNL     1       7.417   4.775  16.657  0.00  0.00    +0.000 C 
ATOM     14  C   UNL     1       6.395   4.835  15.510  0.00  0.00    +0.000 C 
ATOM     15  C   UNL     1       7.113   5.226  14.208  0.00  0.00    +0.000 C 
ATOM     16  C   UNL     1       5.787   3.430  15.329  0.00  0.00    +0.000 C 
ENDBRANCH  12  14
ENDBRANCH  11  12
ENDBRANCH   1  11
TORSDOF 3
ENDMDL
