MODEL 1
REMARK VINA RESULT:      -7.7      0.000      0.000
REMARK  Name = 
REMARK  9 active torsions:
REMARK  status: ('A' for Active; 'I' for Inactive)
REMARK    1  A    between atoms: C_1  and  O_2
REMARK    2  A    between atoms: O_2  and  C_3
REMARK    3  A    between atoms: C_3  and  C_4
REMARK    4  A    between atoms: C_4  and  N_5
REMARK    5  A    between atoms: N_5  and  C_6
REMARK    6  A    between atoms: N_9  and  C_10
REMARK    7  A    between atoms: C_10  and  C_11
REMARK    8  A    between atoms: C_11  and  C_12
REMARK    9  A    between atoms: C_13  and  C_14
REMARK                            x       y       z     vdW  Elec       q    Type
REMARK                         _______ _______ _______ _____ _____    ______ ____
ROOT
ATOM      1  C   UNL     1       6.490   4.757  15.556  0.00  0.00    +0.000 A 
ATOM      2  N   UNL     1       5.734   3.687  15.930  0.00  0.00    +0.000 NA
ATOM      3  C   UNL     1       5.321   3.551  17.206  0.00  0.00    +0.000 A 
ATOM      4  N   UNL     1       4.479   2.472  17.445  0.00  0.00    +0.000 N 
ATOM      5  N   UNL     1       5.629   4.375  18.222  0.00  0.00    +0.000 NA
ATOM      6  C   UNL     1       6.410   5.382  17.838  0.00  0.00    +0.000 A 
ATOM      7  N   UNL     1       6.922   6.364  18.631  0.00  0.00    +0.000 N 
ATOM      8  C   UNL     1       7.664   7.189  17.834  0.00  0.00    +0.000 A 
ATOM      9  N   UNL     1       7.640   6.806  16.574  0.00  0.00    +0.000 NA
ATOM     10  C   UNL     1       6.873   5.657  16.566  0.00  0.00    +0.000 A 
ATOM     11  H   UNL     1       5.028   1.630  17.324  0.00  0.00    +0.000 HD
ATOM     12  H   UNL     1       6.776   6.441  19.628  0.00  0.00    +0.000 HD
ENDROOT
BRANCH   1  13
ATOM     13  N   UNL     1       6.892   4.922  14.230  0.00  0.00    +0.000 N 
ATOM     14  H   UNL     1       7.318   5.841  14.095  0.00  0.00    +0.000 HD
BRANCH  13  15
ATOM     15  C   UNL     1       5.918   4.587  13.195  0.00  0.00    +0.000 C 
BRANCH  15  16
ATOM     16  C   UNL     1       6.502   3.587  12.188  0.00  0.00    +0.000 C 
BRANCH  16  18
ATOM     17  C   UNL     1       4.327   3.066  11.439  0.00  0.00    +0.000 C 
ATOM     18  O   UNL     1       5.552   2.542  11.938  0.00  0.00    +0.000 OA
ENDBRANCH  16  18
ENDBRANCH  15  16
ENDBRANCH  13  15
ENDBRANCH   1  13
BRANCH   4  19
ATOM     19  C   UNL     1       3.699   2.545  18.678  0.00  0.00    +0.000 C 
BRANCH  19  20
ATOM     20  C   UNL     1       2.391   3.309  18.408  0.00  0.00    +0.000 C 
BRANCH  20  21
ATOM     21  C   UNL     1       2.183   4.469  19.328  0.00  0.00    +0.000 A 
ATOM     22  C   UNL     1       1.938   4.387  20.689  0.00  0.00    +0.000 A 
ATOM     23  C   UNL     1       1.816   3.215  21.596  0.00  0.00    +0.000 C 
ATOM     24  N   UNL     1       1.793   5.665  21.162  0.00  0.00    +0.000 N 
ATOM     25  C   UNL     1       1.928   6.578  20.145  0.00  0.00    +0.000 A 
ATOM     26  C   UNL     1       1.850   7.975  20.186  0.00  0.00    +0.000 A 
ATOM     27  C   UNL     1       2.017   8.669  18.985  0.00  0.00    +0.000 A 
ATOM     28  C   UNL     1       2.250   7.986  17.794  0.00  0.00    +0.000 A 
ATOM     29  C   UNL     1       2.327   6.585  17.774  0.00  0.00    +0.000 A 
ATOM     30  C   UNL     1       2.168   5.861  18.976  0.00  0.00    +0.000 A 
ATOM     31  H   UNL     1       1.601   5.909  22.126  0.00  0.00    +0.000 HD
ENDBRANCH  20  21
ENDBRANCH  19  20
ENDBRANCH   4  19
TORSDOF 7
ENDMDL
MODEL 2
REMARK VINA RESULT:      -7.6      2.948      5.589
REMARK  Name = 
REMARK  9 active torsions:
REMARK  status: ('A' for Active; 'I' for Inactive)
REMARK    1  A    between atoms: C_1  and  O_2
REMARK    2  A    between atoms: O_2  and  C_3
REMARK    3  A    between atoms: C_3  and  C_4
REMARK    4  A    between atoms: C_4  and  N_5
REMARK    5  A    between atoms: N_5  and  C_6
REMARK    6  A    between atoms: N_9  and  C_10
REMARK    7  A    between atoms: C_10  and  C_11
REMARK    8  A    between atoms: C_11  and  C_12
REMARK    9  A    between atoms: C_13  and  C_14
REMARK                            x       y       z     vdW  Elec       q    Type
REMARK                         _______ _______ _______ _____ _____    ______ ____
ROOT
ATOM      1  C   UNL     1       4.318   3.992  17.376  0.00  0.00    +0.000 A 
ATOM      2  N   UNL     1       4.145   5.341  17.292  0.00  0.00    +0.000 NA
ATOM      3  C   UNL     1       3.114   5.942  17.919  0.00  0.00    +0.000 A 
ATOM      4  N   UNL     1       3.098   7.329  17.838  0.00  0.00    +0.000 N 
ATOM      5  N   UNL     1       2.152   5.318  18.620  0.00  0.00    +0.000 NA
ATOM      6  C   UNL     1       2.319   3.997  18.643  0.00  0.00    +0.000 A 
ATOM      7  N   UNL     1       1.502   3.084  19.238  0.00  0.00    +0.000 N 
ATOM      8  C   UNL     1       2.043   1.848  19.021  0.00  0.00    +0.000 A 
ATOM      9  N   UNL     1       3.168   1.918  18.340  0.00  0.00    +0.000 NA
ATOM     10  C   UNL     1       3.342   3.263  18.077  0.00  0.00    +0.000 A 
ATOM     11  H   UNL     1       2.910   7.571  16.873  0.00  0.00    +0.000 HD
ATOM     12  H   UNL     1       0.649   3.303  19.734  0.00  0.00    +0.000 HD
ENDROOT
BRANCH   1  13
ATOM     13  N   UNL     1       5.402   3.369  16.758  0.00  0.00    +0.000 N 
ATOM     14  H   UNL     1       5.899   2.770  17.420  0.00  0.00    +0.000 HD
BRANCH  13  15
ATOM     15  C   UNL     1       6.297   4.216  15.974  0.00  0.00    +0.000 C 
BRANCH  15  16
ATOM     16  C   UNL     1       7.332   4.907  16.871  0.00  0.00    +0.000 C 
BRANCH  16  18
ATOM     17  C   UNL     1       7.441   7.171  17.524  0.00  0.00    +0.000 C 
ATOM     18  O   UNL     1       7.523   6.261  16.435  0.00  0.00    +0.000 OA
ENDBRANCH  16  18
ENDBRANCH  15  16
ENDBRANCH  13  15
ENDBRANCH   1  13
BRANCH   4  19
ATOM     19  C   UNL     1       2.268   8.006  18.832  0.00  0.00    +0.000 C 
BRANCH  19  20
ATOM     20  C   UNL     1       1.686   9.292  18.220  0.00  0.00    +0.000 C 
BRANCH  20  21
ATOM     21  C   UNL     1       1.210  10.271  19.244  0.00  0.00    +0.000 A 
ATOM     22  C   UNL     1       1.362  11.647  19.179  0.00  0.00    +0.000 A 
ATOM     23  C   UNL     1       1.993  12.517  18.152  0.00  0.00    +0.000 C 
ATOM     24  N   UNL     1       0.804  12.179  20.311  0.00  0.00    +0.000 N 
ATOM     25  C   UNL     1       0.301  11.188  21.119  0.00  0.00    +0.000 A 
ATOM     26  C   UNL     1      -0.341  11.289  22.358  0.00  0.00    +0.000 A 
ATOM     27  C   UNL     1      -0.747  10.104  22.976  0.00  0.00    +0.000 A 
ATOM     28  C   UNL     1      -0.515   8.870  22.373  0.00  0.00    +0.000 A 
ATOM     29  C   UNL     1       0.130   8.790  21.130  0.00  0.00    +0.000 A 
ATOM     30  C   UNL     1       0.545   9.974  20.482  0.00  0.00    +0.000 A 
ATOM     31  H   UNL     1       0.775  13.166  20.536  0.00  0.00    +0.000 HD
ENDBRANCH  20  21
ENDBRANCH  19  20
ENDBRANCH   4  19
TORSDOF 7
ENDMDL
MODEL 3
REMARK VINA RESULT:      -7.5      4.043      7.893
REMARK  Name = 
REMARK  9 active torsions:
REMARK  status: ('A' for Active; 'I' for Inactive)
REMARK    1  A    between atoms: C_1  and  O_2
REMARK    2  A    between atoms: O_2  and  C_3
REMARK    3  A    between atoms: C_3  and  C_4
REMARK    4  A    between atoms: C_4  and  N_5
REMARK    5  A    between atoms: N_5  and  C_6
REMARK    6  A    between atoms: N_9  and  C_10
REMARK    7  A    between atoms: C_10  and  C_11
REMARK    8  A    between atoms: C_11  and  C_12
REMARK    9  A    between atoms: C_13  and  C_14
REMARK                            x       y       z     vdW  Elec       q    Type
REMARK                         _______ _______ _______ _____ _____    ______ ____
ROOT
ATOM      1  C   UNL     1       0.020  10.554  19.804  0.00  0.00    +0.000 A 
ATOM      2  N   UNL     1       0.867   9.613  19.300  0.00  0.00    +0.000 NA
ATOM      3  C   UNL     1       1.272   8.577  20.060  0.00  0.00    +0.000 A 
ATOM      4  N   UNL     1       2.059   7.635  19.408  0.00  0.00    +0.000 N 
ATOM      5  N   UNL     1       0.954   8.380  21.351  0.00  0.00    +0.000 NA
ATOM      6  C   UNL     1       0.167   9.340  21.831  0.00  0.00    +0.000 A 
ATOM      7  N   UNL     1      -0.302   9.448  23.105  0.00  0.00    +0.000 N 
ATOM      8  C   UNL     1      -1.071  10.576  23.164  0.00  0.00    +0.000 A 
ATOM      9  N   UNL     1      -1.139  11.186  21.998  0.00  0.00    +0.000 NA
ATOM     10  C   UNL     1      -0.346  10.430  21.156  0.00  0.00    +0.000 A 
ATOM     11  H   UNL     1       2.943   8.079  19.192  0.00  0.00    +0.000 HD
ATOM     12  H   UNL     1      -0.096   8.805  23.856  0.00  0.00    +0.000 HD
ENDROOT
BRANCH   1  13
ATOM     13  N   UNL     1      -0.431  11.611  19.012  0.00  0.00    +0.000 N 
ATOM     14  H   UNL     1       0.053  12.477  19.258  0.00  0.00    +0.000 HD
BRANCH  13  15
ATOM     15  C   UNL     1      -1.876  11.780  18.890  0.00  0.00    +0.000 C 
BRANCH  15  16
ATOM     16  C   UNL     1      -2.500  10.645  18.068  0.00  0.00    +0.000 C 
BRANCH  16  18
ATOM     17  C   UNL     1      -2.715  10.429  15.729  0.00  0.00    +0.000 C 
ATOM     18  O   UNL     1      -1.806  10.515  16.819  0.00  0.00    +0.000 OA
ENDBRANCH  16  18
ENDBRANCH  15  16
ENDBRANCH  13  15
ENDBRANCH   1  13
BRANCH   4  19
ATOM     19  C   UNL     1       2.149   6.332  20.063  0.00  0.00    +0.000 C 
BRANCH  19  20
ATOM     20  C   UNL     1       2.316   5.236  18.996  0.00  0.00    +0.000 C 
BRANCH  20  21
ATOM     21  C   UNL     1       3.721   4.740  18.873  0.00  0.00    +0.000 A 
ATOM     22  C   UNL     1       4.221   3.580  19.441  0.00  0.00    +0.000 A 
ATOM     23  C   UNL     1       3.572   2.540  20.283  0.00  0.00    +0.000 C 
ATOM     24  N   UNL     1       5.546   3.492  19.105  0.00  0.00    +0.000 N 
ATOM     25  C   UNL     1       5.928   4.567  18.341  0.00  0.00    +0.000 A 
ATOM     26  C   UNL     1       7.179   4.873  17.794  0.00  0.00    +0.000 A 
ATOM     27  C   UNL     1       7.293   6.054  17.057  0.00  0.00    +0.000 A 
ATOM     28  C   UNL     1       6.196   6.893  16.881  0.00  0.00    +0.000 A 
ATOM     29  C   UNL     1       4.950   6.569  17.437  0.00  0.00    +0.000 A 
ATOM     30  C   UNL     1       4.806   5.377  18.181  0.00  0.00    +0.000 A 
ATOM     31  H   UNL     1       6.169   2.745  19.388  0.00  0.00    +0.000 HD
ENDBRANCH  20  21
ENDBRANCH  19  20
ENDBRANCH   4  19
TORSDOF 7
ENDMDL
MODEL 4
REMARK VINA RESULT:      -7.4      2.914      5.516
REMARK  Name = 
REMARK  9 active torsions:
REMARK  status: ('A' for Active; 'I' for Inactive)
REMARK    1  A    between atoms: C_1  and  O_2
REMARK    2  A    between atoms: O_2  and  C_3
REMARK    3  A    between atoms: C_3  and  C_4
REMARK    4  A    between atoms: C_4  and  N_5
REMARK    5  A    between atoms: N_5  and  C_6
REMARK    6  A    between atoms: N_9  and  C_10
REMARK    7  A    between atoms: C_10  and  C_11
REMARK    8  A    between atoms: C_11  and  C_12
REMARK    9  A    between atoms: C_13  and  C_14
REMARK                            x       y       z     vdW  Elec       q    Type
REMARK                         _______ _______ _______ _____ _____    ______ ____
ROOT
ATOM      1  C   UNL     1       4.842   4.640  18.448  0.00  0.00    +0.000 A 
ATOM      2  N   UNL     1       4.612   5.967  18.242  0.00  0.00    +0.000 NA
ATOM      3  C   UNL     1       3.358   6.425  18.059  0.00  0.00    +0.000 A 
ATOM      4  N   UNL     1       3.241   7.806  17.953  0.00  0.00    +0.000 N 
ATOM      5  N   UNL     1       2.247   5.671  18.006  0.00  0.00    +0.000 NA
ATOM      6  C   UNL     1       2.508   4.374  18.160  0.00  0.00    +0.000 A 
ATOM      7  N   UNL     1       1.608   3.352  18.123  0.00  0.00    +0.000 N 
ATOM      8  C   UNL     1       2.299   2.191  18.327  0.00  0.00    +0.000 A 
ATOM      9  N   UNL     1       3.585   2.411  18.513  0.00  0.00    +0.000 NA
ATOM     10  C   UNL     1       3.733   3.779  18.388  0.00  0.00    +0.000 A 
ATOM     11  H   UNL     1       3.680   8.079  17.082  0.00  0.00    +0.000 HD
ATOM     12  H   UNL     1       0.617   3.457  17.960  0.00  0.00    +0.000 HD
ENDROOT
BRANCH   1  13
ATOM     13  N   UNL     1       6.135   4.163  18.672  0.00  0.00    +0.000 N 
ATOM     14  H   UNL     1       6.282   3.975  19.666  0.00  0.00    +0.000 HD
BRANCH  13  15
ATOM     15  C   UNL     1       7.233   4.911  18.065  0.00  0.00    +0.000 C 
BRANCH  15  16
ATOM     16  C   UNL     1       7.437   4.503  16.601  0.00  0.00    +0.000 C 
BRANCH  16  18
ATOM     17  C   UNL     1       5.986   5.343  14.941  0.00  0.00    +0.000 C 
ATOM     18  O   UNL     1       7.130   5.611  15.742  0.00  0.00    +0.000 OA
ENDBRANCH  16  18
ENDBRANCH  15  16
ENDBRANCH  13  15
ENDBRANCH   1  13
BRANCH   4  19
ATOM     19  C   UNL     1       1.900   8.341  18.179  0.00  0.00    +0.000 C 
BRANCH  19  20
ATOM     20  C   UNL     1       1.912   9.862  17.946  0.00  0.00    +0.000 C 
BRANCH  20  21
ATOM     21  C   UNL     1       1.308  10.637  19.072  0.00  0.00    +0.000 A 
ATOM     22  C   UNL     1       1.244  12.018  19.160  0.00  0.00    +0.000 A 
ATOM     23  C   UNL     1       1.715  13.083  18.236  0.00  0.00    +0.000 C 
ATOM     24  N   UNL     1       0.630  12.330  20.344  0.00  0.00    +0.000 N 
ATOM     25  C   UNL     1       0.299  11.191  21.037  0.00  0.00    +0.000 A 
ATOM     26  C   UNL     1      -0.330  11.054  22.279  0.00  0.00    +0.000 A 
ATOM     27  C   UNL     1      -0.538   9.760  22.761  0.00  0.00    +0.000 A 
ATOM     28  C   UNL     1      -0.127   8.651  22.026  0.00  0.00    +0.000 A 
ATOM     29  C   UNL     1       0.501   8.808  20.782  0.00  0.00    +0.000 A 
ATOM     30  C   UNL     1       0.717  10.107  20.269  0.00  0.00    +0.000 A 
ATOM     31  H   UNL     1       0.452  13.270  20.676  0.00  0.00    +0.000 HD
ENDBRANCH  20  21
ENDBRANCH  19  20
ENDBRANCH   4  19
TORSDOF 7
ENDMDL
MODEL 5
REMARK VINA RESULT:      -7.4      3.342      6.028
REMARK  Name = 
REMARK  9 active torsions:
REMARK  status: ('A' for Active; 'I' for Inactive)
REMARK    1  A    between atoms: C_1  and  O_2
REMARK    2  A    between atoms: O_2  and  C_3
REMARK    3  A    between atoms: C_3  and  C_4
REMARK    4  A    between atoms: C_4  and  N_5
REMARK    5  A    between atoms: N_5  and  C_6
REMARK    6  A    between atoms: N_9  and  C_10
REMARK    7  A    between atoms: C_10  and  C_11
REMARK    8  A    between atoms: C_11  and  C_12
REMARK    9  A    between atoms: C_13  and  C_14
REMARK                            x       y       z     vdW  Elec       q    Type
REMARK                         _______ _______ _______ _____ _____    ______ ____
ROOT
ATOM      1  C   UNL     1       4.466   4.310  19.016  0.00  0.00    +0.000 A 
ATOM      2  N   UNL     1       4.105   5.586  19.328  0.00  0.00    +0.000 NA
ATOM      3  C   UNL     1       2.830   5.879  19.651  0.00  0.00    +0.000 A 
ATOM      4  N   UNL     1       2.604   7.194  20.040  0.00  0.00    +0.000 N 
ATOM      5  N   UNL     1       1.803   5.012  19.654  0.00  0.00    +0.000 NA
ATOM      6  C   UNL     1       2.175   3.785  19.297  0.00  0.00    +0.000 A 
ATOM      7  N   UNL     1       1.370   2.694  19.171  0.00  0.00    +0.000 N 
ATOM      8  C   UNL     1       2.158   1.646  18.787  0.00  0.00    +0.000 A 
ATOM      9  N   UNL     1       3.424   1.996  18.682  0.00  0.00    +0.000 NA
ATOM     10  C   UNL     1       3.445   3.345  18.978  0.00  0.00    +0.000 A 
ATOM     11  H   UNL     1       2.739   7.777  19.223  0.00  0.00    +0.000 HD
ATOM     12  H   UNL     1       0.371   2.687  19.325  0.00  0.00    +0.000 HD
ENDROOT
BRANCH   1  13
ATOM     13  N   UNL     1       5.791   3.994  18.714  0.00  0.00    +0.000 N 
ATOM     14  H   UNL     1       6.166   3.328  19.392  0.00  0.00    +0.000 HD
BRANCH  13  15
ATOM     15  C   UNL     1       6.696   5.109  18.449  0.00  0.00    +0.000 C 
BRANCH  15  16
ATOM     16  C   UNL     1       7.068   5.180  16.963  0.00  0.00    +0.000 C 
BRANCH  16  18
ATOM     17  C   UNL     1       7.548   7.416  17.538  0.00  0.00    +0.000 C 
ATOM     18  O   UNL     1       7.058   6.546  16.526  0.00  0.00    +0.000 OA
ENDBRANCH  16  18
ENDBRANCH  15  16
ENDBRANCH  13  15
ENDBRANCH   1  13
BRANCH   4  19
ATOM     19  C   UNL     1       1.366   7.425  20.782  0.00  0.00    +0.000 C 
BRANCH  19  20
ATOM     20  C   UNL     1       1.452   8.779  21.507  0.00  0.00    +0.000 C 
BRANCH  20  21
ATOM     21  C   UNL     1       0.557   9.822  20.919  0.00  0.00    +0.000 A 
ATOM     22  C   UNL     1       0.564  10.242  19.599  0.00  0.00    +0.000 A 
ATOM     23  C   UNL     1       1.395   9.821  18.439  0.00  0.00    +0.000 C 
ATOM     24  N   UNL     1      -0.392  11.214  19.468  0.00  0.00    +0.000 N 
ATOM     25  C   UNL     1      -1.016  11.448  20.669  0.00  0.00    +0.000 A 
ATOM     26  C   UNL     1      -2.038  12.352  20.981  0.00  0.00    +0.000 A 
ATOM     27  C   UNL     1      -2.487  12.391  22.303  0.00  0.00    +0.000 A 
ATOM     28  C   UNL     1      -1.930  11.558  23.270  0.00  0.00    +0.000 A 
ATOM     29  C   UNL     1      -0.908  10.657  22.937  0.00  0.00    +0.000 A 
ATOM     30  C   UNL     1      -0.440  10.594  21.606  0.00  0.00    +0.000 A 
ATOM     31  H   UNL     1      -0.606  11.707  18.610  0.00  0.00    +0.000 HD
ENDBRANCH  20  21
ENDBRANCH  19  20
ENDBRANCH   4  19
TORSDOF 7
ENDMDL
MODEL 6
REMARK VINA RESULT:      -7.4      4.125      8.008
REMARK  Name = 
REMARK  9 active torsions:
REMARK  status: ('A' for Active; 'I' for Inactive)
REMARK    1  A    between atoms: C_1  and  O_2
REMARK    2  A    between atoms: O_2  and  C_3
REMARK    3  A    between atoms: C_3  and  C_4
REMARK    4  A    between atoms: C_4  and  N_5
REMARK    5  A    between atoms: N_5  and  C_6
REMARK    6  A    between atoms: N_9  and  C_10
REMARK    7  A    between atoms: C_10  and  C_11
REMARK    8  A    between atoms: C_11  and  C_12
REMARK    9  A    between atoms: C_13  and  C_14
REMARK                            x       y       z     vdW  Elec       q    Type
REMARK                         _______ _______ _______ _____ _____    ______ ____
ROOT
ATOM      1  C   UNL     1       0.402  10.524  19.903  0.00  0.00    +0.000 A 
ATOM      2  N   UNL     1       1.209   9.529  19.435  0.00  0.00    +0.000 NA
ATOM      3  C   UNL     1       1.443   8.430  20.178  0.00  0.00    +0.000 A 
ATOM      4  N   UNL     1       2.204   7.446  19.558  0.00  0.00    +0.000 N 
ATOM      5  N   UNL     1       0.982   8.210  21.422  0.00  0.00    +0.000 NA
ATOM      6  C   UNL     1       0.239   9.220  21.871  0.00  0.00    +0.000 A 
ATOM      7  N   UNL     1      -0.343   9.318  23.099  0.00  0.00    +0.000 N 
ATOM      8  C   UNL     1      -1.011  10.510  23.140  0.00  0.00    +0.000 A 
ATOM      9  N   UNL     1      -0.908  11.170  22.005  0.00  0.00    +0.000 NA
ATOM     10  C   UNL     1      -0.106  10.379  21.205  0.00  0.00    +0.000 A 
ATOM     11  H   UNL     1       3.141   7.814  19.450  0.00  0.00    +0.000 HD
ATOM     12  H   UNL     1      -0.271   8.629  23.833  0.00  0.00    +0.000 HD
ENDROOT
BRANCH   1  13
ATOM     13  N   UNL     1       0.128  11.649  19.125  0.00  0.00    +0.000 N 
ATOM     14  H   UNL     1       0.038  11.393  18.140  0.00  0.00    +0.000 HD
BRANCH  13  15
ATOM     15  C   UNL     1       0.974  12.822  19.333  0.00  0.00    +0.000 C 
BRANCH  15  16
ATOM     16  C   UNL     1       2.214  12.778  18.430  0.00  0.00    +0.000 C 
BRANCH  16  18
ATOM     17  C   UNL     1       2.148  15.076  18.958  0.00  0.00    +0.000 C 
ATOM     18  O   UNL     1       2.545  14.105  17.998  0.00  0.00    +0.000 OA
ENDBRANCH  16  18
ENDBRANCH  15  16
ENDBRANCH  13  15
ENDBRANCH   1  13
BRANCH   4  19
ATOM     19  C   UNL     1       2.113   6.114  20.153  0.00  0.00    +0.000 C 
BRANCH  19  20
ATOM     20  C   UNL     1       2.319   5.053  19.059  0.00  0.00    +0.000 C 
BRANCH  20  21
ATOM     21  C   UNL     1       3.745   4.633  18.904  0.00  0.00    +0.000 A 
ATOM     22  C   UNL     1       4.316   3.492  19.444  0.00  0.00    +0.000 A 
ATOM     23  C   UNL     1       3.737   2.408  20.282  0.00  0.00    +0.000 C 
ATOM     24  N   UNL     1       5.637   3.479  19.085  0.00  0.00    +0.000 N 
ATOM     25  C   UNL     1       5.948   4.584  18.331  0.00  0.00    +0.000 A 
ATOM     26  C   UNL     1       7.172   4.964  17.767  0.00  0.00    +0.000 A 
ATOM     27  C   UNL     1       7.211   6.160  17.047  0.00  0.00    +0.000 A 
ATOM     28  C   UNL     1       6.068   6.943  16.903  0.00  0.00    +0.000 A 
ATOM     29  C   UNL     1       4.850   6.545  17.475  0.00  0.00    +0.000 A 
ATOM     30  C   UNL     1       4.783   5.336  18.203  0.00  0.00    +0.000 A 
ATOM     31  H   UNL     1       6.303   2.762  19.345  0.00  0.00    +0.000 HD
ENDBRANCH  20  21
ENDBRANCH  19  20
ENDBRANCH   4  19
TORSDOF 7
ENDMDL
MODEL 7
REMARK VINA RESULT:      -7.4      3.182      5.769
REMARK  Name = 
REMARK  9 active torsions:
REMARK  status: ('A' for Active; 'I' for Inactive)
REMARK    1  A    between atoms: C_1  and  O_2
REMARK    2  A    between atoms: O_2  and  C_3
REMARK    3  A    between atoms: C_3  and  C_4
REMARK    4  A    between atoms: C_4  and  N_5
REMARK    5  A    between atoms: N_5  and  C_6
REMARK    6  A    between atoms: N_9  and  C_10
REMARK    7  A    between atoms: C_10  and  C_11
REMARK    8  A    between atoms: C_11  and  C_12
REMARK    9  A    between atoms: C_13  and  C_14
REMARK                            x       y       z     vdW  Elec       q    Type
REMARK                         _______ _______ _______ _____ _____    ______ ____
ROOT
ATOM      1  C   UNL     1       3.870   4.236  17.310  0.00  0.00    +0.000 A 
ATOM      2  N   UNL     1       3.132   5.195  17.937  0.00  0.00    +0.000 NA
ATOM      3  C   UNL     1       3.456   6.498  17.816  0.00  0.00    +0.000 A 
ATOM      4  N   UNL     1       2.575   7.386  18.423  0.00  0.00    +0.000 N 
ATOM      5  N   UNL     1       4.514   6.985  17.147  0.00  0.00    +0.000 NA
ATOM      6  C   UNL     1       5.245   6.022  16.587  0.00  0.00    +0.000 A 
ATOM      7  N   UNL     1       6.393   6.183  15.872  0.00  0.00    +0.000 N 
ATOM      8  C   UNL     1       6.810   4.942  15.483  0.00  0.00    +0.000 A 
ATOM      9  N   UNL     1       5.986   3.997  15.888  0.00  0.00    +0.000 NA
ATOM     10  C   UNL     1       5.008   4.662  16.603  0.00  0.00    +0.000 A 
ATOM     11  H   UNL     1       2.658   7.254  19.423  0.00  0.00    +0.000 HD
ATOM     12  H   UNL     1       6.843   7.069  15.687  0.00  0.00    +0.000 HD
ENDROOT
BRANCH   1  13
ATOM     13  N   UNL     1       3.521   2.888  17.402  0.00  0.00    +0.000 N 
ATOM     14  H   UNL     1       3.542   2.447  16.481  0.00  0.00    +0.000 HD
BRANCH  13  15
ATOM     15  C   UNL     1       2.316   2.566  18.162  0.00  0.00    +0.000 C 
BRANCH  15  16
ATOM     16  C   UNL     1       2.654   2.234  19.622  0.00  0.00    +0.000 C 
BRANCH  16  18
ATOM     17  C   UNL     1       1.534   2.596  21.666  0.00  0.00    +0.000 C 
ATOM     18  O   UNL     1       2.052   3.205  20.490  0.00  0.00    +0.000 OA
ENDBRANCH  16  18
ENDBRANCH  15  16
ENDBRANCH  13  15
ENDBRANCH   1  13
BRANCH   4  19
ATOM     19  C   UNL     1       2.660   8.769  17.959  0.00  0.00    +0.000 C 
BRANCH  19  20
ATOM     20  C   UNL     1       1.251   9.385  17.935  0.00  0.00    +0.000 C 
BRANCH  20  21
ATOM     21  C   UNL     1       0.982  10.291  19.094  0.00  0.00    +0.000 A 
ATOM     22  C   UNL     1       1.277  11.643  19.148  0.00  0.00    +0.000 A 
ATOM     23  C   UNL     1       1.901  12.553  18.151  0.00  0.00    +0.000 C 
ATOM     24  N   UNL     1       0.888  12.103  20.379  0.00  0.00    +0.000 N 
ATOM     25  C   UNL     1       0.357  11.086  21.133  0.00  0.00    +0.000 A 
ATOM     26  C   UNL     1      -0.153  11.115  22.436  0.00  0.00    +0.000 A 
ATOM     27  C   UNL     1      -0.628   9.917  22.974  0.00  0.00    +0.000 A 
ATOM     28  C   UNL     1      -0.589   8.738  22.233  0.00  0.00    +0.000 A 
ATOM     29  C   UNL     1      -0.075   8.729  20.928  0.00  0.00    +0.000 A 
ATOM     30  C   UNL     1       0.405   9.930  20.359  0.00  0.00    +0.000 A 
ATOM     31  H   UNL     1       0.988  13.058  20.700  0.00  0.00    +0.000 HD
ENDBRANCH  20  21
ENDBRANCH  19  20
ENDBRANCH   4  19
TORSDOF 7
ENDMDL
MODEL 8
REMARK VINA RESULT:      -7.4      4.176      8.039
REMARK  Name = 
REMARK  9 active torsions:
REMARK  status: ('A' for Active; 'I' for Inactive)
REMARK    1  A    between atoms: C_1  and  O_2
REMARK    2  A    between atoms: O_2  and  C_3
REMARK    3  A    between atoms: C_3  and  C_4
REMARK    4  A    between atoms: C_4  and  N_5
REMARK    5  A    between atoms: N_5  and  C_6
REMARK    6  A    between atoms: N_9  and  C_10
REMARK    7  A    between atoms: C_10  and  C_11
REMARK    8  A    between atoms: C_11  and  C_12
REMARK    9  A    between atoms: C_13  and  C_14
REMARK                            x       y       z     vdW  Elec       q    Type
REMARK                         _______ _______ _______ _____ _____    ______ ____
ROOT
ATOM      1  C   UNL     1       1.233   8.683  20.249  0.00  0.00    +0.000 A 
ATOM      2  N   UNL     1       1.897   7.710  19.565  0.00  0.00    +0.000 NA
ATOM      3  C   UNL     1       2.464   7.975  18.371  0.00  0.00    +0.000 A 
ATOM      4  N   UNL     1       3.192   6.930  17.815  0.00  0.00    +0.000 N 
ATOM      5  N   UNL     1       2.404   9.148  17.718  0.00  0.00    +0.000 NA
ATOM      6  C   UNL     1       1.707  10.064  18.387  0.00  0.00    +0.000 A 
ATOM      7  N   UNL     1       1.435  11.336  17.982  0.00  0.00    +0.000 N 
ATOM      8  C   UNL     1       0.696  11.930  18.966  0.00  0.00    +0.000 A 
ATOM      9  N   UNL     1       0.497  11.121  19.986  0.00  0.00    +0.000 NA
ATOM     10  C   UNL     1       1.109   9.936  19.625  0.00  0.00    +0.000 A 
ATOM     11  H   UNL     1       2.532   6.205  17.563  0.00  0.00    +0.000 HD
ATOM     12  H   UNL     1       1.727  11.742  17.104  0.00  0.00    +0.000 HD
ENDROOT
BRANCH   1  13
ATOM     13  N   UNL     1       0.673   8.424  21.501  0.00  0.00    +0.000 N 
ATOM     14  H   UNL     1      -0.311   8.168  21.409  0.00  0.00    +0.000 HD
BRANCH  13  15
ATOM     15  C   UNL     1       0.910   9.411  22.551  0.00  0.00    +0.000 C 
BRANCH  15  16
ATOM     16  C   UNL     1      -0.398   9.795  23.255  0.00  0.00    +0.000 C 
BRANCH  16  18
ATOM     17  C   UNL     1      -1.775  11.646  22.763  0.00  0.00    +0.000 C 
ATOM     18  O   UNL     1      -0.525  11.224  23.294  0.00  0.00    +0.000 OA
ENDBRANCH  16  18
ENDBRANCH  15  16
ENDBRANCH  13  15
ENDBRANCH   1  13
BRANCH   4  19
ATOM     19  C   UNL     1       4.140   7.312  16.771  0.00  0.00    +0.000 C 
BRANCH  19  20
ATOM     20  C   UNL     1       4.995   6.092  16.388  0.00  0.00    +0.000 C 
BRANCH  20  21
ATOM     21  C   UNL     1       5.091   5.073  17.477  0.00  0.00    +0.000 A 
ATOM     22  C   UNL     1       6.096   4.997  18.428  0.00  0.00    +0.000 A 
ATOM     23  C   UNL     1       7.300   5.840  18.652  0.00  0.00    +0.000 C 
ATOM     24  N   UNL     1       5.826   3.921  19.232  0.00  0.00    +0.000 N 
ATOM     25  C   UNL     1       4.678   3.286  18.827  0.00  0.00    +0.000 A 
ATOM     26  C   UNL     1       4.050   2.154  19.359  0.00  0.00    +0.000 A 
ATOM     27  C   UNL     1       2.882   1.708  18.736  0.00  0.00    +0.000 A 
ATOM     28  C   UNL     1       2.369   2.370  17.624  0.00  0.00    +0.000 A 
ATOM     29  C   UNL     1       3.013   3.504  17.106  0.00  0.00    +0.000 A 
ATOM     30  C   UNL     1       4.192   3.980  17.721  0.00  0.00    +0.000 A 
ATOM     31  H   UNL     1       6.397   3.622  20.012  0.00  0.00    +0.000 HD
ENDBRANCH  20  21
ENDBRANCH  19  20
ENDBRANCH   4  19
TORSDOF 7
ENDMDL
MODEL 9
REMARK VINA RESULT:      -7.4      3.381      5.747
REMARK  Name = 
REMARK  9 active torsions:
REMARK  status: ('A' for Active; 'I' for Inactive)
REMARK    1  A    between atoms: C_1  and  O_2
REMARK    2  A    between atoms: O_2  and  C_3
REMARK    3  A    between atoms: C_3  and  C_4
REMARK    4  A    between atoms: C_4  and  N_5
REMARK    5  A    between atoms: N_5  and  C_6
REMARK    6  A    between atoms: N_9  and  C_10
REMARK    7  A    between atoms: C_10  and  C_11
REMARK    8  A    between atoms: C_11  and  C_12
REMARK    9  A    between atoms: C_13  and  C_14
REMARK                            x       y       z     vdW  Elec       q    Type
REMARK                         _______ _______ _______ _____ _____    ______ ____
ROOT
ATOM      1  C   UNL     1       4.601   4.729  18.879  0.00  0.00    +0.000 A 
ATOM      2  N   UNL     1       4.213   5.929  18.362  0.00  0.00    +0.000 NA
ATOM      3  C   UNL     1       3.050   6.494  18.739  0.00  0.00    +0.000 A 
ATOM      4  N   UNL     1       2.808   7.759  18.215  0.00  0.00    +0.000 N 
ATOM      5  N   UNL     1       2.152   5.955  19.581  0.00  0.00    +0.000 NA
ATOM      6  C   UNL     1       2.534   4.761  20.031  0.00  0.00    +0.000 A 
ATOM      7  N   UNL     1       1.836   3.946  20.869  0.00  0.00    +0.000 N 
ATOM      8  C   UNL     1       2.591   2.825  21.073  0.00  0.00    +0.000 A 
ATOM      9  N   UNL     1       3.740   2.885  20.432  0.00  0.00    +0.000 NA
ATOM     10  C   UNL     1       3.707   4.089  19.755  0.00  0.00    +0.000 A 
ATOM     11  H   UNL     1       2.661   7.649  17.220  0.00  0.00    +0.000 HD
ATOM     12  H   UNL     1       0.921   4.147  21.248  0.00  0.00    +0.000 HD
ENDROOT
BRANCH   1  13
ATOM     13  N   UNL     1       5.821   4.154  18.519  0.00  0.00    +0.000 N 
ATOM     14  H   UNL     1       6.087   3.428  19.186  0.00  0.00    +0.000 HD
BRANCH  13  15
ATOM     15  C   UNL     1       6.917   5.066  18.203  0.00  0.00    +0.000 C 
BRANCH  15  16
ATOM     16  C   UNL     1       7.039   5.281  16.689  0.00  0.00    +0.000 C 
BRANCH  16  18
ATOM     17  C   UNL     1       5.878   4.319  14.875  0.00  0.00    +0.000 C 
ATOM     18  O   UNL     1       6.710   4.067  15.999  0.00  0.00    +0.000 OA
ENDBRANCH  16  18
ENDBRANCH  15  16
ENDBRANCH  13  15
ENDBRANCH   1  13
BRANCH   4  19
ATOM     19  C   UNL     1       1.799   8.548  18.920  0.00  0.00    +0.000 C 
BRANCH  19  20
ATOM     20  C   UNL     1       1.541   9.852  18.147  0.00  0.00    +0.000 C 
BRANCH  20  21
ATOM     21  C   UNL     1       0.324  10.584  18.613  0.00  0.00    +0.000 A 
ATOM     22  C   UNL     1       0.276  11.485  19.664  0.00  0.00    +0.000 A 
ATOM     23  C   UNL     1       1.334  11.974  20.588  0.00  0.00    +0.000 C 
ATOM     24  N   UNL     1      -1.018  11.922  19.777  0.00  0.00    +0.000 N 
ATOM     25  C   UNL     1      -1.818  11.324  18.834  0.00  0.00    +0.000 A 
ATOM     26  C   UNL     1      -3.189  11.479  18.601  0.00  0.00    +0.000 A 
ATOM     27  C   UNL     1      -3.760  10.730  17.569  0.00  0.00    +0.000 A 
ATOM     28  C   UNL     1      -2.984   9.861  16.806  0.00  0.00    +0.000 A 
ATOM     29  C   UNL     1      -1.611   9.720  17.054  0.00  0.00    +0.000 A 
ATOM     30  C   UNL     1      -1.008  10.471  18.088  0.00  0.00    +0.000 A 
ATOM     31  H   UNL     1      -1.349  12.585  20.467  0.00  0.00    +0.000 HD
ENDBRANCH  20  21
ENDBRANCH  19  20
ENDBRANCH   4  19
TORSDOF 7
ENDMDL
