MODEL 1
REMARK VINA RESULT:      -8.0      0.000      0.000
REMARK  Name = 
REMARK  3 active torsions:
REMARK  status: ('A' for Active; 'I' for Inactive)
REMARK    1  A    between atoms: C_2  and  C_10
REMARK    2  A    between atoms: C_3  and  C_4
REMARK    3  A    between atoms: N_11  and  N_12
REMARK                            x       y       z     vdW  Elec       q    Type
REMARK                         _______ _______ _______ _____ _____    ______ ____
ROOT
ATOM      1  N   UNL     1       7.160   6.917  17.257  0.00  0.00    +0.000 N 
ATOM      2  C   UNL     1       5.703   7.072  17.051  0.00  0.00    +0.000 C 
ATOM      3  C   UNL     1       5.084   5.705  16.673  0.00  0.00    +0.000 C 
ATOM      4  N   UNL     1       5.424   4.742  17.725  0.00  0.00    +0.000 N 
ATOM      5  C   UNL     1       4.518   3.784  18.105  0.00  0.00    +0.000 A 
ATOM      6  C   UNL     1       4.567   3.264  19.401  0.00  0.00    +0.000 A 
ATOM      7  C   UNL     1       3.596   2.371  19.837  0.00  0.00    +0.000 A 
ATOM      8  C   UNL     1       2.598   1.991  18.959  0.00  0.00    +0.000 A 
ATOM      9  C   UNL     1       2.614   2.532  17.688  0.00  0.00    +0.000 A 
ATOM     10  N   UNL     1       3.535   3.423  17.254  0.00  0.00    +0.000 NA
ATOM     11  C   UNL     1       6.852   4.603  18.006  0.00  0.00    +0.000 C 
ATOM     12  C   UNL     1       7.412   5.986  18.378  0.00  0.00    +0.000 C 
ENDROOT
BRANCH   1  14
ATOM     13  C   UNL     1       7.774   8.891  17.962  0.00  0.00    +0.000 C 
ATOM     14  N   UNL     1       7.972   7.983  17.061  0.00  0.00    +0.000 NA
BRANCH  13  16
ATOM     15 CL   UNL     1       7.924  11.529  17.341  0.00  0.00    +0.000 Cl
ATOM     16  C   UNL     1       8.562  10.135  18.138  0.00  0.00    +0.000 C 
ATOM     17  C   UNL     1       9.625  10.150  18.948  0.00  0.00    +0.000 C 
BRANCH  17  18
ATOM     18  C   UNL     1      10.381  11.353  19.292  0.00  0.00    +0.000 A 
ATOM     19  C   UNL     1      11.491  11.714  18.519  0.00  0.00    +0.000 A 
ATOM     20  C   UNL     1      12.222  12.860  18.832  0.00  0.00    +0.000 A 
ATOM     21  C   UNL     1      11.847  13.648  19.919  0.00  0.00    +0.000 A 
ATOM     22  C   UNL     1      10.748  13.287  20.698  0.00  0.00    +0.000 A 
ATOM     23  C   UNL     1      10.016  12.139  20.389  0.00  0.00    +0.000 A 
ENDBRANCH  17  18
ENDBRANCH  13  16
ENDBRANCH   1  14
TORSDOF 3
ENDMDL
MODEL 2
REMARK VINA RESULT:      -8.0      0.164      1.021
REMARK  Name = 
REMARK  3 active torsions:
REMARK  status: ('A' for Active; 'I' for Inactive)
REMARK    1  A    between atoms: C_2  and  C_10
REMARK    2  A    between atoms: C_3  and  C_4
REMARK    3  A    between atoms: N_11  and  N_12
REMARK                            x       y       z     vdW  Elec       q    Type
REMARK                         _______ _______ _______ _____ _____    ______ ____
ROOT
ATOM      1  N   UNL     1       7.048   6.847  17.251  0.00  0.00    +0.000 N 
ATOM      2  C   UNL     1       5.615   6.958  16.905  0.00  0.00    +0.000 C 
ATOM      3  C   UNL     1       5.045   5.554  16.590  0.00  0.00    +0.000 C 
ATOM      4  N   UNL     1       5.300   4.688  17.745  0.00  0.00    +0.000 N 
ATOM      5  C   UNL     1       4.373   3.749  18.123  0.00  0.00    +0.000 A 
ATOM      6  C   UNL     1       4.311   3.339  19.457  0.00  0.00    +0.000 A 
ATOM      7  C   UNL     1       3.314   2.468  19.880  0.00  0.00    +0.000 A 
ATOM      8  C   UNL     1       2.403   1.999  18.952  0.00  0.00    +0.000 A 
ATOM      9  C   UNL     1       2.527   2.433  17.646  0.00  0.00    +0.000 A 
ATOM     10  N   UNL     1       3.474   3.301  17.222  0.00  0.00    +0.000 NA
ATOM     11  C   UNL     1       6.698   4.598  18.162  0.00  0.00    +0.000 C 
ATOM     12  C   UNL     1       7.209   6.016  18.464  0.00  0.00    +0.000 C 
ENDROOT
BRANCH   1  14
ATOM     13  C   UNL     1       7.700   8.811  17.951  0.00  0.00    +0.000 C 
ATOM     14  N   UNL     1       7.864   7.907  17.038  0.00  0.00    +0.000 NA
BRANCH  13  16
ATOM     15 CL   UNL     1       7.888  11.436  17.289  0.00  0.00    +0.000 Cl
ATOM     16  C   UNL     1       8.503  10.047  18.112  0.00  0.00    +0.000 C 
ATOM     17  C   UNL     1       9.561  10.061  18.928  0.00  0.00    +0.000 C 
BRANCH  17  18
ATOM     18  C   UNL     1      10.331  11.259  19.257  0.00  0.00    +0.000 A 
ATOM     19  C   UNL     1       9.937  12.057  20.338  0.00  0.00    +0.000 A 
ATOM     20  C   UNL     1      10.662  13.202  20.668  0.00  0.00    +0.000 A 
ATOM     21  C   UNL     1      11.783  13.554  19.918  0.00  0.00    +0.000 A 
ATOM     22  C   UNL     1      12.174  12.768  18.834  0.00  0.00    +0.000 A 
ATOM     23  C   UNL     1      11.448  11.623  18.500  0.00  0.00    +0.000 A 
ENDBRANCH  17  18
ENDBRANCH  13  16
ENDBRANCH   1  14
TORSDOF 3
ENDMDL
MODEL 3
REMARK VINA RESULT:      -7.7      0.894      1.842
REMARK  Name = 
REMARK  3 active torsions:
REMARK  status: ('A' for Active; 'I' for Inactive)
REMARK    1  A    between atoms: C_2  and  C_10
REMARK    2  A    between atoms: C_3  and  C_4
REMARK    3  A    between atoms: N_11  and  N_12
REMARK                            x       y       z     vdW  Elec       q    Type
REMARK                         _______ _______ _______ _____ _____    ______ ____
ROOT
ATOM      1  N   UNL     1       6.857   7.252  17.519  0.00  0.00    +0.000 N 
ATOM      2  C   UNL     1       7.308   6.089  18.314  0.00  0.00    +0.000 C 
ATOM      3  C   UNL     1       6.119   5.526  19.131  0.00  0.00    +0.000 C 
ATOM      4  N   UNL     1       5.034   5.208  18.199  0.00  0.00    +0.000 N 
ATOM      5  C   UNL     1       4.246   4.105  18.406  0.00  0.00    +0.000 A 
ATOM      6  C   UNL     1       3.631   3.481  17.316  0.00  0.00    +0.000 A 
ATOM      7  C   UNL     1       2.915   2.304  17.492  0.00  0.00    +0.000 A 
ATOM      8  C   UNL     1       2.803   1.775  18.765  0.00  0.00    +0.000 A 
ATOM      9  C   UNL     1       3.424   2.447  19.801  0.00  0.00    +0.000 A 
ATOM     10  N   UNL     1       4.148   3.579  19.645  0.00  0.00    +0.000 NA
ATOM     11  C   UNL     1       4.598   6.314  17.348  0.00  0.00    +0.000 C 
ATOM     12  C   UNL     1       5.813   6.830  16.560  0.00  0.00    +0.000 C 
ENDROOT
BRANCH   1  14
ATOM     13  C   UNL     1       7.646   9.246  17.936  0.00  0.00    +0.000 C 
ATOM     14  N   UNL     1       7.755   8.205  17.174  0.00  0.00    +0.000 NA
BRANCH  13  16
ATOM     15 CL   UNL     1       7.859  11.863  17.251  0.00  0.00    +0.000 Cl
ATOM     16  C   UNL     1       8.540  10.429  17.933  0.00  0.00    +0.000 C 
ATOM     17  C   UNL     1       9.739  10.369  18.520  0.00  0.00    +0.000 C 
BRANCH  17  18
ATOM     18  C   UNL     1      10.631  11.514  18.689  0.00  0.00    +0.000 A 
ATOM     19  C   UNL     1      10.809  12.068  19.962  0.00  0.00    +0.000 A 
ATOM     20  C   UNL     1      11.659  13.159  20.142  0.00  0.00    +0.000 A 
ATOM     21  C   UNL     1      12.333  13.702  19.049  0.00  0.00    +0.000 A 
ATOM     22  C   UNL     1      12.152  13.159  17.776  0.00  0.00    +0.000 A 
ATOM     23  C   UNL     1      11.300  12.069  17.594  0.00  0.00    +0.000 A 
ENDBRANCH  17  18
ENDBRANCH  13  16
ENDBRANCH   1  14
TORSDOF 3
ENDMDL
MODEL 4
REMARK VINA RESULT:      -7.7      5.571      7.854
REMARK  Name = 
REMARK  3 active torsions:
REMARK  status: ('A' for Active; 'I' for Inactive)
REMARK    1  A    between atoms: C_2  and  C_10
REMARK    2  A    between atoms: C_3  and  C_4
REMARK    3  A    between atoms: N_11  and  N_12
REMARK                            x       y       z     vdW  Elec       q    Type
REMARK                         _______ _______ _______ _____ _____    ______ ____
ROOT
ATOM      1  N   UNL     1       4.291   5.396  18.021  0.00  0.00    +0.000 N 
ATOM      2  C   UNL     1       4.637   6.496  17.096  0.00  0.00    +0.000 C 
ATOM      3  C   UNL     1       5.958   6.161  16.361  0.00  0.00    +0.000 C 
ATOM      4  N   UNL     1       5.793   4.868  15.691  0.00  0.00    +0.000 N 
ATOM      5  C   UNL     1       6.362   4.648  14.462  0.00  0.00    +0.000 A 
ATOM      6  C   UNL     1       5.786   3.718  13.592  0.00  0.00    +0.000 A 
ATOM      7  C   UNL     1       6.284   3.557  12.306  0.00  0.00    +0.000 A 
ATOM      8  C   UNL     1       7.371   4.315  11.912  0.00  0.00    +0.000 A 
ATOM      9  C   UNL     1       7.901   5.208  12.824  0.00  0.00    +0.000 A 
ATOM     10  N   UNL     1       7.413   5.398  14.071  0.00  0.00    +0.000 NA
ATOM     11  C   UNL     1       5.390   3.763  16.558  0.00  0.00    +0.000 C 
ATOM     12  C   UNL     1       4.075   4.147  17.258  0.00  0.00    +0.000 C 
ENDROOT
BRANCH   1  14
ATOM     13  C   UNL     1       2.921   6.795  18.989  0.00  0.00    +0.000 C 
ATOM     14  N   UNL     1       3.540   5.664  19.115  0.00  0.00    +0.000 NA
BRANCH  13  16
ATOM     15 CL   UNL     1       1.208   6.210  21.011  0.00  0.00    +0.000 Cl
ATOM     16  C   UNL     1       1.919   7.353  19.929  0.00  0.00    +0.000 C 
ATOM     17  C   UNL     1       1.691   8.669  19.966  0.00  0.00    +0.000 C 
BRANCH  17  18
ATOM     18  C   UNL     1       0.827   9.328  20.944  0.00  0.00    +0.000 A 
ATOM     19  C   UNL     1      -0.080  10.304  20.517  0.00  0.00    +0.000 A 
ATOM     20  C   UNL     1      -0.913  10.941  21.436  0.00  0.00    +0.000 A 
ATOM     21  C   UNL     1      -0.841  10.605  22.787  0.00  0.00    +0.000 A 
ATOM     22  C   UNL     1       0.069   9.640  23.220  0.00  0.00    +0.000 A 
ATOM     23  C   UNL     1       0.905   9.003  22.302  0.00  0.00    +0.000 A 
ENDBRANCH  17  18
ENDBRANCH  13  16
ENDBRANCH   1  14
TORSDOF 3
ENDMDL
MODEL 5
REMARK VINA RESULT:      -7.7      5.602      7.894
REMARK  Name = 
REMARK  3 active torsions:
REMARK  status: ('A' for Active; 'I' for Inactive)
REMARK    1  A    between atoms: C_2  and  C_10
REMARK    2  A    between atoms: C_3  and  C_4
REMARK    3  A    between atoms: N_11  and  N_12
REMARK                            x       y       z     vdW  Elec       q    Type
REMARK                         _______ _______ _______ _____ _____    ______ ____
ROOT
ATOM      1  N   UNL     1       4.224   5.296  17.931  0.00  0.00    +0.000 N 
ATOM      2  C   UNL     1       4.589   6.426  17.049  0.00  0.00    +0.000 C 
ATOM      3  C   UNL     1       5.934   6.123  16.346  0.00  0.00    +0.000 C 
ATOM      4  N   UNL     1       5.802   4.849  15.634  0.00  0.00    +0.000 N 
ATOM      5  C   UNL     1       6.410   4.670  14.417  0.00  0.00    +0.000 A 
ATOM      6  C   UNL     1       5.870   3.761  13.504  0.00  0.00    +0.000 A 
ATOM      7  C   UNL     1       6.409   3.641  12.229  0.00  0.00    +0.000 A 
ATOM      8  C   UNL     1       7.501   4.420  11.891  0.00  0.00    +0.000 A 
ATOM      9  C   UNL     1       7.994   5.291  12.844  0.00  0.00    +0.000 A 
ATOM     10  N   UNL     1       7.466   5.440  14.081  0.00  0.00    +0.000 NA
ATOM     11  C   UNL     1       5.382   3.715  16.456  0.00  0.00    +0.000 C 
ATOM     12  C   UNL     1       4.043   4.069  17.125  0.00  0.00    +0.000 C 
ENDROOT
BRANCH   1  14
ATOM     13  C   UNL     1       2.931   6.717  18.969  0.00  0.00    +0.000 C 
ATOM     14  N   UNL     1       3.437   5.526  19.008  0.00  0.00    +0.000 NA
BRANCH  13  16
ATOM     15 CL   UNL     1       1.184   6.119  20.958  0.00  0.00    +0.000 Cl
ATOM     16  C   UNL     1       1.929   7.273  19.910  0.00  0.00    +0.000 C 
ATOM     17  C   UNL     1       1.725   8.592  19.975  0.00  0.00    +0.000 C 
BRANCH  17  18
ATOM     18  C   UNL     1       0.864   9.245  20.960  0.00  0.00    +0.000 A 
ATOM     19  C   UNL     1       1.045   8.975  22.321  0.00  0.00    +0.000 A 
ATOM     20  C   UNL     1       0.234   9.591  23.274  0.00  0.00    +0.000 A 
ATOM     21  C   UNL     1      -0.763  10.478  22.868  0.00  0.00    +0.000 A 
ATOM     22  C   UNL     1      -0.953  10.743  21.512  0.00  0.00    +0.000 A 
ATOM     23  C   UNL     1      -0.144  10.125  20.557  0.00  0.00    +0.000 A 
ENDBRANCH  17  18
ENDBRANCH  13  16
ENDBRANCH   1  14
TORSDOF 3
ENDMDL
MODEL 6
REMARK VINA RESULT:      -7.6      1.314      1.377
REMARK  Name = 
REMARK  3 active torsions:
REMARK  status: ('A' for Active; 'I' for Inactive)
REMARK    1  A    between atoms: C_2  and  C_10
REMARK    2  A    between atoms: C_3  and  C_4
REMARK    3  A    between atoms: N_11  and  N_12
REMARK                            x       y       z     vdW  Elec       q    Type
REMARK                         _______ _______ _______ _____ _____    ______ ____
ROOT
ATOM      1  N   UNL     1       7.348   7.166  17.402  0.00  0.00    +0.000 N 
ATOM      2  C   UNL     1       5.896   7.303  17.156  0.00  0.00    +0.000 C 
ATOM      3  C   UNL     1       5.317   5.944  16.694  0.00  0.00    +0.000 C 
ATOM      4  N   UNL     1       5.642   4.939  17.709  0.00  0.00    +0.000 N 
ATOM      5  C   UNL     1       4.744   3.947  18.013  0.00  0.00    +0.000 A 
ATOM      6  C   UNL     1       4.762   3.367  19.284  0.00  0.00    +0.000 A 
ATOM      7  C   UNL     1       3.796   2.436  19.645  0.00  0.00    +0.000 A 
ATOM      8  C   UNL     1       2.834   2.080  18.718  0.00  0.00    +0.000 A 
ATOM      9  C   UNL     1       2.879   2.682  17.475  0.00  0.00    +0.000 A 
ATOM     10  N   UNL     1       3.796   3.610  17.115  0.00  0.00    +0.000 NA
ATOM     11  C   UNL     1       7.063   4.812  18.030  0.00  0.00    +0.000 C 
ATOM     12  C   UNL     1       7.583   6.186  18.485  0.00  0.00    +0.000 C 
ENDROOT
BRANCH   1  14
ATOM     13  C   UNL     1       8.065   9.006  18.335  0.00  0.00    +0.000 C 
ATOM     14  N   UNL     1       8.145   8.255  17.284  0.00  0.00    +0.000 NA
BRANCH  13  16
ATOM     15 CL   UNL     1       9.565  10.289  20.198  0.00  0.00    +0.000 Cl
ATOM     16  C   UNL     1       8.883  10.212  18.612  0.00  0.00    +0.000 C 
ATOM     17  C   UNL     1       9.130  11.096  17.641  0.00  0.00    +0.000 C 
BRANCH  17  18
ATOM     18  C   UNL     1      10.032  12.238  17.777  0.00  0.00    +0.000 A 
ATOM     19  C   UNL     1      11.414  12.024  17.822  0.00  0.00    +0.000 A 
ATOM     20  C   UNL     1      12.289  13.103  17.949  0.00  0.00    +0.000 A 
ATOM     21  C   UNL     1      11.785  14.400  18.033  0.00  0.00    +0.000 A 
ATOM     22  C   UNL     1      10.407  14.617  17.999  0.00  0.00    +0.000 A 
ATOM     23  C   UNL     1       9.530  13.539  17.875  0.00  0.00    +0.000 A 
ENDBRANCH  17  18
ENDBRANCH  13  16
ENDBRANCH   1  14
TORSDOF 3
ENDMDL
MODEL 7
REMARK VINA RESULT:      -7.6      1.352      1.639
REMARK  Name = 
REMARK  3 active torsions:
REMARK  status: ('A' for Active; 'I' for Inactive)
REMARK    1  A    between atoms: C_2  and  C_10
REMARK    2  A    between atoms: C_3  and  C_4
REMARK    3  A    between atoms: N_11  and  N_12
REMARK                            x       y       z     vdW  Elec       q    Type
REMARK                         _______ _______ _______ _____ _____    ______ ____
ROOT
ATOM      1  N   UNL     1       7.266   7.156  17.331  0.00  0.00    +0.000 N 
ATOM      2  C   UNL     1       5.801   7.269  17.166  0.00  0.00    +0.000 C 
ATOM      3  C   UNL     1       5.222   5.907  16.712  0.00  0.00    +0.000 C 
ATOM      4  N   UNL     1       5.620   4.892  17.691  0.00  0.00    +0.000 N 
ATOM      5  C   UNL     1       4.758   3.878  18.026  0.00  0.00    +0.000 A 
ATOM      6  C   UNL     1       4.856   3.277  19.284  0.00  0.00    +0.000 A 
ATOM      7  C   UNL     1       3.928   2.322  19.680  0.00  0.00    +0.000 A 
ATOM      8  C   UNL     1       2.924   1.963  18.800  0.00  0.00    +0.000 A 
ATOM      9  C   UNL     1       2.891   2.586  17.567  0.00  0.00    +0.000 A 
ATOM     10  N   UNL     1       3.769   3.537  17.174  0.00  0.00    +0.000 NA
ATOM     11  C   UNL     1       7.058   4.787  17.932  0.00  0.00    +0.000 C 
ATOM     12  C   UNL     1       7.577   6.163  18.383  0.00  0.00    +0.000 C 
ENDROOT
BRANCH   1  14
ATOM     13  C   UNL     1       8.040   8.967  18.274  0.00  0.00    +0.000 C 
ATOM     14  N   UNL     1       8.035   8.262  17.189  0.00  0.00    +0.000 NA
BRANCH  13  16
ATOM     15 CL   UNL     1       9.645  10.220  20.069  0.00  0.00    +0.000 Cl
ATOM     16  C   UNL     1       8.864  10.174  18.528  0.00  0.00    +0.000 C 
ATOM     17  C   UNL     1       9.042  11.083  17.566  0.00  0.00    +0.000 C 
BRANCH  17  18
ATOM     18  C   UNL     1       9.941  12.231  17.672  0.00  0.00    +0.000 A 
ATOM     19  C   UNL     1       9.409  13.506  17.892  0.00  0.00    +0.000 A 
ATOM     20  C   UNL     1      10.252  14.612  17.999  0.00  0.00    +0.000 A 
ATOM     21  C   UNL     1      11.632  14.446  17.885  0.00  0.00    +0.000 A 
ATOM     22  C   UNL     1      12.167  13.178  17.657  0.00  0.00    +0.000 A 
ATOM     23  C   UNL     1      11.324  12.071  17.547  0.00  0.00    +0.000 A 
ENDBRANCH  17  18
ENDBRANCH  13  16
ENDBRANCH   1  14
TORSDOF 3
ENDMDL
MODEL 8
REMARK VINA RESULT:      -7.3      3.176     10.372
REMARK  Name = 
REMARK  3 active torsions:
REMARK  status: ('A' for Active; 'I' for Inactive)
REMARK    1  A    between atoms: C_2  and  C_10
REMARK    2  A    between atoms: C_3  and  C_4
REMARK    3  A    between atoms: N_11  and  N_12
REMARK                            x       y       z     vdW  Elec       q    Type
REMARK                         _______ _______ _______ _____ _____    ______ ____
ROOT
ATOM      1  N   UNL     1       9.614  10.648  19.110  0.00  0.00    +0.000 N 
ATOM      2  C   UNL     1       9.461  11.713  20.125  0.00  0.00    +0.000 C 
ATOM      3  C   UNL     1      10.704  12.636  20.101  0.00  0.00    +0.000 C 
ATOM      4  N   UNL     1      10.865  13.151  18.738  0.00  0.00    +0.000 N 
ATOM      5  C   UNL     1      11.295  14.437  18.530  0.00  0.00    +0.000 A 
ATOM      6  C   UNL     1      10.928  15.107  17.360  0.00  0.00    +0.000 A 
ATOM      7  C   UNL     1      11.267  16.442  17.179  0.00  0.00    +0.000 A 
ATOM      8  C   UNL     1      11.991  17.086  18.166  0.00  0.00    +0.000 A 
ATOM      9  C   UNL     1      12.333  16.363  19.293  0.00  0.00    +0.000 A 
ATOM     10  N   UNL     1      11.989  15.071  19.498  0.00  0.00    +0.000 NA
ATOM     11  C   UNL     1      10.957  12.133  17.693  0.00  0.00    +0.000 C 
ATOM     12  C   UNL     1       9.700  11.250  17.761  0.00  0.00    +0.000 C 
ENDROOT
BRANCH   1  14
ATOM     13  C   UNL     1       8.468   9.039  18.179  0.00  0.00    +0.000 C 
ATOM     14  N   UNL     1       8.977   9.467  19.290  0.00  0.00    +0.000 NA
BRANCH  13  16
ATOM     15 CL   UNL     1       8.265   6.486  19.080  0.00  0.00    +0.000 Cl
ATOM     16  C   UNL     1       7.809   7.727  17.968  0.00  0.00    +0.000 C 
ATOM     17  C   UNL     1       6.861   7.593  17.036  0.00  0.00    +0.000 C 
BRANCH  17  18
ATOM     18  C   UNL     1       6.061   6.384  16.843  0.00  0.00    +0.000 A 
ATOM     19  C   UNL     1       4.837   6.255  17.510  0.00  0.00    +0.000 A 
ATOM     20  C   UNL     1       4.059   5.110  17.335  0.00  0.00    +0.000 A 
ATOM     21  C   UNL     1       4.503   4.090  16.495  0.00  0.00    +0.000 A 
ATOM     22  C   UNL     1       5.727   4.211  15.836  0.00  0.00    +0.000 A 
ATOM     23  C   UNL     1       6.508   5.354  16.011  0.00  0.00    +0.000 A 
ENDBRANCH  17  18
ENDBRANCH  13  16
ENDBRANCH   1  14
TORSDOF 3
ENDMDL
MODEL 9
REMARK VINA RESULT:      -7.2      3.196     10.357
REMARK  Name = 
REMARK  3 active torsions:
REMARK  status: ('A' for Active; 'I' for Inactive)
REMARK    1  A    between atoms: C_2  and  C_10
REMARK    2  A    between atoms: C_3  and  C_4
REMARK    3  A    between atoms: N_11  and  N_12
REMARK                            x       y       z     vdW  Elec       q    Type
REMARK                         _______ _______ _______ _____ _____    ______ ____
ROOT
ATOM      1  N   UNL     1       9.414  10.853  18.945  0.00  0.00    +0.000 N 
ATOM      2  C   UNL     1      10.367  11.221  17.876  0.00  0.00    +0.000 C 
ATOM      3  C   UNL     1      10.132  12.692  17.454  0.00  0.00    +0.000 C 
ATOM      4  N   UNL     1      10.243  13.534  18.649  0.00  0.00    +0.000 N 
ATOM      5  C   UNL     1      10.818  14.777  18.568  0.00  0.00    +0.000 A 
ATOM      6  C   UNL     1      11.432  15.328  19.696  0.00  0.00    +0.000 A 
ATOM      7  C   UNL     1      12.109  16.538  19.608  0.00  0.00    +0.000 A 
ATOM      8  C   UNL     1      12.144  17.195  18.391  0.00  0.00    +0.000 A 
ATOM      9  C   UNL     1      11.507  16.602  17.318  0.00  0.00    +0.000 A 
ATOM     10  N   UNL     1      10.866  15.412  17.379  0.00  0.00    +0.000 NA
ATOM     11  C   UNL     1       9.363  13.166  19.756  0.00  0.00    +0.000 C 
ATOM     12  C   UNL     1       9.641  11.701  20.135  0.00  0.00    +0.000 C 
ENDROOT
BRANCH   1  14
ATOM     13  C   UNL     1       8.253   9.184  18.147  0.00  0.00    +0.000 C 
ATOM     14  N   UNL     1       9.055   9.555  19.092  0.00  0.00    +0.000 NA
BRANCH  13  16
ATOM     15 CL   UNL     1       8.298   6.624  19.049  0.00  0.00    +0.000 Cl
ATOM     16  C   UNL     1       7.753   7.807  17.913  0.00  0.00    +0.000 C 
ATOM     17  C   UNL     1       6.867   7.568  16.942  0.00  0.00    +0.000 C 
BRANCH  17  18
ATOM     18  C   UNL     1       6.215   6.278  16.721  0.00  0.00    +0.000 A 
ATOM     19  C   UNL     1       4.950   6.042  17.269  0.00  0.00    +0.000 A 
ATOM     20  C   UNL     1       4.312   4.818  17.066  0.00  0.00    +0.000 A 
ATOM     21  C   UNL     1       4.939   3.825  16.316  0.00  0.00    +0.000 A 
ATOM     22  C   UNL     1       6.205   4.052  15.776  0.00  0.00    +0.000 A 
ATOM     23  C   UNL     1       6.846   5.274  15.980  0.00  0.00    +0.000 A 
ENDBRANCH  17  18
ENDBRANCH  13  16
ENDBRANCH   1  14
TORSDOF 3
ENDMDL
