MODEL 1
REMARK VINA RESULT:      -7.9      0.000      0.000
REMARK  Name = 
REMARK  2 active torsions:
REMARK  status: ('A' for Active; 'I' for Inactive)
REMARK    1  A    between atoms: C_1  and  O_2
REMARK    2  A    between atoms: O_2  and  C_3
REMARK                            x       y       z     vdW  Elec       q    Type
REMARK                         _______ _______ _______ _____ _____    ______ ____
ROOT
ATOM      1  C   UNL     1       5.595   4.296  16.299  0.00  0.00    +0.000 C 
ATOM      2  C   UNL     1       5.217   5.580  15.548  0.00  0.00    +0.000 C 
ATOM      3  C   UNL     1       5.361   6.792  16.127  0.00  0.00    +0.000 C 
ATOM      4  C   UNL     1       6.600   6.951  16.976  0.00  0.00    +0.000 C 
ATOM      5  O   UNL     1       7.022   8.060  17.269  0.00  0.00    +0.000 OA
ATOM      6  C   UNL     1       7.313   5.688  17.407  0.00  0.00    +0.000 C 
ATOM      7  C   UNL     1       6.440   4.660  17.502  0.00  0.00    +0.000 C 
ATOM      8  C   UNL     1       5.747   4.660  18.811  0.00  0.00    +0.000 C 
ATOM      9  O   UNL     1       6.354   4.772  19.869  0.00  0.00    +0.000 OA
ATOM     10  C   UNL     1       4.287   4.564  18.780  0.00  0.00    +0.000 A 
ATOM     11  C   UNL     1       3.529   5.020  19.863  0.00  0.00    +0.000 A 
ATOM     12  C   UNL     1       2.136   4.952  19.803  0.00  0.00    +0.000 A 
ATOM     13  C   UNL     1       1.517   4.412  18.678  0.00  0.00    +0.000 A 
ATOM     14  C   UNL     1       2.278   3.945  17.607  0.00  0.00    +0.000 A 
ATOM     15  C   UNL     1       3.669   4.045  17.649  0.00  0.00    +0.000 A 
ATOM     16  O   UNL     1       4.370   3.597  16.568  0.00  0.00    +0.000 OA
ENDROOT
BRANCH   1  18
ATOM     17  C   UNL     1       6.223   3.905  14.009  0.00  0.00    +0.000 C 
ATOM     18  O   UNL     1       6.401   3.544  15.373  0.00  0.00    +0.000 OA
ENDBRANCH   1  18
TORSDOF 1
ENDMDL
MODEL 2
REMARK VINA RESULT:      -7.7      1.802      2.729
REMARK  Name = 
REMARK  2 active torsions:
REMARK  status: ('A' for Active; 'I' for Inactive)
REMARK    1  A    between atoms: C_1  and  O_2
REMARK    2  A    between atoms: O_2  and  C_3
REMARK                            x       y       z     vdW  Elec       q    Type
REMARK                         _______ _______ _______ _____ _____    ______ ____
ROOT
ATOM      1  C   UNL     1       6.070   4.606  18.038  0.00  0.00    +0.000 C 
ATOM      2  C   UNL     1       6.210   4.174  16.572  0.00  0.00    +0.000 C 
ATOM      3  C   UNL     1       5.491   4.776  15.598  0.00  0.00    +0.000 C 
ATOM      4  C   UNL     1       5.325   6.269  15.759  0.00  0.00    +0.000 C 
ATOM      5  O   UNL     1       5.005   6.970  14.810  0.00  0.00    +0.000 OA
ATOM      6  C   UNL     1       5.609   6.857  17.123  0.00  0.00    +0.000 C 
ATOM      7  C   UNL     1       5.367   5.945  18.092  0.00  0.00    +0.000 C 
ATOM      8  C   UNL     1       3.931   5.916  18.457  0.00  0.00    +0.000 C 
ATOM      9  O   UNL     1       3.299   6.936  18.696  0.00  0.00    +0.000 OA
ATOM     10  C   UNL     1       3.287   4.601  18.474  0.00  0.00    +0.000 A 
ATOM     11  C   UNL     1       1.900   4.496  18.333  0.00  0.00    +0.000 A 
ATOM     12  C   UNL     1       1.305   3.233  18.318  0.00  0.00    +0.000 A 
ATOM     13  C   UNL     1       2.093   2.095  18.464  0.00  0.00    +0.000 A 
ATOM     14  C   UNL     1       3.474   2.205  18.619  0.00  0.00    +0.000 A 
ATOM     15  C   UNL     1       4.076   3.465  18.599  0.00  0.00    +0.000 A 
ATOM     16  O   UNL     1       5.432   3.522  18.730  0.00  0.00    +0.000 OA
ENDROOT
BRANCH   1  18
ATOM     17  C   UNL     1       7.550   5.613  19.648  0.00  0.00    +0.000 C 
ATOM     18  O   UNL     1       7.421   4.769  18.510  0.00  0.00    +0.000 OA
ENDBRANCH   1  18
TORSDOF 1
ENDMDL
MODEL 3
REMARK VINA RESULT:      -7.6      1.810      2.625
REMARK  Name = 
REMARK  2 active torsions:
REMARK  status: ('A' for Active; 'I' for Inactive)
REMARK    1  A    between atoms: C_1  and  O_2
REMARK    2  A    between atoms: O_2  and  C_3
REMARK                            x       y       z     vdW  Elec       q    Type
REMARK                         _______ _______ _______ _____ _____    ______ ____
ROOT
ATOM      1  C   UNL     1       6.610   6.065  16.447  0.00  0.00    +0.000 C 
ATOM      2  C   UNL     1       7.448   7.087  17.227  0.00  0.00    +0.000 C 
ATOM      3  C   UNL     1       7.713   6.911  18.541  0.00  0.00    +0.000 C 
ATOM      4  C   UNL     1       7.995   5.484  18.949  0.00  0.00    +0.000 C 
ATOM      5  O   UNL     1       8.568   5.234  20.000  0.00  0.00    +0.000 OA
ATOM      6  C   UNL     1       7.577   4.392  17.990  0.00  0.00    +0.000 C 
ATOM      7  C   UNL     1       6.514   4.788  17.254  0.00  0.00    +0.000 C 
ATOM      8  C   UNL     1       5.243   4.568  17.982  0.00  0.00    +0.000 C 
ATOM      9  O   UNL     1       4.981   3.504  18.529  0.00  0.00    +0.000 OA
ATOM     10  C   UNL     1       4.326   5.707  18.057  0.00  0.00    +0.000 A 
ATOM     11  C   UNL     1       3.369   5.773  19.074  0.00  0.00    +0.000 A 
ATOM     12  C   UNL     1       2.524   6.882  19.151  0.00  0.00    +0.000 A 
ATOM     13  C   UNL     1       2.628   7.898  18.203  0.00  0.00    +0.000 A 
ATOM     14  C   UNL     1       3.574   7.820  17.183  0.00  0.00    +0.000 A 
ATOM     15  C   UNL     1       4.443   6.730  17.125  0.00  0.00    +0.000 A 
ATOM     16  O   UNL     1       5.369   6.709  16.122  0.00  0.00    +0.000 OA
ENDROOT
BRANCH   1  18
ATOM     17  C   UNL     1       6.768   4.848  14.376  0.00  0.00    +0.000 C 
ATOM     18  O   UNL     1       7.361   5.803  15.247  0.00  0.00    +0.000 OA
ENDBRANCH   1  18
TORSDOF 1
ENDMDL
MODEL 4
REMARK VINA RESULT:      -7.4      2.116      4.731
REMARK  Name = 
REMARK  2 active torsions:
REMARK  status: ('A' for Active; 'I' for Inactive)
REMARK    1  A    between atoms: C_1  and  O_2
REMARK    2  A    between atoms: O_2  and  C_3
REMARK                            x       y       z     vdW  Elec       q    Type
REMARK                         _______ _______ _______ _____ _____    ______ ____
ROOT
ATOM      1  C   UNL     1       3.218   6.281  18.308  0.00  0.00    +0.000 C 
ATOM      2  C   UNL     1       2.214   5.253  17.769  0.00  0.00    +0.000 C 
ATOM      3  C   UNL     1       2.360   3.935  18.030  0.00  0.00    +0.000 C 
ATOM      4  C   UNL     1       2.842   3.611  19.425  0.00  0.00    +0.000 C 
ATOM      5  O   UNL     1       2.694   2.493  19.896  0.00  0.00    +0.000 OA
ATOM      6  C   UNL     1       3.471   4.733  20.220  0.00  0.00    +0.000 C 
ATOM      7  C   UNL     1       4.050   5.633  19.394  0.00  0.00    +0.000 C 
ATOM      8  C   UNL     1       5.415   5.207  19.005  0.00  0.00    +0.000 C 
ATOM      9  O   UNL     1       6.238   4.827  19.828  0.00  0.00    +0.000 OA
ATOM     10  C   UNL     1       5.721   5.219  17.573  0.00  0.00    +0.000 A 
ATOM     11  C   UNL     1       6.752   4.420  17.069  0.00  0.00    +0.000 A 
ATOM     12  C   UNL     1       7.010   4.417  15.697  0.00  0.00    +0.000 A 
ATOM     13  C   UNL     1       6.254   5.224  14.849  0.00  0.00    +0.000 A 
ATOM     14  C   UNL     1       5.237   6.030  15.359  0.00  0.00    +0.000 A 
ATOM     15  C   UNL     1       4.954   6.007  16.725  0.00  0.00    +0.000 A 
ATOM     16  O   UNL     1       3.934   6.794  17.175  0.00  0.00    +0.000 OA
ENDROOT
BRANCH   1  18
ATOM     17  C   UNL     1       2.133   8.411  18.028  0.00  0.00    +0.000 C 
ATOM     18  O   UNL     1       2.411   7.319  18.896  0.00  0.00    +0.000 OA
ENDBRANCH   1  18
TORSDOF 1
ENDMDL
MODEL 5
REMARK VINA RESULT:      -7.3      2.056      4.954
REMARK  Name = 
REMARK  2 active torsions:
REMARK  status: ('A' for Active; 'I' for Inactive)
REMARK    1  A    between atoms: C_1  and  O_2
REMARK    2  A    between atoms: O_2  and  C_3
REMARK                            x       y       z     vdW  Elec       q    Type
REMARK                         _______ _______ _______ _____ _____    ______ ____
ROOT
ATOM      1  C   UNL     1       2.979   5.961  18.762  0.00  0.00    +0.000 C 
ATOM      2  C   UNL     1       1.784   5.495  17.918  0.00  0.00    +0.000 C 
ATOM      3  C   UNL     1       1.581   4.182  17.667  0.00  0.00    +0.000 C 
ATOM      4  C   UNL     1       1.882   3.258  18.823  0.00  0.00    +0.000 C 
ATOM      5  O   UNL     1       1.432   2.121  18.851  0.00  0.00    +0.000 OA
ATOM      6  C   UNL     1       2.723   3.809  19.953  0.00  0.00    +0.000 C 
ATOM      7  C   UNL     1       3.557   4.771  19.497  0.00  0.00    +0.000 C 
ATOM      8  C   UNL     1       4.793   4.187  18.927  0.00  0.00    +0.000 C 
ATOM      9  O   UNL     1       5.444   3.336  19.518  0.00  0.00    +0.000 OA
ATOM     10  C   UNL     1       5.178   4.646  17.591  0.00  0.00    +0.000 A 
ATOM     11  C   UNL     1       6.005   3.855  16.788  0.00  0.00    +0.000 A 
ATOM     12  C   UNL     1       6.336   4.292  15.503  0.00  0.00    +0.000 A 
ATOM     13  C   UNL     1       5.857   5.517  15.044  0.00  0.00    +0.000 A 
ATOM     14  C   UNL     1       5.045   6.308  15.855  0.00  0.00    +0.000 A 
ATOM     15  C   UNL     1       4.684   5.858  17.125  0.00  0.00    +0.000 A 
ATOM     16  O   UNL     1       3.868   6.655  17.873  0.00  0.00    +0.000 OA
ENDROOT
BRANCH   1  18
ATOM     17  C   UNL     1       2.002   8.122  19.174  0.00  0.00    +0.000 C 
ATOM     18  O   UNL     1       2.423   6.879  19.722  0.00  0.00    +0.000 OA
ENDBRANCH   1  18
TORSDOF 1
ENDMDL
MODEL 6
REMARK VINA RESULT:      -7.2      1.690      4.815
REMARK  Name = 
REMARK  2 active torsions:
REMARK  status: ('A' for Active; 'I' for Inactive)
REMARK    1  A    between atoms: C_1  and  O_2
REMARK    2  A    between atoms: O_2  and  C_3
REMARK                            x       y       z     vdW  Elec       q    Type
REMARK                         _______ _______ _______ _____ _____    ______ ____
ROOT
ATOM      1  C   UNL     1       4.519   3.611  19.171  0.00  0.00    +0.000 C 
ATOM      2  C   UNL     1       3.661   4.639  19.922  0.00  0.00    +0.000 C 
ATOM      3  C   UNL     1       2.921   5.549  19.252  0.00  0.00    +0.000 C 
ATOM      4  C   UNL     1       2.256   5.031  17.998  0.00  0.00    +0.000 C 
ATOM      5  O   UNL     1       1.312   5.626  17.498  0.00  0.00    +0.000 OA
ATOM      6  C   UNL     1       2.777   3.735  17.420  0.00  0.00    +0.000 C 
ATOM      7  C   UNL     1       4.086   3.574  17.721  0.00  0.00    +0.000 C 
ATOM      8  C   UNL     1       4.953   4.296  16.761  0.00  0.00    +0.000 C 
ATOM      9  O   UNL     1       4.803   4.200  15.550  0.00  0.00    +0.000 OA
ATOM     10  C   UNL     1       5.977   5.172  17.334  0.00  0.00    +0.000 A 
ATOM     11  C   UNL     1       6.505   6.222  16.578  0.00  0.00    +0.000 A 
ATOM     12  C   UNL     1       7.457   7.069  17.150  0.00  0.00    +0.000 A 
ATOM     13  C   UNL     1       7.884   6.847  18.458  0.00  0.00    +0.000 A 
ATOM     14  C   UNL     1       7.364   5.789  19.202  0.00  0.00    +0.000 A 
ATOM     15  C   UNL     1       6.387   4.963  18.644  0.00  0.00    +0.000 A 
ATOM     16  O   UNL     1       5.891   3.956  19.419  0.00  0.00    +0.000 OA
ENDROOT
BRANCH   1  18
ATOM     17  C   UNL     1       3.313   2.429  20.887  0.00  0.00    +0.000 C 
ATOM     18  O   UNL     1       4.208   2.346  19.784  0.00  0.00    +0.000 OA
ENDBRANCH   1  18
TORSDOF 1
ENDMDL
MODEL 7
REMARK VINA RESULT:      -7.2      2.452      5.046
REMARK  Name = 
REMARK  2 active torsions:
REMARK  status: ('A' for Active; 'I' for Inactive)
REMARK    1  A    between atoms: C_1  and  O_2
REMARK    2  A    between atoms: O_2  and  C_3
REMARK                            x       y       z     vdW  Elec       q    Type
REMARK                         _______ _______ _______ _____ _____    ______ ____
ROOT
ATOM      1  C   UNL     1       2.620   4.137  20.465  0.00  0.00    +0.000 C 
ATOM      2  C   UNL     1       1.606   3.485  19.514  0.00  0.00    +0.000 C 
ATOM      3  C   UNL     1       2.012   2.866  18.384  0.00  0.00    +0.000 C 
ATOM      4  C   UNL     1       3.290   2.072  18.515  0.00  0.00    +0.000 C 
ATOM      5  O   UNL     1       3.580   1.210  17.698  0.00  0.00    +0.000 OA
ATOM      6  C   UNL     1       4.166   2.359  19.714  0.00  0.00    +0.000 C 
ATOM      7  C   UNL     1       4.007   3.638  20.122  0.00  0.00    +0.000 C 
ATOM      8  C   UNL     1       4.860   4.563  19.338  0.00  0.00    +0.000 C 
ATOM      9  O   UNL     1       6.049   4.345  19.145  0.00  0.00    +0.000 OA
ATOM     10  C   UNL     1       4.198   5.735  18.763  0.00  0.00    +0.000 A 
ATOM     11  C   UNL     1       4.756   6.386  17.660  0.00  0.00    +0.000 A 
ATOM     12  C   UNL     1       4.095   7.483  17.102  0.00  0.00    +0.000 A 
ATOM     13  C   UNL     1       2.901   7.929  17.663  0.00  0.00    +0.000 A 
ATOM     14  C   UNL     1       2.356   7.285  18.773  0.00  0.00    +0.000 A 
ATOM     15  C   UNL     1       2.996   6.167  19.310  0.00  0.00    +0.000 A 
ATOM     16  O   UNL     1       2.413   5.556  20.381  0.00  0.00    +0.000 OA
ENDROOT
BRANCH   1  18
ATOM     17  C   UNL     1       1.318   2.598  21.780  0.00  0.00    +0.000 C 
ATOM     18  O   UNL     1       2.263   3.661  21.776  0.00  0.00    +0.000 OA
ENDBRANCH   1  18
TORSDOF 1
ENDMDL
MODEL 8
REMARK VINA RESULT:      -7.2      2.655      5.183
REMARK  Name = 
REMARK  2 active torsions:
REMARK  status: ('A' for Active; 'I' for Inactive)
REMARK    1  A    between atoms: C_1  and  O_2
REMARK    2  A    between atoms: O_2  and  C_3
REMARK                            x       y       z     vdW  Elec       q    Type
REMARK                         _______ _______ _______ _____ _____    ______ ____
ROOT
ATOM      1  C   UNL     1       2.401   4.255  20.472  0.00  0.00    +0.000 C 
ATOM      2  C   UNL     1       1.127   3.781  19.758  0.00  0.00    +0.000 C 
ATOM      3  C   UNL     1       1.148   3.443  18.450  0.00  0.00    +0.000 C 
ATOM      4  C   UNL     1       2.384   2.699  18.003  0.00  0.00    +0.000 C 
ATOM      5  O   UNL     1       2.386   2.051  16.966  0.00  0.00    +0.000 OA
ATOM      6  C   UNL     1       3.595   2.756  18.908  0.00  0.00    +0.000 C 
ATOM      7  C   UNL     1       3.602   3.906  19.618  0.00  0.00    +0.000 C 
ATOM      8  C   UNL     1       4.193   5.018  18.837  0.00  0.00    +0.000 C 
ATOM      9  O   UNL     1       5.258   4.903  18.244  0.00  0.00    +0.000 OA
ATOM     10  C   UNL     1       3.415   6.256  18.768  0.00  0.00    +0.000 A 
ATOM     11  C   UNL     1       3.621   7.158  17.720  0.00  0.00    +0.000 A 
ATOM     12  C   UNL     1       2.848   8.318  17.650  0.00  0.00    +0.000 A 
ATOM     13  C   UNL     1       1.897   8.576  18.635  0.00  0.00    +0.000 A 
ATOM     14  C   UNL     1       1.706   7.681  19.686  0.00  0.00    +0.000 A 
ATOM     15  C   UNL     1       2.453   6.503  19.739  0.00  0.00    +0.000 A 
ATOM     16  O   UNL     1       2.214   5.646  20.773  0.00  0.00    +0.000 OA
ENDROOT
BRANCH   1  18
ATOM     17  C   UNL     1       1.434   2.505  21.812  0.00  0.00    +0.000 C 
ATOM     18  O   UNL     1       2.455   3.487  21.689  0.00  0.00    +0.000 OA
ENDBRANCH   1  18
TORSDOF 1
ENDMDL
MODEL 9
REMARK VINA RESULT:      -7.1      1.890      4.774
REMARK  Name = 
REMARK  2 active torsions:
REMARK  status: ('A' for Active; 'I' for Inactive)
REMARK    1  A    between atoms: C_1  and  O_2
REMARK    2  A    between atoms: O_2  and  C_3
REMARK                            x       y       z     vdW  Elec       q    Type
REMARK                         _______ _______ _______ _____ _____    ______ ____
ROOT
ATOM      1  C   UNL     1       2.941   3.559  18.097  0.00  0.00    +0.000 C 
ATOM      2  C   UNL     1       3.185   2.044  18.103  0.00  0.00    +0.000 C 
ATOM      3  C   UNL     1       4.192   1.505  18.827  0.00  0.00    +0.000 C 
ATOM      4  C   UNL     1       4.419   2.143  20.177  0.00  0.00    +0.000 C 
ATOM      5  O   UNL     1       5.044   1.559  21.051  0.00  0.00    +0.000 OA
ATOM      6  C   UNL     1       3.810   3.508  20.412  0.00  0.00    +0.000 C 
ATOM      7  C   UNL     1       3.701   4.185  19.247  0.00  0.00    +0.000 C 
ATOM      8  C   UNL     1       4.971   4.865  18.898  0.00  0.00    +0.000 C 
ATOM      9  O   UNL     1       5.586   5.548  19.706  0.00  0.00    +0.000 OA
ATOM     10  C   UNL     1       5.482   4.643  17.545  0.00  0.00    +0.000 A 
ATOM     11  C   UNL     1       6.841   4.822  17.269  0.00  0.00    +0.000 A 
ATOM     12  C   UNL     1       7.319   4.573  15.981  0.00  0.00    +0.000 A 
ATOM     13  C   UNL     1       6.437   4.171  14.981  0.00  0.00    +0.000 A 
ATOM     14  C   UNL     1       5.080   4.008  15.258  0.00  0.00    +0.000 A 
ATOM     15  C   UNL     1       4.606   4.222  16.553  0.00  0.00    +0.000 A 
ATOM     16  O   UNL     1       3.275   4.027  16.781  0.00  0.00    +0.000 OA
ENDROOT
BRANCH   1  18
ATOM     17  C   UNL     1       0.860   2.511  18.702  0.00  0.00    +0.000 C 
ATOM     18  O   UNL     1       1.529   3.711  18.333  0.00  0.00    +0.000 OA
ENDBRANCH   1  18
TORSDOF 1
ENDMDL
