MODEL 1
REMARK VINA RESULT:      -7.4      0.000      0.000
REMARK  Name = 
REMARK  5 active torsions:
REMARK  status: ('A' for Active; 'I' for Inactive)
REMARK    1  A    between atoms: C_1  and  C_2
REMARK    2  A    between atoms: C_2  and  N_3
REMARK    3  A    between atoms: N_3  and  C_14
REMARK    4  A    between atoms: C_4  and  C_6
REMARK    5  A    between atoms: N_11  and  C_12
REMARK                            x       y       z     vdW  Elec       q    Type
REMARK                         _______ _______ _______ _____ _____    ______ ____
ROOT
ATOM      1  N   UNL     1       2.671   4.040  19.534  0.00  0.00    +0.000 N 
ATOM      2  C   UNL     1       3.577   3.249  18.793  0.00  0.00    +0.000 C 
ATOM      3  O   UNL     1       3.522   2.024  18.704  0.00  0.00    +0.000 OA
ENDROOT
BRANCH   2   4
ATOM      4  C   UNL     1       4.744   3.904  18.033  0.00  0.00    +0.000 A 
ATOM      5  C   UNL     1       4.619   3.981  16.561  0.00  0.00    +0.000 A 
ATOM      6  C   UNL     1       5.595   4.614  15.904  0.00  0.00    +0.000 A 
ATOM      7  C   UNL     1       6.763   5.179  16.620  0.00  0.00    +0.000 A 
ATOM      8  O   UNL     1       7.635   5.755  15.978  0.00  0.00    +0.000 OA
ATOM      9  N   UNL     1       6.762   5.003  17.998  0.00  0.00    +0.000 N 
ATOM     10  C   UNL     1       7.841   5.531  18.816  0.00  0.00    +0.000 C 
ATOM     11  N   UNL     1       5.742   4.406  18.692  0.00  0.00    +0.000 NA
ENDBRANCH   2   4
BRANCH   1  12
ATOM     12  C   UNL     1       2.782   5.511  19.593  0.00  0.00    +0.000 C 
ATOM     13  C   UNL     1       2.370   6.193  18.283  0.00  0.00    +0.000 C 
ATOM     14  C   UNL     1       2.299   7.667  18.660  0.00  0.00    +0.000 C 
ATOM     15  C   UNL     1       1.836   7.692  20.114  0.00  0.00    +0.000 C 
ATOM     16  C   UNL     1       1.882   6.244  20.604  0.00  0.00    +0.000 C 
ENDBRANCH   1  12
BRANCH   1  18
ATOM     17  C   UNL     1       1.660   2.745  21.563  0.00  0.00    +0.000 C 
ATOM     18  C   UNL     1       1.510   3.447  20.223  0.00  0.00    +0.000 C 
ENDBRANCH   1  18
TORSDOF 3
ENDMDL
MODEL 2
REMARK VINA RESULT:      -7.0      1.218      1.861
REMARK  Name = 
REMARK  5 active torsions:
REMARK  status: ('A' for Active; 'I' for Inactive)
REMARK    1  A    between atoms: C_1  and  C_2
REMARK    2  A    between atoms: C_2  and  N_3
REMARK    3  A    between atoms: N_3  and  C_14
REMARK    4  A    between atoms: C_4  and  C_6
REMARK    5  A    between atoms: N_11  and  C_12
REMARK                            x       y       z     vdW  Elec       q    Type
REMARK                         _______ _______ _______ _____ _____    ______ ____
ROOT
ATOM      1  N   UNL     1       3.220   4.827  19.838  0.00  0.00    +0.000 N 
ATOM      2  C   UNL     1       4.167   3.972  19.231  0.00  0.00    +0.000 C 
ATOM      3  O   UNL     1       4.325   2.788  19.522  0.00  0.00    +0.000 OA
ENDROOT
BRANCH   2   4
ATOM      4  C   UNL     1       5.107   4.503  18.134  0.00  0.00    +0.000 A 
ATOM      5  C   UNL     1       6.273   5.295  18.583  0.00  0.00    +0.000 A 
ATOM      6  C   UNL     1       7.131   5.695  17.640  0.00  0.00    +0.000 A 
ATOM      7  C   UNL     1       6.900   5.387  16.209  0.00  0.00    +0.000 A 
ATOM      8  O   UNL     1       7.714   5.771  15.376  0.00  0.00    +0.000 OA
ATOM      9  N   UNL     1       5.746   4.664  15.932  0.00  0.00    +0.000 N 
ATOM     10  C   UNL     1       5.418   4.280  14.570  0.00  0.00    +0.000 C 
ATOM     11  N   UNL     1       4.886   4.199  16.893  0.00  0.00    +0.000 NA
ENDBRANCH   2   4
BRANCH   1  12
ATOM     12  C   UNL     1       3.070   6.240  19.437  0.00  0.00    +0.000 C 
ATOM     13  C   UNL     1       2.443   6.402  18.047  0.00  0.00    +0.000 C 
ATOM     14  C   UNL     1       2.138   7.892  17.970  0.00  0.00    +0.000 C 
ATOM     15  C   UNL     1       1.791   8.310  19.396  0.00  0.00    +0.000 C 
ATOM     16  C   UNL     1       2.134   7.116  20.288  0.00  0.00    +0.000 C 
ENDBRANCH   1  12
BRANCH   1  18
ATOM     17  C   UNL     1       1.003   3.591  20.449  0.00  0.00    +0.000 C 
ATOM     18  C   UNL     1       2.268   4.333  20.850  0.00  0.00    +0.000 C 
ENDBRANCH   1  18
TORSDOF 3
ENDMDL
MODEL 3
REMARK VINA RESULT:      -6.7      2.334      5.398
REMARK  Name = 
REMARK  5 active torsions:
REMARK  status: ('A' for Active; 'I' for Inactive)
REMARK    1  A    between atoms: C_1  and  C_2
REMARK    2  A    between atoms: C_2  and  N_3
REMARK    3  A    between atoms: N_3  and  C_14
REMARK    4  A    between atoms: C_4  and  C_6
REMARK    5  A    between atoms: N_11  and  C_12
REMARK                            x       y       z     vdW  Elec       q    Type
REMARK                         _______ _______ _______ _____ _____    ______ ____
ROOT
ATOM      1  N   UNL     1       5.201   4.698  17.127  0.00  0.00    +0.000 N 
ATOM      2  C   UNL     1       3.822   4.525  17.377  0.00  0.00    +0.000 C 
ATOM      3  O   UNL     1       3.126   3.648  16.868  0.00  0.00    +0.000 OA
ENDROOT
BRANCH   2   4
ATOM      4  C   UNL     1       3.076   5.474  18.331  0.00  0.00    +0.000 A 
ATOM      5  C   UNL     1       2.743   4.943  19.672  0.00  0.00    +0.000 A 
ATOM      6  C   UNL     1       2.162   5.787  20.528  0.00  0.00    +0.000 A 
ATOM      7  C   UNL     1       1.836   7.178  20.136  0.00  0.00    +0.000 A 
ATOM      8  O   UNL     1       1.304   7.921  20.955  0.00  0.00    +0.000 OA
ATOM      9  N   UNL     1       2.176   7.528  18.836  0.00  0.00    +0.000 N 
ATOM     10  C   UNL     1       1.929   8.870  18.337  0.00  0.00    +0.000 C 
ATOM     11  N   UNL     1       2.824   6.691  17.963  0.00  0.00    +0.000 NA
ENDBRANCH   2   4
BRANCH   1  12
ATOM     12  C   UNL     1       5.987   5.765  17.779  0.00  0.00    +0.000 C 
ATOM     13  C   UNL     1       7.389   5.303  18.196  0.00  0.00    +0.000 C 
ATOM     14  C   UNL     1       8.089   6.601  18.576  0.00  0.00    +0.000 C 
ATOM     15  C   UNL     1       7.504   7.664  17.651  0.00  0.00    +0.000 C 
ATOM     16  C   UNL     1       6.324   7.006  16.934  0.00  0.00    +0.000 C 
ENDBRANCH   1  12
BRANCH   1  18
ATOM     17  C   UNL     1       6.085   4.009  14.769  0.00  0.00    +0.000 C 
ATOM     18  C   UNL     1       5.955   3.770  16.264  0.00  0.00    +0.000 C 
ENDBRANCH   1  18
TORSDOF 3
ENDMDL
MODEL 4
REMARK VINA RESULT:      -6.7      1.924      5.393
REMARK  Name = 
REMARK  5 active torsions:
REMARK  status: ('A' for Active; 'I' for Inactive)
REMARK    1  A    between atoms: C_1  and  C_2
REMARK    2  A    between atoms: C_2  and  N_3
REMARK    3  A    between atoms: N_3  and  C_14
REMARK    4  A    between atoms: C_4  and  C_6
REMARK    5  A    between atoms: N_11  and  C_12
REMARK                            x       y       z     vdW  Elec       q    Type
REMARK                         _______ _______ _______ _____ _____    ______ ____
ROOT
ATOM      1  N   UNL     1       5.658   4.743  16.886  0.00  0.00    +0.000 N 
ATOM      2  C   UNL     1       4.357   4.281  17.184  0.00  0.00    +0.000 C 
ATOM      3  O   UNL     1       3.785   3.371  16.587  0.00  0.00    +0.000 OA
ENDROOT
BRANCH   2   4
ATOM      4  C   UNL     1       3.539   4.931  18.315  0.00  0.00    +0.000 A 
ATOM      5  C   UNL     1       3.152   6.346  18.127  0.00  0.00    +0.000 A 
ATOM      6  C   UNL     1       2.381   6.892  19.071  0.00  0.00    +0.000 A 
ATOM      7  C   UNL     1       1.964   6.120  20.265  0.00  0.00    +0.000 A 
ATOM      8  O   UNL     1       1.253   6.659  21.107  0.00  0.00    +0.000 OA
ATOM      9  N   UNL     1       2.430   4.813  20.324  0.00  0.00    +0.000 N 
ATOM     10  C   UNL     1       2.073   3.945  21.434  0.00  0.00    +0.000 C 
ATOM     11  N   UNL     1       3.176   4.221  19.337  0.00  0.00    +0.000 NA
ENDBRANCH   2   4
BRANCH   1  12
ATOM     12  C   UNL     1       6.296   5.835  17.648  0.00  0.00    +0.000 C 
ATOM     13  C   UNL     1       7.625   5.416  18.290  0.00  0.00    +0.000 C 
ATOM     14  C   UNL     1       8.216   6.736  18.768  0.00  0.00    +0.000 C 
ATOM     15  C   UNL     1       7.757   7.778  17.752  0.00  0.00    +0.000 C 
ATOM     16  C   UNL     1       6.729   7.083  16.859  0.00  0.00    +0.000 C 
ENDBRANCH   1  12
BRANCH   1  18
ATOM     17  C   UNL     1       6.265   4.385  14.372  0.00  0.00    +0.000 C 
ATOM     18  C   UNL     1       6.488   4.102  15.848  0.00  0.00    +0.000 C 
ENDBRANCH   1  18
TORSDOF 3
ENDMDL
MODEL 5
REMARK VINA RESULT:      -6.6      2.298      5.551
REMARK  Name = 
REMARK  5 active torsions:
REMARK  status: ('A' for Active; 'I' for Inactive)
REMARK    1  A    between atoms: C_1  and  C_2
REMARK    2  A    between atoms: C_2  and  N_3
REMARK    3  A    between atoms: N_3  and  C_14
REMARK    4  A    between atoms: C_4  and  C_6
REMARK    5  A    between atoms: N_11  and  C_12
REMARK                            x       y       z     vdW  Elec       q    Type
REMARK                         _______ _______ _______ _____ _____    ______ ____
ROOT
ATOM      1  N   UNL     1       6.221   4.568  17.823  0.00  0.00    +0.000 N 
ATOM      2  C   UNL     1       5.456   4.253  18.968  0.00  0.00    +0.000 C 
ATOM      3  O   UNL     1       5.856   4.359  20.126  0.00  0.00    +0.000 OA
ENDROOT
BRANCH   2   4
ATOM      4  C   UNL     1       4.018   3.722  18.823  0.00  0.00    +0.000 A 
ATOM      5  C   UNL     1       3.802   2.651  17.826  0.00  0.00    +0.000 A 
ATOM      6  C   UNL     1       2.572   2.136  17.750  0.00  0.00    +0.000 A 
ATOM      7  C   UNL     1       1.471   2.644  18.602  0.00  0.00    +0.000 A 
ATOM      8  O   UNL     1       0.357   2.141  18.501  0.00  0.00    +0.000 OA
ATOM      9  N   UNL     1       1.813   3.674  19.468  0.00  0.00    +0.000 N 
ATOM     10  C   UNL     1       0.828   4.244  20.372  0.00  0.00    +0.000 C 
ATOM     11  N   UNL     1       3.083   4.175  19.599  0.00  0.00    +0.000 NA
ENDBRANCH   2   4
BRANCH   1  12
ATOM     12  C   UNL     1       5.679   4.431  16.456  0.00  0.00    +0.000 C 
ATOM     13  C   UNL     1       5.455   5.781  15.765  0.00  0.00    +0.000 C 
ATOM     14  C   UNL     1       5.171   5.394  14.320  0.00  0.00    +0.000 C 
ATOM     15  C   UNL     1       6.007   4.144  14.062  0.00  0.00    +0.000 C 
ATOM     16  C   UNL     1       6.560   3.710  15.420  0.00  0.00    +0.000 C 
ENDBRANCH   1  12
BRANCH   1  18
ATOM     17  C   UNL     1       7.803   6.574  18.359  0.00  0.00    +0.000 C 
ATOM     18  C   UNL     1       7.579   5.134  17.931  0.00  0.00    +0.000 C 
ENDBRANCH   1  18
TORSDOF 3
ENDMDL
MODEL 6
REMARK VINA RESULT:      -6.5      2.086      5.295
REMARK  Name = 
REMARK  5 active torsions:
REMARK  status: ('A' for Active; 'I' for Inactive)
REMARK    1  A    between atoms: C_1  and  C_2
REMARK    2  A    between atoms: C_2  and  N_3
REMARK    3  A    between atoms: N_3  and  C_14
REMARK    4  A    between atoms: C_4  and  C_6
REMARK    5  A    between atoms: N_11  and  C_12
REMARK                            x       y       z     vdW  Elec       q    Type
REMARK                         _______ _______ _______ _____ _____    ______ ____
ROOT
ATOM      1  N   UNL     1       5.135   5.025  16.607  0.00  0.00    +0.000 N 
ATOM      2  C   UNL     1       4.018   4.217  16.913  0.00  0.00    +0.000 C 
ATOM      3  O   UNL     1       3.305   3.665  16.077  0.00  0.00    +0.000 OA
ENDROOT
BRANCH   2   4
ATOM      4  C   UNL     1       3.602   3.983  18.377  0.00  0.00    +0.000 A 
ATOM      5  C   UNL     1       2.534   4.857  18.912  0.00  0.00    +0.000 A 
ATOM      6  C   UNL     1       2.119   4.609  20.157  0.00  0.00    +0.000 A 
ATOM      7  C   UNL     1       2.729   3.532  20.971  0.00  0.00    +0.000 A 
ATOM      8  O   UNL     1       2.316   3.337  22.109  0.00  0.00    +0.000 OA
ATOM      9  N   UNL     1       3.743   2.814  20.350  0.00  0.00    +0.000 N 
ATOM     10  C   UNL     1       4.406   1.717  21.035  0.00  0.00    +0.000 C 
ATOM     11  N   UNL     1       4.142   3.019  19.054  0.00  0.00    +0.000 NA
ENDBRANCH   2   4
BRANCH   1  12
ATOM     12  C   UNL     1       5.960   5.653  17.658  0.00  0.00    +0.000 C 
ATOM     13  C   UNL     1       7.132   4.771  18.102  0.00  0.00    +0.000 C 
ATOM     14  C   UNL     1       7.975   5.709  18.957  0.00  0.00    +0.000 C 
ATOM     15  C   UNL     1       7.803   7.091  18.333  0.00  0.00    +0.000 C 
ATOM     16  C   UNL     1       6.692   6.957  17.292  0.00  0.00    +0.000 C 
ENDBRANCH   1  12
BRANCH   1  18
ATOM     17  C   UNL     1       6.347   4.130  14.475  0.00  0.00    +0.000 C 
ATOM     18  C   UNL     1       5.592   5.220  15.218  0.00  0.00    +0.000 C 
ENDBRANCH   1  18
TORSDOF 3
ENDMDL
MODEL 7
REMARK VINA RESULT:      -6.5      2.988      5.475
REMARK  Name = 
REMARK  5 active torsions:
REMARK  status: ('A' for Active; 'I' for Inactive)
REMARK    1  A    between atoms: C_1  and  C_2
REMARK    2  A    between atoms: C_2  and  N_3
REMARK    3  A    between atoms: N_3  and  C_14
REMARK    4  A    between atoms: C_4  and  C_6
REMARK    5  A    between atoms: N_11  and  C_12
REMARK                            x       y       z     vdW  Elec       q    Type
REMARK                         _______ _______ _______ _____ _____    ______ ____
ROOT
ATOM      1  N   UNL     1       3.394   5.177  18.239  0.00  0.00    +0.000 N 
ATOM      2  C   UNL     1       3.646   6.557  18.073  0.00  0.00    +0.000 C 
ATOM      3  O   UNL     1       4.652   7.023  17.540  0.00  0.00    +0.000 OA
ENDROOT
BRANCH   2   4
ATOM      4  C   UNL     1       2.639   7.602  18.585  0.00  0.00    +0.000 A 
ATOM      5  C   UNL     1       2.047   8.506  17.575  0.00  0.00    +0.000 A 
ATOM      6  C   UNL     1       1.119   9.365  18.003  0.00  0.00    +0.000 A 
ATOM      7  C   UNL     1       0.729   9.428  19.431  0.00  0.00    +0.000 A 
ATOM      8  O   UNL     1      -0.130  10.230  19.782  0.00  0.00    +0.000 OA
ATOM      9  N   UNL     1       1.392   8.542  20.271  0.00  0.00    +0.000 N 
ATOM     10  C   UNL     1       1.085   8.490  21.691  0.00  0.00    +0.000 C 
ATOM     11  N   UNL     1       2.307   7.616  19.838  0.00  0.00    +0.000 NA
ENDBRANCH   2   4
BRANCH   1  12
ATOM     12  C   UNL     1       2.159   4.678  18.877  0.00  0.00    +0.000 C 
ATOM     13  C   UNL     1       1.616   3.407  18.213  0.00  0.00    +0.000 C 
ATOM     14  C   UNL     1       0.540   2.935  19.181  0.00  0.00    +0.000 C 
ATOM     15  C   UNL     1       1.039   3.333  20.568  0.00  0.00    +0.000 C 
ATOM     16  C   UNL     1       2.261   4.224  20.345  0.00  0.00    +0.000 C 
ENDBRANCH   1  12
BRANCH   1  18
ATOM     17  C   UNL     1       4.658   4.093  16.228  0.00  0.00    +0.000 C 
ATOM     18  C   UNL     1       4.311   4.152  17.706  0.00  0.00    +0.000 C 
ENDBRANCH   1  18
TORSDOF 3
ENDMDL
MODEL 8
REMARK VINA RESULT:      -6.4      2.096      5.336
REMARK  Name = 
REMARK  5 active torsions:
REMARK  status: ('A' for Active; 'I' for Inactive)
REMARK    1  A    between atoms: C_1  and  C_2
REMARK    2  A    between atoms: C_2  and  N_3
REMARK    3  A    between atoms: N_3  and  C_14
REMARK    4  A    between atoms: C_4  and  C_6
REMARK    5  A    between atoms: N_11  and  C_12
REMARK                            x       y       z     vdW  Elec       q    Type
REMARK                         _______ _______ _______ _____ _____    ______ ____
ROOT
ATOM      1  N   UNL     1       5.044   4.878  16.580  0.00  0.00    +0.000 N 
ATOM      2  C   UNL     1       3.918   4.080  16.882  0.00  0.00    +0.000 C 
ATOM      3  O   UNL     1       3.218   3.516  16.043  0.00  0.00    +0.000 OA
ENDROOT
BRANCH   2   4
ATOM      4  C   UNL     1       3.476   3.875  18.342  0.00  0.00    +0.000 A 
ATOM      5  C   UNL     1       3.970   2.656  19.021  0.00  0.00    +0.000 A 
ATOM      6  C   UNL     1       3.649   2.511  20.309  0.00  0.00    +0.000 A 
ATOM      7  C   UNL     1       2.808   3.509  21.010  0.00  0.00    +0.000 A 
ATOM      8  O   UNL     1       2.539   3.338  22.194  0.00  0.00    +0.000 OA
ATOM      9  N   UNL     1       2.388   4.585  20.238  0.00  0.00    +0.000 N 
ATOM     10  C   UNL     1       1.576   5.644  20.814  0.00  0.00    +0.000 C 
ATOM     11  N   UNL     1       2.755   4.778  18.930  0.00  0.00    +0.000 NA
ENDBRANCH   2   4
BRANCH   1  12
ATOM     12  C   UNL     1       5.854   5.521  17.635  0.00  0.00    +0.000 C 
ATOM     13  C   UNL     1       7.034   4.655  18.091  0.00  0.00    +0.000 C 
ATOM     14  C   UNL     1       7.858   5.607  18.948  0.00  0.00    +0.000 C 
ATOM     15  C   UNL     1       7.674   6.984  18.316  0.00  0.00    +0.000 C 
ATOM     16  C   UNL     1       6.572   6.832  17.268  0.00  0.00    +0.000 C 
ENDBRANCH   1  12
BRANCH   1  18
ATOM     17  C   UNL     1       6.354   3.969  14.513  0.00  0.00    +0.000 C 
ATOM     18  C   UNL     1       5.527   5.045  15.197  0.00  0.00    +0.000 C 
ENDBRANCH   1  18
TORSDOF 3
ENDMDL
MODEL 9
REMARK VINA RESULT:      -6.3      2.132      5.626
REMARK  Name = 
REMARK  5 active torsions:
REMARK  status: ('A' for Active; 'I' for Inactive)
REMARK    1  A    between atoms: C_1  and  C_2
REMARK    2  A    between atoms: C_2  and  N_3
REMARK    3  A    between atoms: N_3  and  C_14
REMARK    4  A    between atoms: C_4  and  C_6
REMARK    5  A    between atoms: N_11  and  C_12
REMARK                            x       y       z     vdW  Elec       q    Type
REMARK                         _______ _______ _______ _____ _____    ______ ____
ROOT
ATOM      1  N   UNL     1       6.368   5.391  17.638  0.00  0.00    +0.000 N 
ATOM      2  C   UNL     1       5.520   5.285  18.763  0.00  0.00    +0.000 C 
ATOM      3  O   UNL     1       5.758   5.775  19.865  0.00  0.00    +0.000 OA
ENDROOT
BRANCH   2   4
ATOM      4  C   UNL     1       4.197   4.503  18.671  0.00  0.00    +0.000 A 
ATOM      5  C   UNL     1       2.982   5.286  18.356  0.00  0.00    +0.000 A 
ATOM      6  C   UNL     1       1.845   4.602  18.203  0.00  0.00    +0.000 A 
ATOM      7  C   UNL     1       1.803   3.131  18.378  0.00  0.00    +0.000 A 
ATOM      8  O   UNL     1       0.739   2.541  18.226  0.00  0.00    +0.000 OA
ATOM      9  N   UNL     1       3.014   2.533  18.705  0.00  0.00    +0.000 N 
ATOM     10  C   UNL     1       3.110   1.094  18.882  0.00  0.00    +0.000 C 
ATOM     11  N   UNL     1       4.200   3.214  18.811  0.00  0.00    +0.000 NA
ENDBRANCH   2   4
BRANCH   1  12
ATOM     12  C   UNL     1       6.021   4.790  16.335  0.00  0.00    +0.000 C 
ATOM     13  C   UNL     1       5.304   5.770  15.398  0.00  0.00    +0.000 C 
ATOM     14  C   UNL     1       5.299   5.039  14.062  0.00  0.00    +0.000 C 
ATOM     15  C   UNL     1       6.592   4.228  14.038  0.00  0.00    +0.000 C 
ATOM     16  C   UNL     1       7.185   4.324  15.443  0.00  0.00    +0.000 C 
ENDBRANCH   1  12
BRANCH   1  18
ATOM     17  C   UNL     1       7.591   7.696  17.535  0.00  0.00    +0.000 C 
ATOM     18  C   UNL     1       7.612   6.183  17.678  0.00  0.00    +0.000 C 
ENDBRANCH   1  18
TORSDOF 3
ENDMDL
