MODEL 1
REMARK VINA RESULT:      -7.8      0.000      0.000
REMARK  Name = 
REMARK  13 active torsions:
REMARK  status: ('A' for Active; 'I' for Inactive)
REMARK    1  A    between atoms: C_1  and  O_2
REMARK    2  A    between atoms: O_2  and  C_3
REMARK    3  A    between atoms: C_3  and  C_5
REMARK    4  A    between atoms: C_10  and  N_11
REMARK    5  A    between atoms: C_12  and  C_14
REMARK    6  A    between atoms: C_14  and  S_15
REMARK    7  A    between atoms: S_15  and  C_16
REMARK    8  A    between atoms: C_19  and  C_20
REMARK    9  A    between atoms: C_20  and  O_21
REMARK   10  A    between atoms: O_21  and  C_22
REMARK   11  A    between atoms: C_26  and  O_27
REMARK   12  A    between atoms: O_27  and  C_28
REMARK   13  A    between atoms: N_30  and  C_31
REMARK                            x       y       z     vdW  Elec       q    Type
REMARK                         _______ _______ _______ _____ _____    ______ ____
ROOT
ATOM      1  S   UNL     1       6.837   4.356  16.990  0.00  0.00    +0.000 S 
ENDROOT
BRANCH   1   2
ATOM      2  C   UNL     1       7.260   6.014  17.222  0.00  0.00    +0.000 A 
ATOM      3  N   UNL     1       7.131   6.987  16.356  0.00  0.00    +0.000 NA
ATOM      4  N   UNL     1       7.651   8.123  16.931  0.00  0.00    +0.000 NA
ATOM      5  C   UNL     1       8.089   7.818  18.142  0.00  0.00    +0.000 A 
ATOM      6  N   UNL     1       7.835   6.486  18.373  0.00  0.00    +0.000 N 
ATOM      7  C   UNL     1       8.107   5.712  19.556  0.00  0.00    +0.000 C 
BRANCH   5   8
ATOM      8  C   UNL     1       8.796   8.758  19.062  0.00  0.00    +0.000 C 
BRANCH   8   9
ATOM      9  O   UNL     1       8.615  10.078  18.550  0.00  0.00    +0.000 OA
BRANCH   9  10
ATOM     10  C   UNL     1       9.617  10.986  18.785  0.00  0.00    +0.000 A 
ATOM     11  C   UNL     1       9.991  11.098  20.127  0.00  0.00    +0.000 A 
ATOM     12  C   UNL     1      11.020  11.958  20.509  0.00  0.00    +0.000 A 
ATOM     13  C   UNL     1      11.679  12.717  19.546  0.00  0.00    +0.000 A 
ATOM     14  C   UNL     1      11.306  12.632  18.202  0.00  0.00    +0.000 A 
ATOM     15  C   UNL     1      10.272  11.765  17.824  0.00  0.00    +0.000 A 
BRANCH  14  16
ATOM     16  O   UNL     1      12.028  13.440  17.364  0.00  0.00    +0.000 OA
ATOM     17  C   UNL     1      12.221  14.788  17.772  0.00  0.00    +0.000 C 
ENDBRANCH  14  16
ENDBRANCH   9  10
ENDBRANCH   8   9
ENDBRANCH   5   8
ENDBRANCH   1   2
BRANCH   1  18
ATOM     18  C   UNL     1       5.217   4.502  16.186  0.00  0.00    +0.000 C 
BRANCH  18  20
ATOM     19  N   UNL     1       4.375   4.397  18.490  0.00  0.00    +0.000 N 
ATOM     20  C   UNL     1       4.164   4.013  17.166  0.00  0.00    +0.000 C 
ATOM     21  O   UNL     1       3.196   3.379  16.749  0.00  0.00    +0.000 OA
ATOM     22  H   UNL     1       5.079   5.111  18.665  0.00  0.00    +0.000 HD
BRANCH  19  28
ATOM     23  C   UNL     1       2.605   4.969  20.147  0.00  0.00    +0.000 A 
ATOM     24  C   UNL     1       1.782   4.549  21.219  0.00  0.00    +0.000 A 
ATOM     25  C   UNL     1       1.886   3.272  21.761  0.00  0.00    +0.000 A 
ATOM     26  C   UNL     1       2.826   2.394  21.250  0.00  0.00    +0.000 A 
ATOM     27  C   UNL     1       3.647   2.791  20.192  0.00  0.00    +0.000 A 
ATOM     28  C   UNL     1       3.542   4.062  19.598  0.00  0.00    +0.000 A 
BRANCH  23  29
ATOM     29  C   UNL     1       2.333   6.363  19.688  0.00  0.00    +0.000 C 
ATOM     30  O   UNL     1       2.775   6.815  18.636  0.00  0.00    +0.000 OA
BRANCH  29  32
ATOM     31  C   UNL     1       1.558   8.470  20.271  0.00  0.00    +0.000 C 
ATOM     32  O   UNL     1       1.561   7.064  20.559  0.00  0.00    +0.000 OA
ENDBRANCH  29  32
ENDBRANCH  23  29
ENDBRANCH  19  28
ENDBRANCH  18  20
ENDBRANCH   1  18
TORSDOF 10
ENDMDL
MODEL 2
REMARK VINA RESULT:      -7.3      4.217      7.836
REMARK  Name = 
REMARK  13 active torsions:
REMARK  status: ('A' for Active; 'I' for Inactive)
REMARK    1  A    between atoms: C_1  and  O_2
REMARK    2  A    between atoms: O_2  and  C_3
REMARK    3  A    between atoms: C_3  and  C_5
REMARK    4  A    between atoms: C_10  and  N_11
REMARK    5  A    between atoms: C_12  and  C_14
REMARK    6  A    between atoms: C_14  and  S_15
REMARK    7  A    between atoms: S_15  and  C_16
REMARK    8  A    between atoms: C_19  and  C_20
REMARK    9  A    between atoms: C_20  and  O_21
REMARK   10  A    between atoms: O_21  and  C_22
REMARK   11  A    between atoms: C_26  and  O_27
REMARK   12  A    between atoms: O_27  and  C_28
REMARK   13  A    between atoms: N_30  and  C_31
REMARK                            x       y       z     vdW  Elec       q    Type
REMARK                         _______ _______ _______ _____ _____    ______ ____
ROOT
ATOM      1  S   UNL     1       2.446   2.512  17.627  0.00  0.00    +0.000 S 
ENDROOT
BRANCH   1   2
ATOM      2  C   UNL     1       2.313   4.122  18.237  0.00  0.00    +0.000 A 
ATOM      3  N   UNL     1       2.753   5.217  17.669  0.00  0.00    +0.000 NA
ATOM      4  N   UNL     1       2.495   6.260  18.528  0.00  0.00    +0.000 NA
ATOM      5  C   UNL     1       1.901   5.778  19.608  0.00  0.00    +0.000 A 
ATOM      6  N   UNL     1       1.746   4.420  19.448  0.00  0.00    +0.000 N 
ATOM      7  C   UNL     1       1.131   3.475  20.344  0.00  0.00    +0.000 C 
BRANCH   5   8
ATOM      8  C   UNL     1       1.528   6.577  20.813  0.00  0.00    +0.000 C 
BRANCH   8   9
ATOM      9  O   UNL     1       1.870   7.937  20.549  0.00  0.00    +0.000 OA
BRANCH   9  10
ATOM     10  C   UNL     1       0.961   8.896  20.918  0.00  0.00    +0.000 A 
ATOM     11  C   UNL     1       0.793   9.032  22.300  0.00  0.00    +0.000 A 
ATOM     12  C   UNL     1      -0.074   9.991  22.819  0.00  0.00    +0.000 A 
ATOM     13  C   UNL     1      -0.785  10.821  21.956  0.00  0.00    +0.000 A 
ATOM     14  C   UNL     1      -0.645  10.687  20.572  0.00  0.00    +0.000 A 
ATOM     15  C   UNL     1       0.229   9.721  20.055  0.00  0.00    +0.000 A 
BRANCH  14  16
ATOM     16  O   UNL     1      -1.410  11.556  19.842  0.00  0.00    +0.000 OA
ATOM     17  C   UNL     1      -1.272  12.941  20.132  0.00  0.00    +0.000 C 
ENDBRANCH  14  16
ENDBRANCH   9  10
ENDBRANCH   8   9
ENDBRANCH   5   8
ENDBRANCH   1   2
BRANCH   1  18
ATOM     18  C   UNL     1       3.735   1.822  18.700  0.00  0.00    +0.000 C 
BRANCH  18  20
ATOM     19  N   UNL     1       5.233   3.627  17.973  0.00  0.00    +0.000 N 
ATOM     20  C   UNL     1       4.691   2.946  19.063  0.00  0.00    +0.000 C 
ATOM     21  O   UNL     1       4.885   3.218  20.247  0.00  0.00    +0.000 OA
ATOM     22  H   UNL     1       4.815   3.460  17.061  0.00  0.00    +0.000 HD
BRANCH  19  28
ATOM     23  C   UNL     1       6.352   5.615  16.973  0.00  0.00    +0.000 A 
ATOM     24  C   UNL     1       7.257   6.692  17.133  0.00  0.00    +0.000 A 
ATOM     25  C   UNL     1       7.975   6.871  18.311  0.00  0.00    +0.000 A 
ATOM     26  C   UNL     1       7.814   5.967  19.347  0.00  0.00    +0.000 A 
ATOM     27  C   UNL     1       6.926   4.899  19.206  0.00  0.00    +0.000 A 
ATOM     28  C   UNL     1       6.158   4.711  18.044  0.00  0.00    +0.000 A 
BRANCH  23  29
ATOM     29  C   UNL     1       5.660   5.601  15.651  0.00  0.00    +0.000 C 
ATOM     30  O   UNL     1       5.304   6.625  15.075  0.00  0.00    +0.000 OA
BRANCH  29  32
ATOM     31  C   UNL     1       6.058   4.157  13.880  0.00  0.00    +0.000 C 
ATOM     32  O   UNL     1       5.463   4.344  15.172  0.00  0.00    +0.000 OA
ENDBRANCH  29  32
ENDBRANCH  23  29
ENDBRANCH  19  28
ENDBRANCH  18  20
ENDBRANCH   1  18
TORSDOF 10
ENDMDL
MODEL 3
REMARK VINA RESULT:      -7.2      4.415      7.917
REMARK  Name = 
REMARK  13 active torsions:
REMARK  status: ('A' for Active; 'I' for Inactive)
REMARK    1  A    between atoms: C_1  and  O_2
REMARK    2  A    between atoms: O_2  and  C_3
REMARK    3  A    between atoms: C_3  and  C_5
REMARK    4  A    between atoms: C_10  and  N_11
REMARK    5  A    between atoms: C_12  and  C_14
REMARK    6  A    between atoms: C_14  and  S_15
REMARK    7  A    between atoms: S_15  and  C_16
REMARK    8  A    between atoms: C_19  and  C_20
REMARK    9  A    between atoms: C_20  and  O_21
REMARK   10  A    between atoms: O_21  and  C_22
REMARK   11  A    between atoms: C_26  and  O_27
REMARK   12  A    between atoms: O_27  and  C_28
REMARK   13  A    between atoms: N_30  and  C_31
REMARK                            x       y       z     vdW  Elec       q    Type
REMARK                         _______ _______ _______ _____ _____    ______ ____
ROOT
ATOM      1  S   UNL     1       1.799   2.135  18.723  0.00  0.00    +0.000 S 
ENDROOT
BRANCH   1   2
ATOM      2  C   UNL     1       1.991   3.845  18.581  0.00  0.00    +0.000 A 
ATOM      3  N   UNL     1       2.180   4.527  17.479  0.00  0.00    +0.000 NA
ATOM      4  N   UNL     1       2.347   5.846  17.833  0.00  0.00    +0.000 NA
ATOM      5  C   UNL     1       2.256   5.942  19.150  0.00  0.00    +0.000 A 
ATOM      6  N   UNL     1       2.006   4.689  19.660  0.00  0.00    +0.000 N 
ATOM      7  C   UNL     1       1.802   4.304  21.033  0.00  0.00    +0.000 C 
BRANCH   5   8
ATOM      8  C   UNL     1       2.460   7.195  19.935  0.00  0.00    +0.000 C 
BRANCH   8   9
ATOM      9  O   UNL     1       2.009   8.285  19.131  0.00  0.00    +0.000 OA
BRANCH   9  10
ATOM     10  C   UNL     1       1.140   9.175  19.710  0.00  0.00    +0.000 A 
ATOM     11  C   UNL     1       0.721  10.206  18.864  0.00  0.00    +0.000 A 
ATOM     12  C   UNL     1      -0.189  11.164  19.308  0.00  0.00    +0.000 A 
ATOM     13  C   UNL     1      -0.683  11.098  20.608  0.00  0.00    +0.000 A 
ATOM     14  C   UNL     1      -0.261  10.086  21.474  0.00  0.00    +0.000 A 
ATOM     15  C   UNL     1       0.654   9.125  21.022  0.00  0.00    +0.000 A 
BRANCH  14  16
ATOM     16  O   UNL     1      -0.815  10.147  22.724  0.00  0.00    +0.000 OA
ATOM     17  C   UNL     1      -1.428  11.373  23.103  0.00  0.00    +0.000 C 
ENDBRANCH  14  16
ENDBRANCH   9  10
ENDBRANCH   8   9
ENDBRANCH   5   8
ENDBRANCH   1   2
BRANCH   1  18
ATOM     18  C   UNL     1       3.456   1.545  18.277  0.00  0.00    +0.000 C 
BRANCH  18  20
ATOM     19  N   UNL     1       4.924   3.431  17.712  0.00  0.00    +0.000 N 
ATOM     20  C   UNL     1       4.460   2.593  18.726  0.00  0.00    +0.000 C 
ATOM     21  O   UNL     1       4.758   2.676  19.917  0.00  0.00    +0.000 OA
ATOM     22  H   UNL     1       4.428   3.410  16.824  0.00  0.00    +0.000 HD
BRANCH  19  28
ATOM     23  C   UNL     1       6.509   5.106  16.769  0.00  0.00    +0.000 A 
ATOM     24  C   UNL     1       7.408   6.173  17.003  0.00  0.00    +0.000 A 
ATOM     25  C   UNL     1       7.697   6.614  18.290  0.00  0.00    +0.000 A 
ATOM     26  C   UNL     1       7.104   5.984  19.371  0.00  0.00    +0.000 A 
ATOM     27  C   UNL     1       6.215   4.929  19.159  0.00  0.00    +0.000 A 
ATOM     28  C   UNL     1       5.873   4.484  17.870  0.00  0.00    +0.000 A 
BRANCH  23  29
ATOM     29  C   UNL     1       6.309   4.790  15.325  0.00  0.00    +0.000 C 
ATOM     30  O   UNL     1       5.624   3.848  14.938  0.00  0.00    +0.000 OA
BRANCH  29  32
ATOM     31  C   UNL     1       7.413   5.006  13.295  0.00  0.00    +0.000 C 
ATOM     32  O   UNL     1       6.971   5.646  14.501  0.00  0.00    +0.000 OA
ENDBRANCH  29  32
ENDBRANCH  23  29
ENDBRANCH  19  28
ENDBRANCH  18  20
ENDBRANCH   1  18
TORSDOF 10
ENDMDL
MODEL 4
REMARK VINA RESULT:      -7.0      5.932     10.059
REMARK  Name = 
REMARK  13 active torsions:
REMARK  status: ('A' for Active; 'I' for Inactive)
REMARK    1  A    between atoms: C_1  and  O_2
REMARK    2  A    between atoms: O_2  and  C_3
REMARK    3  A    between atoms: C_3  and  C_5
REMARK    4  A    between atoms: C_10  and  N_11
REMARK    5  A    between atoms: C_12  and  C_14
REMARK    6  A    between atoms: C_14  and  S_15
REMARK    7  A    between atoms: S_15  and  C_16
REMARK    8  A    between atoms: C_19  and  C_20
REMARK    9  A    between atoms: C_20  and  O_21
REMARK   10  A    between atoms: O_21  and  C_22
REMARK   11  A    between atoms: C_26  and  O_27
REMARK   12  A    between atoms: O_27  and  C_28
REMARK   13  A    between atoms: N_30  and  C_31
REMARK                            x       y       z     vdW  Elec       q    Type
REMARK                         _______ _______ _______ _____ _____    ______ ____
ROOT
ATOM      1  S   UNL     1       1.444   9.337  22.246  0.00  0.00    +0.000 S 
ENDROOT
BRANCH   1   2
ATOM      2  C   UNL     1       0.152  10.482  22.252  0.00  0.00    +0.000 A 
ATOM      3  N   UNL     1      -0.727  10.672  23.204  0.00  0.00    +0.000 NA
ATOM      4  N   UNL     1      -1.611  11.630  22.765  0.00  0.00    +0.000 NA
ATOM      5  C   UNL     1      -1.253  12.006  21.548  0.00  0.00    +0.000 A 
ATOM      6  N   UNL     1      -0.118  11.313  21.196  0.00  0.00    +0.000 N 
ATOM      7  C   UNL     1       0.651  11.406  19.982  0.00  0.00    +0.000 C 
BRANCH   5   8
ATOM      8  C   UNL     1      -2.002  12.973  20.692  0.00  0.00    +0.000 C 
BRANCH   8   9
ATOM      9  O   UNL     1      -3.318  12.451  20.505  0.00  0.00    +0.000 OA
BRANCH   9  10
ATOM     10  C   UNL     1      -3.661  12.051  19.238  0.00  0.00    +0.000 A 
ATOM     11  C   UNL     1      -5.038  11.988  19.006  0.00  0.00    +0.000 A 
ATOM     12  C   UNL     1      -5.531  11.630  17.752  0.00  0.00    +0.000 A 
ATOM     13  C   UNL     1      -4.645  11.326  16.721  0.00  0.00    +0.000 A 
ATOM     14  C   UNL     1      -3.265  11.365  16.941  0.00  0.00    +0.000 A 
ATOM     15  C   UNL     1      -2.776  11.727  18.203  0.00  0.00    +0.000 A 
BRANCH  14  16
ATOM     16  O   UNL     1      -2.511  11.033  15.848  0.00  0.00    +0.000 OA
ATOM     17  C   UNL     1      -2.969   9.949  15.050  0.00  0.00    +0.000 C 
ENDBRANCH  14  16
ENDBRANCH   9  10
ENDBRANCH   8   9
ENDBRANCH   5   8
ENDBRANCH   1   2
BRANCH   1  18
ATOM     18  C   UNL     1       0.664   7.913  21.437  0.00  0.00    +0.000 C 
BRANCH  18  20
ATOM     19  N   UNL     1       2.054   6.120  20.499  0.00  0.00    +0.000 N 
ATOM     20  C   UNL     1       1.599   7.429  20.342  0.00  0.00    +0.000 C 
ATOM     21  O   UNL     1       1.851   8.166  19.389  0.00  0.00    +0.000 OA
ATOM     22  H   UNL     1       1.591   5.543  21.197  0.00  0.00    +0.000 HD
BRANCH  19  28
ATOM     23  C   UNL     1       2.612   4.201  19.011  0.00  0.00    +0.000 A 
ATOM     24  C   UNL     1       3.530   3.603  18.114  0.00  0.00    +0.000 A 
ATOM     25  C   UNL     1       4.759   4.190  17.832  0.00  0.00    +0.000 A 
ATOM     26  C   UNL     1       5.102   5.379  18.452  0.00  0.00    +0.000 A 
ATOM     27  C   UNL     1       4.209   5.983  19.339  0.00  0.00    +0.000 A 
ATOM     28  C   UNL     1       2.944   5.435  19.618  0.00  0.00    +0.000 A 
BRANCH  23  29
ATOM     29  C   UNL     1       1.341   3.437  19.171  0.00  0.00    +0.000 C 
ATOM     30  O   UNL     1       0.814   2.822  18.248  0.00  0.00    +0.000 OA
BRANCH  29  32
ATOM     31  C   UNL     1       1.479   2.587  21.325  0.00  0.00    +0.000 C 
ATOM     32  O   UNL     1       0.837   3.508  20.431  0.00  0.00    +0.000 OA
ENDBRANCH  29  32
ENDBRANCH  23  29
ENDBRANCH  19  28
ENDBRANCH  18  20
ENDBRANCH   1  18
TORSDOF 10
ENDMDL
MODEL 5
REMARK VINA RESULT:      -7.0      6.082      9.913
REMARK  Name = 
REMARK  13 active torsions:
REMARK  status: ('A' for Active; 'I' for Inactive)
REMARK    1  A    between atoms: C_1  and  O_2
REMARK    2  A    between atoms: O_2  and  C_3
REMARK    3  A    between atoms: C_3  and  C_5
REMARK    4  A    between atoms: C_10  and  N_11
REMARK    5  A    between atoms: C_12  and  C_14
REMARK    6  A    between atoms: C_14  and  S_15
REMARK    7  A    between atoms: S_15  and  C_16
REMARK    8  A    between atoms: C_19  and  C_20
REMARK    9  A    between atoms: C_20  and  O_21
REMARK   10  A    between atoms: O_21  and  C_22
REMARK   11  A    between atoms: C_26  and  O_27
REMARK   12  A    between atoms: O_27  and  C_28
REMARK   13  A    between atoms: N_30  and  C_31
REMARK                            x       y       z     vdW  Elec       q    Type
REMARK                         _______ _______ _______ _____ _____    ______ ____
ROOT
ATOM      1  S   UNL     1       0.106  10.814  19.590  0.00  0.00    +0.000 S 
ENDROOT
BRANCH   1   2
ATOM      2  C   UNL     1       1.168   9.615  18.946  0.00  0.00    +0.000 A 
ATOM      3  N   UNL     1       1.669   9.574  17.737  0.00  0.00    +0.000 NA
ATOM      4  N   UNL     1       2.405   8.417  17.634  0.00  0.00    +0.000 NA
ATOM      5  C   UNL     1       2.337   7.772  18.787  0.00  0.00    +0.000 A 
ATOM      6  N   UNL     1       1.576   8.517  19.658  0.00  0.00    +0.000 N 
ATOM      7  C   UNL     1       1.249   8.236  21.031  0.00  0.00    +0.000 C 
BRANCH   5   8
ATOM      8  C   UNL     1       2.938   6.432  19.058  0.00  0.00    +0.000 C 
BRANCH   8   9
ATOM      9  O   UNL     1       3.366   5.892  17.808  0.00  0.00    +0.000 OA
BRANCH   9  10
ATOM     10  C   UNL     1       4.701   5.606  17.672  0.00  0.00    +0.000 A 
ATOM     11  C   UNL     1       5.408   5.560  18.878  0.00  0.00    +0.000 A 
ATOM     12  C   UNL     1       6.766   5.247  18.894  0.00  0.00    +0.000 A 
ATOM     13  C   UNL     1       7.428   4.980  17.698  0.00  0.00    +0.000 A 
ATOM     14  C   UNL     1       6.742   5.040  16.482  0.00  0.00    +0.000 A 
ATOM     15  C   UNL     1       5.377   5.355  16.472  0.00  0.00    +0.000 A 
BRANCH  14  16
ATOM     16  O   UNL     1       7.516   4.768  15.385  0.00  0.00    +0.000 OA
ATOM     17  C   UNL     1       6.854   4.687  14.130  0.00  0.00    +0.000 C 
ENDBRANCH  14  16
ENDBRANCH   9  10
ENDBRANCH   8   9
ENDBRANCH   5   8
ENDBRANCH   1   2
BRANCH   1  18
ATOM     18  C   UNL     1       1.240  12.207  19.842  0.00  0.00    +0.000 C 
BRANCH  18  20
ATOM     19  N   UNL     1       1.258  14.613  19.350  0.00  0.00    +0.000 N 
ATOM     20  C   UNL     1       0.756  13.364  18.985  0.00  0.00    +0.000 C 
ATOM     21  O   UNL     1       0.022  13.140  18.023  0.00  0.00    +0.000 OA
ATOM     22  H   UNL     1       2.033  14.632  20.010  0.00  0.00    +0.000 HD
BRANCH  19  28
ATOM     23  C   UNL     1       1.929  16.621  18.037  0.00  0.00    +0.000 A 
ATOM     24  C   UNL     1       1.542  17.820  17.394  0.00  0.00    +0.000 A 
ATOM     25  C   UNL     1       0.227  18.273  17.429  0.00  0.00    +0.000 A 
ATOM     26  C   UNL     1      -0.724  17.543  18.120  0.00  0.00    +0.000 A 
ATOM     27  C   UNL     1      -0.359  16.357  18.761  0.00  0.00    +0.000 A 
ATOM     28  C   UNL     1       0.953  15.853  18.715  0.00  0.00    +0.000 A 
BRANCH  23  29
ATOM     29  C   UNL     1       3.375  16.288  17.873  0.00  0.00    +0.000 C 
ATOM     30  O   UNL     1       3.763  15.227  17.393  0.00  0.00    +0.000 OA
BRANCH  29  32
ATOM     31  C   UNL     1       4.756  16.976  19.605  0.00  0.00    +0.000 C 
ATOM     32  O   UNL     1       4.198  17.275  18.318  0.00  0.00    +0.000 OA
ENDBRANCH  29  32
ENDBRANCH  23  29
ENDBRANCH  19  28
ENDBRANCH  18  20
ENDBRANCH   1  18
TORSDOF 10
ENDMDL
MODEL 6
REMARK VINA RESULT:      -6.9      6.181     10.974
REMARK  Name = 
REMARK  13 active torsions:
REMARK  status: ('A' for Active; 'I' for Inactive)
REMARK    1  A    between atoms: C_1  and  O_2
REMARK    2  A    between atoms: O_2  and  C_3
REMARK    3  A    between atoms: C_3  and  C_5
REMARK    4  A    between atoms: C_10  and  N_11
REMARK    5  A    between atoms: C_12  and  C_14
REMARK    6  A    between atoms: C_14  and  S_15
REMARK    7  A    between atoms: S_15  and  C_16
REMARK    8  A    between atoms: C_19  and  C_20
REMARK    9  A    between atoms: C_20  and  O_21
REMARK   10  A    between atoms: O_21  and  C_22
REMARK   11  A    between atoms: C_26  and  O_27
REMARK   12  A    between atoms: O_27  and  C_28
REMARK   13  A    between atoms: N_30  and  C_31
REMARK                            x       y       z     vdW  Elec       q    Type
REMARK                         _______ _______ _______ _____ _____    ______ ____
ROOT
ATOM      1  S   UNL     1       0.774   8.695  21.415  0.00  0.00    +0.000 S 
ENDROOT
BRANCH   1   2
ATOM      2  C   UNL     1      -0.154  10.004  20.777  0.00  0.00    +0.000 A 
ATOM      3  N   UNL     1      -0.278  10.341  19.518  0.00  0.00    +0.000 NA
ATOM      4  N   UNL     1      -1.049  11.478  19.468  0.00  0.00    +0.000 NA
ATOM      5  C   UNL     1      -1.382  11.814  20.704  0.00  0.00    +0.000 A 
ATOM      6  N   UNL     1      -0.848  10.883  21.566  0.00  0.00    +0.000 N 
ATOM      7  C   UNL     1      -0.966  10.815  22.999  0.00  0.00    +0.000 C 
BRANCH   5   8
ATOM      8  C   UNL     1      -2.151  13.036  21.085  0.00  0.00    +0.000 C 
BRANCH   8   9
ATOM      9  O   UNL     1      -3.325  13.075  20.274  0.00  0.00    +0.000 OA
BRANCH   9  10
ATOM     10  C   UNL     1      -4.528  12.861  20.900  0.00  0.00    +0.000 A 
ATOM     11  C   UNL     1      -5.520  12.323  20.075  0.00  0.00    +0.000 A 
ATOM     12  C   UNL     1      -6.782  12.023  20.585  0.00  0.00    +0.000 A 
ATOM     13  C   UNL     1      -7.060  12.264  21.927  0.00  0.00    +0.000 A 
ATOM     14  C   UNL     1      -6.087  12.820  22.762  0.00  0.00    +0.000 A 
ATOM     15  C   UNL     1      -4.820  13.119  22.244  0.00  0.00    +0.000 A 
BRANCH  14  16
ATOM     16  O   UNL     1      -6.498  13.015  24.054  0.00  0.00    +0.000 OA
ATOM     17  C   UNL     1      -7.723  13.709  24.246  0.00  0.00    +0.000 C 
ENDBRANCH  14  16
ENDBRANCH   9  10
ENDBRANCH   8   9
ENDBRANCH   5   8
ENDBRANCH   1   2
BRANCH   1  18
ATOM     18  C   UNL     1       1.819   8.265  19.996  0.00  0.00    +0.000 C 
BRANCH  18  20
ATOM     19  N   UNL     1       2.439   6.236  18.760  0.00  0.00    +0.000 N 
ATOM     20  C   UNL     1       1.964   6.753  19.964  0.00  0.00    +0.000 C 
ATOM     21  O   UNL     1       1.717   6.099  20.977  0.00  0.00    +0.000 OA
ATOM     22  H   UNL     1       2.826   6.895  18.087  0.00  0.00    +0.000 HD
BRANCH  19  28
ATOM     23  C   UNL     1       3.948   4.294  18.360  0.00  0.00    +0.000 A 
ATOM     24  C   UNL     1       4.082   2.907  18.115  0.00  0.00    +0.000 A 
ATOM     25  C   UNL     1       2.971   2.085  17.959  0.00  0.00    +0.000 A 
ATOM     26  C   UNL     1       1.703   2.637  18.032  0.00  0.00    +0.000 A 
ATOM     27  C   UNL     1       1.553   4.004  18.273  0.00  0.00    +0.000 A 
ATOM     28  C   UNL     1       2.654   4.856  18.471  0.00  0.00    +0.000 A 
BRANCH  23  29
ATOM     29  C   UNL     1       5.250   5.007  18.519  0.00  0.00    +0.000 C 
ATOM     30  O   UNL     1       6.185   4.547  19.168  0.00  0.00    +0.000 OA
BRANCH  29  32
ATOM     31  C   UNL     1       5.524   6.069  16.475  0.00  0.00    +0.000 C 
ATOM     32  O   UNL     1       5.276   6.207  17.882  0.00  0.00    +0.000 OA
ENDBRANCH  29  32
ENDBRANCH  23  29
ENDBRANCH  19  28
ENDBRANCH  18  20
ENDBRANCH   1  18
TORSDOF 10
ENDMDL
MODEL 7
REMARK VINA RESULT:      -6.8      5.160      8.743
REMARK  Name = 
REMARK  13 active torsions:
REMARK  status: ('A' for Active; 'I' for Inactive)
REMARK    1  A    between atoms: C_1  and  O_2
REMARK    2  A    between atoms: O_2  and  C_3
REMARK    3  A    between atoms: C_3  and  C_5
REMARK    4  A    between atoms: C_10  and  N_11
REMARK    5  A    between atoms: C_12  and  C_14
REMARK    6  A    between atoms: C_14  and  S_15
REMARK    7  A    between atoms: S_15  and  C_16
REMARK    8  A    between atoms: C_19  and  C_20
REMARK    9  A    between atoms: C_20  and  O_21
REMARK   10  A    between atoms: O_21  and  C_22
REMARK   11  A    between atoms: C_26  and  O_27
REMARK   12  A    between atoms: O_27  and  C_28
REMARK   13  A    between atoms: N_30  and  C_31
REMARK                            x       y       z     vdW  Elec       q    Type
REMARK                         _______ _______ _______ _____ _____    ______ ____
ROOT
ATOM      1  S   UNL     1       1.580   8.412  21.620  0.00  0.00    +0.000 S 
ENDROOT
BRANCH   1   2
ATOM      2  C   UNL     1       1.980   7.686  20.105  0.00  0.00    +0.000 A 
ATOM      3  N   UNL     1       2.173   8.300  18.965  0.00  0.00    +0.000 NA
ATOM      4  N   UNL     1       2.401   7.337  18.011  0.00  0.00    +0.000 NA
ATOM      5  C   UNL     1       2.341   6.148  18.590  0.00  0.00    +0.000 A 
ATOM      6  N   UNL     1       2.098   6.332  19.932  0.00  0.00    +0.000 N 
ATOM      7  C   UNL     1       1.978   5.338  20.967  0.00  0.00    +0.000 C 
BRANCH   5   8
ATOM      8  C   UNL     1       2.456   4.839  17.881  0.00  0.00    +0.000 C 
BRANCH   8   9
ATOM      9  O   UNL     1       3.540   4.123  18.474  0.00  0.00    +0.000 OA
BRANCH   9  10
ATOM     10  C   UNL     1       4.811   4.531  18.155  0.00  0.00    +0.000 A 
ATOM     11  C   UNL     1       5.520   5.094  19.220  0.00  0.00    +0.000 A 
ATOM     12  C   UNL     1       6.837   5.521  19.050  0.00  0.00    +0.000 A 
ATOM     13  C   UNL     1       7.450   5.391  17.807  0.00  0.00    +0.000 A 
ATOM     14  C   UNL     1       6.750   4.848  16.726  0.00  0.00    +0.000 A 
ATOM     15  C   UNL     1       5.428   4.420  16.903  0.00  0.00    +0.000 A 
BRANCH  14  16
ATOM     16  O   UNL     1       7.468   4.790  15.562  0.00  0.00    +0.000 OA
ATOM     17  C   UNL     1       6.753   4.477  14.374  0.00  0.00    +0.000 C 
ENDBRANCH  14  16
ENDBRANCH   9  10
ENDBRANCH   8   9
ENDBRANCH   5   8
ENDBRANCH   1   2
BRANCH   1  18
ATOM     18  C   UNL     1      -0.149   8.888  21.350  0.00  0.00    +0.000 C 
BRANCH  18  20
ATOM     19  N   UNL     1      -1.160  11.076  21.819  0.00  0.00    +0.000 N 
ATOM     20  C   UNL     1      -0.496   9.974  22.355  0.00  0.00    +0.000 C 
ATOM     21  O   UNL     1      -0.232   9.805  23.545  0.00  0.00    +0.000 OA
ATOM     22  H   UNL     1      -1.525  10.989  20.873  0.00  0.00    +0.000 HD
BRANCH  19  28
ATOM     23  C   UNL     1      -0.872  13.448  22.523  0.00  0.00    +0.000 A 
ATOM     24  C   UNL     1      -1.380  14.560  23.236  0.00  0.00    +0.000 A 
ATOM     25  C   UNL     1      -2.556  14.476  23.974  0.00  0.00    +0.000 A 
ATOM     26  C   UNL     1      -3.239  13.274  24.027  0.00  0.00    +0.000 A 
ATOM     27  C   UNL     1      -2.752  12.166  23.331  0.00  0.00    +0.000 A 
ATOM     28  C   UNL     1      -1.586  12.227  22.545  0.00  0.00    +0.000 A 
BRANCH  23  29
ATOM     29  C   UNL     1       0.387  13.736  21.775  0.00  0.00    +0.000 C 
ATOM     30  O   UNL     1       1.325  14.357  22.264  0.00  0.00    +0.000 OA
BRANCH  29  32
ATOM     31  C   UNL     1       1.215  14.000  19.623  0.00  0.00    +0.000 C 
ATOM     32  O   UNL     1       0.370  13.248  20.506  0.00  0.00    +0.000 OA
ENDBRANCH  29  32
ENDBRANCH  23  29
ENDBRANCH  19  28
ENDBRANCH  18  20
ENDBRANCH   1  18
TORSDOF 10
ENDMDL
MODEL 8
REMARK VINA RESULT:      -6.8      4.490      8.876
REMARK  Name = 
REMARK  13 active torsions:
REMARK  status: ('A' for Active; 'I' for Inactive)
REMARK    1  A    between atoms: C_1  and  O_2
REMARK    2  A    between atoms: O_2  and  C_3
REMARK    3  A    between atoms: C_3  and  C_5
REMARK    4  A    between atoms: C_10  and  N_11
REMARK    5  A    between atoms: C_12  and  C_14
REMARK    6  A    between atoms: C_14  and  S_15
REMARK    7  A    between atoms: S_15  and  C_16
REMARK    8  A    between atoms: C_19  and  C_20
REMARK    9  A    between atoms: C_20  and  O_21
REMARK   10  A    between atoms: O_21  and  C_22
REMARK   11  A    between atoms: C_26  and  O_27
REMARK   12  A    between atoms: O_27  and  C_28
REMARK   13  A    between atoms: N_30  and  C_31
REMARK                            x       y       z     vdW  Elec       q    Type
REMARK                         _______ _______ _______ _____ _____    ______ ____
ROOT
ATOM      1  S   UNL     1       2.947   5.931  19.655  0.00  0.00    +0.000 S 
ENDROOT
BRANCH   1   2
ATOM      2  C   UNL     1       2.438   7.434  18.974  0.00  0.00    +0.000 A 
ATOM      3  N   UNL     1       2.683   7.873  17.765  0.00  0.00    +0.000 NA
ATOM      4  N   UNL     1       2.150   9.137  17.669  0.00  0.00    +0.000 NA
ATOM      5  C   UNL     1       1.589   9.446  18.827  0.00  0.00    +0.000 A 
ATOM      6  N   UNL     1       1.732   8.374  19.678  0.00  0.00    +0.000 N 
ATOM      7  C   UNL     1       1.259   8.233  21.030  0.00  0.00    +0.000 C 
BRANCH   5   8
ATOM      8  C   UNL     1       0.969  10.763  19.157  0.00  0.00    +0.000 C 
BRANCH   8   9
ATOM      9  O   UNL     1      -0.384  10.727  18.703  0.00  0.00    +0.000 OA
BRANCH   9  10
ATOM     10  C   UNL     1      -1.323  11.361  19.477  0.00  0.00    +0.000 A 
ATOM     11  C   UNL     1      -0.927  11.583  20.799  0.00  0.00    +0.000 A 
ATOM     12  C   UNL     1      -1.768  12.248  21.691  0.00  0.00    +0.000 A 
ATOM     13  C   UNL     1      -3.017  12.692  21.263  0.00  0.00    +0.000 A 
ATOM     14  C   UNL     1      -3.437  12.461  19.950  0.00  0.00    +0.000 A 
ATOM     15  C   UNL     1      -2.587  11.793  19.058  0.00  0.00    +0.000 A 
BRANCH  14  16
ATOM     16  O   UNL     1      -4.688  12.939  19.667  0.00  0.00    +0.000 OA
ATOM     17  C   UNL     1      -5.151  14.040  20.438  0.00  0.00    +0.000 C 
ENDBRANCH  14  16
ENDBRANCH   9  10
ENDBRANCH   8   9
ENDBRANCH   5   8
ENDBRANCH   1   2
BRANCH   1  18
ATOM     18  C   UNL     1       2.194   4.740  18.512  0.00  0.00    +0.000 C 
BRANCH  18  20
ATOM     19  N   UNL     1       4.057   5.254  16.999  0.00  0.00    +0.000 N 
ATOM     20  C   UNL     1       3.279   4.248  17.570  0.00  0.00    +0.000 C 
ATOM     21  O   UNL     1       3.441   3.039  17.410  0.00  0.00    +0.000 OA
ATOM     22  H   UNL     1       3.976   6.190  17.391  0.00  0.00    +0.000 HD
BRANCH  19  28
ATOM     23  C   UNL     1       6.381   5.703  16.220  0.00  0.00    +0.000 A 
ATOM     24  C   UNL     1       7.411   5.426  15.290  0.00  0.00    +0.000 A 
ATOM     25  C   UNL     1       7.217   4.549  14.228  0.00  0.00    +0.000 A 
ATOM     26  C   UNL     1       5.982   3.943  14.066  0.00  0.00    +0.000 A 
ATOM     27  C   UNL     1       4.954   4.206  14.974  0.00  0.00    +0.000 A 
ATOM     28  C   UNL     1       5.129   5.059  16.079  0.00  0.00    +0.000 A 
BRANCH  23  29
ATOM     29  C   UNL     1       6.783   6.651  17.300  0.00  0.00    +0.000 C 
ATOM     30  O   UNL     1       7.353   7.715  17.074  0.00  0.00    +0.000 OA
BRANCH  29  32
ATOM     31  C   UNL     1       7.576   5.597  19.209  0.00  0.00    +0.000 C 
ATOM     32  O   UNL     1       6.459   6.204  18.542  0.00  0.00    +0.000 OA
ENDBRANCH  29  32
ENDBRANCH  23  29
ENDBRANCH  19  28
ENDBRANCH  18  20
ENDBRANCH   1  18
TORSDOF 10
ENDMDL
MODEL 9
REMARK VINA RESULT:      -6.7      6.396     11.403
REMARK  Name = 
REMARK  13 active torsions:
REMARK  status: ('A' for Active; 'I' for Inactive)
REMARK    1  A    between atoms: C_1  and  O_2
REMARK    2  A    between atoms: O_2  and  C_3
REMARK    3  A    between atoms: C_3  and  C_5
REMARK    4  A    between atoms: C_10  and  N_11
REMARK    5  A    between atoms: C_12  and  C_14
REMARK    6  A    between atoms: C_14  and  S_15
REMARK    7  A    between atoms: S_15  and  C_16
REMARK    8  A    between atoms: C_19  and  C_20
REMARK    9  A    between atoms: C_20  and  O_21
REMARK   10  A    between atoms: O_21  and  C_22
REMARK   11  A    between atoms: C_26  and  O_27
REMARK   12  A    between atoms: O_27  and  C_28
REMARK   13  A    between atoms: N_30  and  C_31
REMARK                            x       y       z     vdW  Elec       q    Type
REMARK                         _______ _______ _______ _____ _____    ______ ____
ROOT
ATOM      1  S   UNL     1       1.303  10.826  19.044  0.00  0.00    +0.000 S 
ENDROOT
BRANCH   1   2
ATOM      2  C   UNL     1      -0.002  11.407  20.015  0.00  0.00    +0.000 A 
ATOM      3  N   UNL     1      -0.293  11.047  21.239  0.00  0.00    +0.000 NA
ATOM      4  N   UNL     1      -1.444  11.706  21.601  0.00  0.00    +0.000 NA
ATOM      5  C   UNL     1      -1.835  12.458  20.584  0.00  0.00    +0.000 A 
ATOM      6  N   UNL     1      -0.926  12.312  19.562  0.00  0.00    +0.000 N 
ATOM      7  C   UNL     1      -0.915  12.951  18.272  0.00  0.00    +0.000 C 
BRANCH   5   8
ATOM      8  C   UNL     1      -3.087  13.270  20.548  0.00  0.00    +0.000 C 
BRANCH   8   9
ATOM      9  O   UNL     1      -4.003  12.607  19.676  0.00  0.00    +0.000 OA
BRANCH   9  10
ATOM     10  C   UNL     1      -5.245  12.311  20.179  0.00  0.00    +0.000 A 
ATOM     11  C   UNL     1      -6.087  11.646  19.282  0.00  0.00    +0.000 A 
ATOM     12  C   UNL     1      -7.368  11.252  19.668  0.00  0.00    +0.000 A 
ATOM     13  C   UNL     1      -7.816  11.527  20.957  0.00  0.00    +0.000 A 
ATOM     14  C   UNL     1      -6.995  12.207  21.861  0.00  0.00    +0.000 A 
ATOM     15  C   UNL     1      -5.709  12.600  21.467  0.00  0.00    +0.000 A 
BRANCH  14  16
ATOM     16  O   UNL     1      -7.564  12.421  23.088  0.00  0.00    +0.000 OA
ATOM     17  C   UNL     1      -6.722  12.931  24.113  0.00  0.00    +0.000 C 
ENDBRANCH  14  16
ENDBRANCH   9  10
ENDBRANCH   8   9
ENDBRANCH   5   8
ENDBRANCH   1   2
BRANCH   1  18
ATOM     18  C   UNL     1       1.394   9.089  19.560  0.00  0.00    +0.000 C 
BRANCH  18  20
ATOM     19  N   UNL     1       2.639   7.087  18.873  0.00  0.00    +0.000 N 
ATOM     20  C   UNL     1       2.118   8.316  18.470  0.00  0.00    +0.000 C 
ATOM     21  O   UNL     1       2.156   8.771  17.327  0.00  0.00    +0.000 OA
ATOM     22  H   UNL     1       2.339   6.723  19.775  0.00  0.00    +0.000 HD
BRANCH  19  28
ATOM     23  C   UNL     1       2.945   4.846  17.829  0.00  0.00    +0.000 A 
ATOM     24  C   UNL     1       3.696   4.017  16.962  0.00  0.00    +0.000 A 
ATOM     25  C   UNL     1       4.851   4.475  16.335  0.00  0.00    +0.000 A 
ATOM     26  C   UNL     1       5.285   5.767  16.575  0.00  0.00    +0.000 A 
ATOM     27  C   UNL     1       4.557   6.599  17.427  0.00  0.00    +0.000 A 
ATOM     28  C   UNL     1       3.366   6.179  18.047  0.00  0.00    +0.000 A 
BRANCH  23  29
ATOM     29  C   UNL     1       1.729   4.187  18.390  0.00  0.00    +0.000 C 
ATOM     30  O   UNL     1       1.053   3.385  17.753  0.00  0.00    +0.000 OA
BRANCH  29  32
ATOM     31  C   UNL     1       1.458   3.478  20.582  0.00  0.00    +0.000 C 
ATOM     32  O   UNL     1       1.456   4.579  19.662  0.00  0.00    +0.000 OA
ENDBRANCH  29  32
ENDBRANCH  23  29
ENDBRANCH  19  28
ENDBRANCH  18  20
ENDBRANCH   1  18
TORSDOF 10
ENDMDL
