MODEL 1
REMARK VINA RESULT:      -7.5      0.000      0.000
REMARK  Name = 
REMARK  13 active torsions:
REMARK  status: ('A' for Active; 'I' for Inactive)
REMARK    1  A    between atoms: C_1  and  O_2
REMARK    2  A    between atoms: O_2  and  C_3
REMARK    3  A    between atoms: C_3  and  C_5
REMARK    4  A    between atoms: C_5  and  C_6
REMARK    5  A    between atoms: C_6  and  S_7
REMARK    6  A    between atoms: S_7  and  N_10
REMARK    7  A    between atoms: N_10  and  C_11
REMARK    8  A    between atoms: N_10  and  C_19
REMARK    9  A    between atoms: C_11  and  C_12
REMARK   10  A    between atoms: C_12  and  C_13
REMARK   11  A    between atoms: C_13  and  C_14
REMARK   12  A    between atoms: C_14  and  C_15
REMARK   13  A    between atoms: C_27  and  C_28
REMARK                            x       y       z     vdW  Elec       q    Type
REMARK                         _______ _______ _______ _____ _____    ______ ____
ROOT
ATOM      1  N   UNL     1       3.976   4.748  18.109  0.00  0.00    +0.000 N 
ENDROOT
BRANCH   1   2
ATOM      2  C   UNL     1       3.298   5.979  18.443  0.00  0.00    +0.000 A 
ATOM      3  S   UNL     1       2.442   6.178  19.899  0.00  0.00    +0.000 S 
ATOM      4  C   UNL     1       1.965   7.784  19.504  0.00  0.00    +0.000 A 
ATOM      5  C   UNL     1       1.140   8.646  20.260  0.00  0.00    +0.000 A 
ATOM      6  C   UNL     1       0.857   9.926  19.775  0.00  0.00    +0.000 A 
ATOM      7  C   UNL     1       1.390  10.351  18.570  0.00  0.00    +0.000 A 
ATOM      8  C   UNL     1       2.216   9.499  17.830  0.00  0.00    +0.000 A 
ATOM      9  C   UNL     1       2.515   8.184  18.282  0.00  0.00    +0.000 A 
ATOM     10  C   UNL     1       3.318   7.131  17.678  0.00  0.00    +0.000 A 
ATOM     11  C   UNL     1       4.046   7.299  16.381  0.00  0.00    +0.000 C 
ENDBRANCH   1   2
BRANCH   1  12
ATOM     12  S   UNL     1       5.432   4.458  18.951  0.00  0.00    +0.000 S 
ATOM     13  O   UNL     1       5.356   3.214  19.691  0.00  0.00    +0.000 OA
ATOM     14  O   UNL     1       5.833   5.674  19.632  0.00  0.00    +0.000 OA
BRANCH  12  15
ATOM     15  C   UNL     1       6.640   4.169  17.672  0.00  0.00    +0.000 C 
BRANCH  15  16
ATOM     16  C   UNL     1       6.798   5.412  16.790  0.00  0.00    +0.000 C 
BRANCH  16  17
ATOM     17  C   UNL     1       6.975   4.990  15.360  0.00  0.00    +0.000 C 
ATOM     18  O   UNL     1       7.792   5.477  14.596  0.00  0.00    +0.000 OA
BRANCH  17  20
ATOM     19  C   UNL     1       5.992   3.793  13.604  0.00  0.00    +0.000 C 
ATOM     20  O   UNL     1       6.106   4.004  15.017  0.00  0.00    +0.000 OA
ENDBRANCH  17  20
ENDBRANCH  16  17
ENDBRANCH  15  16
ENDBRANCH  12  15
ENDBRANCH   1  12
BRANCH   1  21
ATOM     21  C   UNL     1       3.272   3.751  17.235  0.00  0.00    +0.000 C 
BRANCH  21  22
ATOM     22  C   UNL     1       1.990   3.188  17.854  0.00  0.00    +0.000 C 
BRANCH  22  23
ATOM     23  C   UNL     1       2.123   2.219  19.037  0.00  0.00    +0.000 C 
BRANCH  23  24
ATOM     24  C   UNL     1       1.232   2.754  20.177  0.00  0.00    +0.000 C 
BRANCH  24  25
ATOM     25  C   UNL     1       1.861   2.768  21.555  0.00  0.00    +0.000 C 
ATOM     26  F   UNL     1       3.033   2.107  21.602  0.00  0.00    +0.000 F 
ATOM     27  F   UNL     1       2.087   4.039  21.962  0.00  0.00    +0.000 F 
ATOM     28  F   UNL     1       1.029   2.203  22.460  0.00  0.00    +0.000 F 
ENDBRANCH  24  25
ENDBRANCH  23  24
ENDBRANCH  22  23
ENDBRANCH  21  22
ENDBRANCH   1  21
TORSDOF 11
ENDMDL
MODEL 2
REMARK VINA RESULT:      -7.3      4.565      6.618
REMARK  Name = 
REMARK  13 active torsions:
REMARK  status: ('A' for Active; 'I' for Inactive)
REMARK    1  A    between atoms: C_1  and  O_2
REMARK    2  A    between atoms: O_2  and  C_3
REMARK    3  A    between atoms: C_3  and  C_5
REMARK    4  A    between atoms: C_5  and  C_6
REMARK    5  A    between atoms: C_6  and  S_7
REMARK    6  A    between atoms: S_7  and  N_10
REMARK    7  A    between atoms: N_10  and  C_11
REMARK    8  A    between atoms: N_10  and  C_19
REMARK    9  A    between atoms: C_11  and  C_12
REMARK   10  A    between atoms: C_12  and  C_13
REMARK   11  A    between atoms: C_13  and  C_14
REMARK   12  A    between atoms: C_14  and  C_15
REMARK   13  A    between atoms: C_27  and  C_28
REMARK                            x       y       z     vdW  Elec       q    Type
REMARK                         _______ _______ _______ _____ _____    ______ ____
ROOT
ATOM      1  N   UNL     1       6.260   5.792  17.375  0.00  0.00    +0.000 N 
ENDROOT
BRANCH   1   2
ATOM      2  C   UNL     1       5.147   5.175  18.059  0.00  0.00    +0.000 A 
ATOM      3  S   UNL     1       5.242   3.612  18.721  0.00  0.00    +0.000 S 
ATOM      4  C   UNL     1       3.611   3.649  19.272  0.00  0.00    +0.000 A 
ATOM      5  C   UNL     1       2.901   2.617  19.923  0.00  0.00    +0.000 A 
ATOM      6  C   UNL     1       1.571   2.829  20.298  0.00  0.00    +0.000 A 
ATOM      7  C   UNL     1       0.958   4.045  20.044  0.00  0.00    +0.000 A 
ATOM      8  C   UNL     1       1.669   5.068  19.409  0.00  0.00    +0.000 A 
ATOM      9  C   UNL     1       3.018   4.886  18.999  0.00  0.00    +0.000 A 
ATOM     10  C   UNL     1       3.932   5.787  18.312  0.00  0.00    +0.000 A 
ATOM     11  C   UNL     1       3.567   7.186  17.925  0.00  0.00    +0.000 C 
ENDBRANCH   1   2
BRANCH   1  12
ATOM     12  S   UNL     1       6.146   5.837  15.673  0.00  0.00    +0.000 S 
ATOM     13  O   UNL     1       7.460   5.747  15.068  0.00  0.00    +0.000 OA
ATOM     14  O   UNL     1       5.252   6.914  15.289  0.00  0.00    +0.000 OA
BRANCH  12  15
ATOM     15  C   UNL     1       5.323   4.316  15.238  0.00  0.00    +0.000 C 
BRANCH  15  16
ATOM     16  C   UNL     1       6.248   3.423  14.406  0.00  0.00    +0.000 C 
BRANCH  16  17
ATOM     17  C   UNL     1       5.962   3.629  12.947  0.00  0.00    +0.000 C 
ATOM     18  O   UNL     1       6.819   3.807  12.097  0.00  0.00    +0.000 OA
BRANCH  17  20
ATOM     19  C   UNL     1       4.303   3.242  11.340  0.00  0.00    +0.000 C 
ATOM     20  O   UNL     1       4.628   3.601  12.689  0.00  0.00    +0.000 OA
ENDBRANCH  17  20
ENDBRANCH  16  17
ENDBRANCH  15  16
ENDBRANCH  12  15
ENDBRANCH   1  12
BRANCH   1  21
ATOM     21  C   UNL     1       7.298   6.512  18.189  0.00  0.00    +0.000 C 
BRANCH  21  22
ATOM     22  C   UNL     1       7.612   7.919  17.677  0.00  0.00    +0.000 C 
BRANCH  22  23
ATOM     23  C   UNL     1       8.585   8.785  18.492  0.00  0.00    +0.000 C 
BRANCH  23  24
ATOM     24  C   UNL     1       8.537  10.211  17.906  0.00  0.00    +0.000 C 
BRANCH  24  25
ATOM     25  C   UNL     1       9.667  11.133  18.318  0.00  0.00    +0.000 C 
ATOM     26  F   UNL     1       9.253  12.393  18.552  0.00  0.00    +0.000 F 
ATOM     27  F   UNL     1      10.263  10.678  19.444  0.00  0.00    +0.000 F 
ATOM     28  F   UNL     1      10.615  11.179  17.356  0.00  0.00    +0.000 F 
ENDBRANCH  24  25
ENDBRANCH  23  24
ENDBRANCH  22  23
ENDBRANCH  21  22
ENDBRANCH   1  21
TORSDOF 11
ENDMDL
MODEL 3
REMARK VINA RESULT:      -7.2      4.276      6.262
REMARK  Name = 
REMARK  13 active torsions:
REMARK  status: ('A' for Active; 'I' for Inactive)
REMARK    1  A    between atoms: C_1  and  O_2
REMARK    2  A    between atoms: O_2  and  C_3
REMARK    3  A    between atoms: C_3  and  C_5
REMARK    4  A    between atoms: C_5  and  C_6
REMARK    5  A    between atoms: C_6  and  S_7
REMARK    6  A    between atoms: S_7  and  N_10
REMARK    7  A    between atoms: N_10  and  C_11
REMARK    8  A    between atoms: N_10  and  C_19
REMARK    9  A    between atoms: C_11  and  C_12
REMARK   10  A    between atoms: C_12  and  C_13
REMARK   11  A    between atoms: C_13  and  C_14
REMARK   12  A    between atoms: C_14  and  C_15
REMARK   13  A    between atoms: C_27  and  C_28
REMARK                            x       y       z     vdW  Elec       q    Type
REMARK                         _______ _______ _______ _____ _____    ______ ____
ROOT
ATOM      1  N   UNL     1       5.683   5.770  17.452  0.00  0.00    +0.000 N 
ENDROOT
BRANCH   1   2
ATOM      2  C   UNL     1       4.509   5.245  18.110  0.00  0.00    +0.000 A 
ATOM      3  S   UNL     1       3.597   6.166  19.212  0.00  0.00    +0.000 S 
ATOM      4  C   UNL     1       2.495   4.878  19.513  0.00  0.00    +0.000 A 
ATOM      5  C   UNL     1       1.408   4.871  20.416  0.00  0.00    +0.000 A 
ATOM      6  C   UNL     1       0.617   3.725  20.529  0.00  0.00    +0.000 A 
ATOM      7  C   UNL     1       0.887   2.609  19.755  0.00  0.00    +0.000 A 
ATOM      8  C   UNL     1       1.957   2.624  18.854  0.00  0.00    +0.000 A 
ATOM      9  C   UNL     1       2.794   3.765  18.721  0.00  0.00    +0.000 A 
ATOM     10  C   UNL     1       3.960   3.996  17.880  0.00  0.00    +0.000 A 
ATOM     11  C   UNL     1       4.484   2.982  16.912  0.00  0.00    +0.000 C 
ENDBRANCH   1   2
BRANCH   1  12
ATOM     12  S   UNL     1       7.178   5.301  18.129  0.00  0.00    +0.000 S 
ATOM     13  O   UNL     1       8.031   4.704  17.122  0.00  0.00    +0.000 OA
ATOM     14  O   UNL     1       6.932   4.595  19.372  0.00  0.00    +0.000 OA
BRANCH  12  15
ATOM     15  C   UNL     1       7.972   6.836  18.567  0.00  0.00    +0.000 C 
BRANCH  15  16
ATOM     16  C   UNL     1       7.739   7.892  17.482  0.00  0.00    +0.000 C 
BRANCH  16  17
ATOM     17  C   UNL     1       8.193   9.232  17.983  0.00  0.00    +0.000 C 
ATOM     18  O   UNL     1       7.847  10.300  17.503  0.00  0.00    +0.000 OA
BRANCH  17  20
ATOM     19  C   UNL     1       9.455  10.365  19.599  0.00  0.00    +0.000 C 
ATOM     20  O   UNL     1       9.044   9.112  19.035  0.00  0.00    +0.000 OA
ENDBRANCH  17  20
ENDBRANCH  16  17
ENDBRANCH  15  16
ENDBRANCH  12  15
ENDBRANCH   1  12
BRANCH   1  21
ATOM     21  C   UNL     1       5.516   6.488  16.144  0.00  0.00    +0.000 C 
BRANCH  21  22
ATOM     22  C   UNL     1       5.322   5.552  14.950  0.00  0.00    +0.000 C 
BRANCH  22  23
ATOM     23  C   UNL     1       6.573   5.009  14.244  0.00  0.00    +0.000 C 
BRANCH  23  24
ATOM     24  C   UNL     1       6.255   3.574  13.775  0.00  0.00    +0.000 C 
BRANCH  24  25
ATOM     25  C   UNL     1       6.023   3.401  12.288  0.00  0.00    +0.000 C 
ATOM     26  F   UNL     1       6.104   2.116  11.893  0.00  0.00    +0.000 F 
ATOM     27  F   UNL     1       4.799   3.863  11.942  0.00  0.00    +0.000 F 
ATOM     28  F   UNL     1       6.931   4.111  11.582  0.00  0.00    +0.000 F 
ENDBRANCH  24  25
ENDBRANCH  23  24
ENDBRANCH  22  23
ENDBRANCH  21  22
ENDBRANCH   1  21
TORSDOF 11
ENDMDL
MODEL 4
REMARK VINA RESULT:      -7.1      4.520      6.646
REMARK  Name = 
REMARK  13 active torsions:
REMARK  status: ('A' for Active; 'I' for Inactive)
REMARK    1  A    between atoms: C_1  and  O_2
REMARK    2  A    between atoms: O_2  and  C_3
REMARK    3  A    between atoms: C_3  and  C_5
REMARK    4  A    between atoms: C_5  and  C_6
REMARK    5  A    between atoms: C_6  and  S_7
REMARK    6  A    between atoms: S_7  and  N_10
REMARK    7  A    between atoms: N_10  and  C_11
REMARK    8  A    between atoms: N_10  and  C_19
REMARK    9  A    between atoms: C_11  and  C_12
REMARK   10  A    between atoms: C_12  and  C_13
REMARK   11  A    between atoms: C_13  and  C_14
REMARK   12  A    between atoms: C_14  and  C_15
REMARK   13  A    between atoms: C_27  and  C_28
REMARK                            x       y       z     vdW  Elec       q    Type
REMARK                         _______ _______ _______ _____ _____    ______ ____
ROOT
ATOM      1  N   UNL     1       6.244   5.318  16.556  0.00  0.00    +0.000 N 
ENDROOT
BRANCH   1   2
ATOM      2  C   UNL     1       5.085   4.648  17.100  0.00  0.00    +0.000 A 
ATOM      3  S   UNL     1       5.027   2.961  17.309  0.00  0.00    +0.000 S 
ATOM      4  C   UNL     1       3.420   3.003  17.925  0.00  0.00    +0.000 A 
ATOM      5  C   UNL     1       2.617   1.905  18.306  0.00  0.00    +0.000 A 
ATOM      6  C   UNL     1       1.325   2.133  18.786  0.00  0.00    +0.000 A 
ATOM      7  C   UNL     1       0.838   3.425  18.899  0.00  0.00    +0.000 A 
ATOM      8  C   UNL     1       1.641   4.510  18.532  0.00  0.00    +0.000 A 
ATOM      9  C   UNL     1       2.956   4.318  18.025  0.00  0.00    +0.000 A 
ATOM     10  C   UNL     1       3.946   5.280  17.565  0.00  0.00    +0.000 A 
ATOM     11  C   UNL     1       3.723   6.760  17.588  0.00  0.00    +0.000 C 
ENDBRANCH   1   2
BRANCH   1  12
ATOM     12  S   UNL     1       6.236   5.550  14.866  0.00  0.00    +0.000 S 
ATOM     13  O   UNL     1       7.589   5.597  14.349  0.00  0.00    +0.000 OA
ATOM     14  O   UNL     1       5.307   6.615  14.541  0.00  0.00    +0.000 OA
BRANCH  12  15
ATOM     15  C   UNL     1       5.535   4.047  14.210  0.00  0.00    +0.000 C 
BRANCH  15  16
ATOM     16  C   UNL     1       6.340   3.560  13.002  0.00  0.00    +0.000 C 
BRANCH  16  17
ATOM     17  C   UNL     1       5.417   2.902  12.019  0.00  0.00    +0.000 C 
ATOM     18  O   UNL     1       5.632   1.824  11.487  0.00  0.00    +0.000 OA
BRANCH  17  20
ATOM     19  C   UNL     1       3.495   3.180  10.708  0.00  0.00    +0.000 C 
ATOM     20  O   UNL     1       4.312   3.657  11.785  0.00  0.00    +0.000 OA
ENDBRANCH  17  20
ENDBRANCH  16  17
ENDBRANCH  15  16
ENDBRANCH  12  15
ENDBRANCH   1  12
BRANCH   1  21
ATOM     21  C   UNL     1       7.235   5.929  17.506  0.00  0.00    +0.000 C 
BRANCH  21  22
ATOM     22  C   UNL     1       7.221   7.459  17.508  0.00  0.00    +0.000 C 
BRANCH  22  23
ATOM     23  C   UNL     1       8.354   8.192  18.241  0.00  0.00    +0.000 C 
BRANCH  23  24
ATOM     24  C   UNL     1       8.233   9.691  17.898  0.00  0.00    +0.000 C 
BRANCH  24  25
ATOM     25  C   UNL     1       9.265  10.600  18.534  0.00  0.00    +0.000 C 
ATOM     26  F   UNL     1      10.320  10.834  17.732  0.00  0.00    +0.000 F 
ATOM     27  F   UNL     1       8.715  11.795  18.852  0.00  0.00    +0.000 F 
ATOM     28  F   UNL     1       9.729  10.057  19.683  0.00  0.00    +0.000 F 
ENDBRANCH  24  25
ENDBRANCH  23  24
ENDBRANCH  22  23
ENDBRANCH  21  22
ENDBRANCH   1  21
TORSDOF 11
ENDMDL
MODEL 5
REMARK VINA RESULT:      -7.0      1.521      1.754
REMARK  Name = 
REMARK  13 active torsions:
REMARK  status: ('A' for Active; 'I' for Inactive)
REMARK    1  A    between atoms: C_1  and  O_2
REMARK    2  A    between atoms: O_2  and  C_3
REMARK    3  A    between atoms: C_3  and  C_5
REMARK    4  A    between atoms: C_5  and  C_6
REMARK    5  A    between atoms: C_6  and  S_7
REMARK    6  A    between atoms: S_7  and  N_10
REMARK    7  A    between atoms: N_10  and  C_11
REMARK    8  A    between atoms: N_10  and  C_19
REMARK    9  A    between atoms: C_11  and  C_12
REMARK   10  A    between atoms: C_12  and  C_13
REMARK   11  A    between atoms: C_13  and  C_14
REMARK   12  A    between atoms: C_14  and  C_15
REMARK   13  A    between atoms: C_27  and  C_28
REMARK                            x       y       z     vdW  Elec       q    Type
REMARK                         _______ _______ _______ _____ _____    ______ ____
ROOT
ATOM      1  N   UNL     1       5.281   4.777  18.038  0.00  0.00    +0.000 N 
ENDROOT
BRANCH   1   2
ATOM      2  C   UNL     1       4.307   5.789  18.376  0.00  0.00    +0.000 A 
ATOM      3  S   UNL     1       3.570   5.865  19.907  0.00  0.00    +0.000 S 
ATOM      4  C   UNL     1       2.611   7.229  19.476  0.00  0.00    +0.000 A 
ATOM      5  C   UNL     1       1.645   7.884  20.270  0.00  0.00    +0.000 A 
ATOM      6  C   UNL     1       0.957   8.983  19.748  0.00  0.00    +0.000 A 
ATOM      7  C   UNL     1       1.229   9.435  18.467  0.00  0.00    +0.000 A 
ATOM      8  C   UNL     1       2.195   8.790  17.689  0.00  0.00    +0.000 A 
ATOM      9  C   UNL     1       2.905   7.659  18.178  0.00  0.00    +0.000 A 
ATOM     10  C   UNL     1       3.921   6.828  17.548  0.00  0.00    +0.000 A 
ATOM     11  C   UNL     1       4.444   7.080  16.169  0.00  0.00    +0.000 C 
ENDBRANCH   1   2
BRANCH   1  12
ATOM     12  S   UNL     1       6.902   5.306  17.975  0.00  0.00    +0.000 S 
ATOM     13  O   UNL     1       7.800   4.262  18.427  0.00  0.00    +0.000 OA
ATOM     14  O   UNL     1       6.989   6.630  18.562  0.00  0.00    +0.000 OA
BRANCH  12  15
ATOM     15  C   UNL     1       7.244   5.498  16.236  0.00  0.00    +0.000 C 
BRANCH  15  16
ATOM     16  C   UNL     1       6.736   4.285  15.449  0.00  0.00    +0.000 C 
BRANCH  16  17
ATOM     17  C   UNL     1       6.800   4.580  13.979  0.00  0.00    +0.000 C 
ATOM     18  O   UNL     1       7.558   5.391  13.473  0.00  0.00    +0.000 OA
BRANCH  17  20
ATOM     19  C   UNL     1       6.424   3.289  12.062  0.00  0.00    +0.000 C 
ATOM     20  O   UNL     1       5.903   3.837  13.280  0.00  0.00    +0.000 OA
ENDBRANCH  17  20
ENDBRANCH  16  17
ENDBRANCH  15  16
ENDBRANCH  12  15
ENDBRANCH   1  12
BRANCH   1  21
ATOM     21  C   UNL     1       4.839   3.343  17.978  0.00  0.00    +0.000 C 
BRANCH  21  22
ATOM     22  C   UNL     1       3.527   3.135  17.219  0.00  0.00    +0.000 C 
BRANCH  22  23
ATOM     23  C   UNL     1       2.558   2.058  17.729  0.00  0.00    +0.000 C 
BRANCH  23  24
ATOM     24  C   UNL     1       2.301   2.336  19.224  0.00  0.00    +0.000 C 
BRANCH  24  25
ATOM     25  C   UNL     1       1.027   3.089  19.546  0.00  0.00    +0.000 C 
ATOM     26  F   UNL     1       0.875   3.319  20.864  0.00  0.00    +0.000 F 
ATOM     27  F   UNL     1       1.010   4.285  18.914  0.00  0.00    +0.000 F 
ATOM     28  F   UNL     1      -0.053   2.397  19.119  0.00  0.00    +0.000 F 
ENDBRANCH  24  25
ENDBRANCH  23  24
ENDBRANCH  22  23
ENDBRANCH  21  22
ENDBRANCH   1  21
TORSDOF 11
ENDMDL
MODEL 6
REMARK VINA RESULT:      -7.0      4.286      6.317
REMARK  Name = 
REMARK  13 active torsions:
REMARK  status: ('A' for Active; 'I' for Inactive)
REMARK    1  A    between atoms: C_1  and  O_2
REMARK    2  A    between atoms: O_2  and  C_3
REMARK    3  A    between atoms: C_3  and  C_5
REMARK    4  A    between atoms: C_5  and  C_6
REMARK    5  A    between atoms: C_6  and  S_7
REMARK    6  A    between atoms: S_7  and  N_10
REMARK    7  A    between atoms: N_10  and  C_11
REMARK    8  A    between atoms: N_10  and  C_19
REMARK    9  A    between atoms: C_11  and  C_12
REMARK   10  A    between atoms: C_12  and  C_13
REMARK   11  A    between atoms: C_13  and  C_14
REMARK   12  A    between atoms: C_14  and  C_15
REMARK   13  A    between atoms: C_27  and  C_28
REMARK                            x       y       z     vdW  Elec       q    Type
REMARK                         _______ _______ _______ _____ _____    ______ ____
ROOT
ATOM      1  N   UNL     1       5.559   5.942  17.329  0.00  0.00    +0.000 N 
ENDROOT
BRANCH   1   2
ATOM      2  C   UNL     1       4.621   5.233  18.169  0.00  0.00    +0.000 A 
ATOM      3  S   UNL     1       4.876   3.623  18.655  0.00  0.00    +0.000 S 
ATOM      4  C   UNL     1       3.393   3.560  19.529  0.00  0.00    +0.000 A 
ATOM      5  C   UNL     1       2.849   2.453  20.217  0.00  0.00    +0.000 A 
ATOM      6  C   UNL     1       1.622   2.588  20.873  0.00  0.00    +0.000 A 
ATOM      7  C   UNL     1       0.951   3.799  20.860  0.00  0.00    +0.000 A 
ATOM      8  C   UNL     1       1.499   4.895  20.187  0.00  0.00    +0.000 A 
ATOM      9  C   UNL     1       2.737   4.794  19.494  0.00  0.00    +0.000 A 
ATOM     10  C   UNL     1       3.476   5.780  18.719  0.00  0.00    +0.000 A 
ATOM     11  C   UNL     1       3.016   7.193  18.541  0.00  0.00    +0.000 C 
ENDBRANCH   1   2
BRANCH   1  12
ATOM     12  S   UNL     1       7.185   5.902  17.844  0.00  0.00    +0.000 S 
ATOM     13  O   UNL     1       7.909   4.840  17.174  0.00  0.00    +0.000 OA
ATOM     14  O   UNL     1       7.224   5.992  19.292  0.00  0.00    +0.000 OA
BRANCH  12  15
ATOM     15  C   UNL     1       7.891   7.416  17.222  0.00  0.00    +0.000 C 
BRANCH  15  16
ATOM     16  C   UNL     1       7.202   8.631  17.852  0.00  0.00    +0.000 C 
BRANCH  16  17
ATOM     17  C   UNL     1       8.215   9.711  18.092  0.00  0.00    +0.000 C 
ATOM     18  O   UNL     1       8.298  10.735  17.433  0.00  0.00    +0.000 OA
BRANCH  17  20
ATOM     19  C   UNL     1       9.559  10.552  19.816  0.00  0.00    +0.000 C 
ATOM     20  O   UNL     1       9.035   9.407  19.131  0.00  0.00    +0.000 OA
ENDBRANCH  17  20
ENDBRANCH  16  17
ENDBRANCH  15  16
ENDBRANCH  12  15
ENDBRANCH   1  12
BRANCH   1  21
ATOM     21  C   UNL     1       5.088   6.464  16.002  0.00  0.00    +0.000 C 
BRANCH  21  22
ATOM     22  C   UNL     1       5.657   5.701  14.805  0.00  0.00    +0.000 C 
BRANCH  22  23
ATOM     23  C   UNL     1       5.323   4.208  14.673  0.00  0.00    +0.000 C 
BRANCH  23  24
ATOM     24  C   UNL     1       6.404   3.569  13.777  0.00  0.00    +0.000 C 
BRANCH  24  25
ATOM     25  C   UNL     1       6.073   3.485  12.301  0.00  0.00    +0.000 C 
ATOM     26  F   UNL     1       4.803   3.840  12.029  0.00  0.00    +0.000 F 
ATOM     27  F   UNL     1       6.889   4.292  11.584  0.00  0.00    +0.000 F 
ATOM     28  F   UNL     1       6.259   2.225  11.845  0.00  0.00    +0.000 F 
ENDBRANCH  24  25
ENDBRANCH  23  24
ENDBRANCH  22  23
ENDBRANCH  21  22
ENDBRANCH   1  21
TORSDOF 11
ENDMDL
MODEL 7
REMARK VINA RESULT:      -6.9      4.378      6.368
REMARK  Name = 
REMARK  13 active torsions:
REMARK  status: ('A' for Active; 'I' for Inactive)
REMARK    1  A    between atoms: C_1  and  O_2
REMARK    2  A    between atoms: O_2  and  C_3
REMARK    3  A    between atoms: C_3  and  C_5
REMARK    4  A    between atoms: C_5  and  C_6
REMARK    5  A    between atoms: C_6  and  S_7
REMARK    6  A    between atoms: S_7  and  N_10
REMARK    7  A    between atoms: N_10  and  C_11
REMARK    8  A    between atoms: N_10  and  C_19
REMARK    9  A    between atoms: C_11  and  C_12
REMARK   10  A    between atoms: C_12  and  C_13
REMARK   11  A    between atoms: C_13  and  C_14
REMARK   12  A    between atoms: C_14  and  C_15
REMARK   13  A    between atoms: C_27  and  C_28
REMARK                            x       y       z     vdW  Elec       q    Type
REMARK                         _______ _______ _______ _____ _____    ______ ____
ROOT
ATOM      1  N   UNL     1       5.652   5.653  17.236  0.00  0.00    +0.000 N 
ENDROOT
BRANCH   1   2
ATOM      2  C   UNL     1       4.631   5.044  18.057  0.00  0.00    +0.000 A 
ATOM      3  S   UNL     1       4.750   3.442  18.615  0.00  0.00    +0.000 S 
ATOM      4  C   UNL     1       3.230   3.516  19.421  0.00  0.00    +0.000 A 
ATOM      5  C   UNL     1       2.579   2.478  20.124  0.00  0.00    +0.000 A 
ATOM      6  C   UNL     1       1.338   2.723  20.717  0.00  0.00    +0.000 A 
ATOM      7  C   UNL     1       0.754   3.976  20.626  0.00  0.00    +0.000 A 
ATOM      8  C   UNL     1       1.407   5.004  19.938  0.00  0.00    +0.000 A 
ATOM      9  C   UNL     1       2.664   4.790  19.309  0.00  0.00    +0.000 A 
ATOM     10  C   UNL     1       3.503   5.690  18.532  0.00  0.00    +0.000 A 
ATOM     11  C   UNL     1       3.152   7.123  18.280  0.00  0.00    +0.000 C 
ENDBRANCH   1   2
BRANCH   1  12
ATOM     12  S   UNL     1       7.211   5.717  17.927  0.00  0.00    +0.000 S 
ATOM     13  O   UNL     1       8.014   4.594  17.486  0.00  0.00    +0.000 OA
ATOM     14  O   UNL     1       7.087   5.997  19.345  0.00  0.00    +0.000 OA
BRANCH  12  15
ATOM     15  C   UNL     1       7.969   7.154  17.191  0.00  0.00    +0.000 C 
BRANCH  15  16
ATOM     16  C   UNL     1       7.282   8.434  17.676  0.00  0.00    +0.000 C 
BRANCH  16  17
ATOM     17  C   UNL     1       8.314   9.383  18.211  0.00  0.00    +0.000 C 
ATOM     18  O   UNL     1       9.125   9.100  19.079  0.00  0.00    +0.000 OA
BRANCH  17  20
ATOM     19  C   UNL     1       9.156  11.567  18.132  0.00  0.00    +0.000 C 
ATOM     20  O   UNL     1       8.231  10.601  17.616  0.00  0.00    +0.000 OA
ENDBRANCH  17  20
ENDBRANCH  16  17
ENDBRANCH  15  16
ENDBRANCH  12  15
ENDBRANCH   1  12
BRANCH   1  21
ATOM     21  C   UNL     1       5.328   5.979  15.806  0.00  0.00    +0.000 C 
BRANCH  21  22
ATOM     22  C   UNL     1       5.002   4.751  14.954  0.00  0.00    +0.000 C 
BRANCH  22  23
ATOM     23  C   UNL     1       6.137   3.766  14.639  0.00  0.00    +0.000 C 
BRANCH  23  24
ATOM     24  C   UNL     1       6.991   4.387  13.515  0.00  0.00    +0.000 C 
BRANCH  24  25
ATOM     25  C   UNL     1       6.707   3.884  12.115  0.00  0.00    +0.000 C 
ATOM     26  F   UNL     1       7.239   4.670  11.160  0.00  0.00    +0.000 F 
ATOM     27  F   UNL     1       7.206   2.637  11.948  0.00  0.00    +0.000 F 
ATOM     28  F   UNL     1       5.374   3.812  11.899  0.00  0.00    +0.000 F 
ENDBRANCH  24  25
ENDBRANCH  23  24
ENDBRANCH  22  23
ENDBRANCH  21  22
ENDBRANCH   1  21
TORSDOF 11
ENDMDL
MODEL 8
REMARK VINA RESULT:      -6.9      3.566      5.627
REMARK  Name = 
REMARK  13 active torsions:
REMARK  status: ('A' for Active; 'I' for Inactive)
REMARK    1  A    between atoms: C_1  and  O_2
REMARK    2  A    between atoms: O_2  and  C_3
REMARK    3  A    between atoms: C_3  and  C_5
REMARK    4  A    between atoms: C_5  and  C_6
REMARK    5  A    between atoms: C_6  and  S_7
REMARK    6  A    between atoms: S_7  and  N_10
REMARK    7  A    between atoms: N_10  and  C_11
REMARK    8  A    between atoms: N_10  and  C_19
REMARK    9  A    between atoms: C_11  and  C_12
REMARK   10  A    between atoms: C_12  and  C_13
REMARK   11  A    between atoms: C_13  and  C_14
REMARK   12  A    between atoms: C_14  and  C_15
REMARK   13  A    between atoms: C_27  and  C_28
REMARK                            x       y       z     vdW  Elec       q    Type
REMARK                         _______ _______ _______ _____ _____    ______ ____
ROOT
ATOM      1  N   UNL     1       3.959   5.017  18.445  0.00  0.00    +0.000 N 
ENDROOT
BRANCH   1   2
ATOM      2  C   UNL     1       3.273   6.283  18.560  0.00  0.00    +0.000 A 
ATOM      3  S   UNL     1       3.404   7.497  17.376  0.00  0.00    +0.000 S 
ATOM      4  C   UNL     1       2.384   8.579  18.245  0.00  0.00    +0.000 A 
ATOM      5  C   UNL     1       2.034   9.900  17.891  0.00  0.00    +0.000 A 
ATOM      6  C   UNL     1       1.189  10.634  18.728  0.00  0.00    +0.000 A 
ATOM      7  C   UNL     1       0.688  10.068  19.888  0.00  0.00    +0.000 A 
ATOM      8  C   UNL     1       1.029   8.755  20.229  0.00  0.00    +0.000 A 
ATOM      9  C   UNL     1       1.898   7.981  19.412  0.00  0.00    +0.000 A 
ATOM     10  C   UNL     1       2.400   6.625  19.578  0.00  0.00    +0.000 A 
ATOM     11  C   UNL     1       2.018   5.744  20.726  0.00  0.00    +0.000 C 
ENDBRANCH   1   2
BRANCH   1  12
ATOM     12  S   UNL     1       3.220   3.869  17.421  0.00  0.00    +0.000 S 
ATOM     13  O   UNL     1       3.944   3.756  16.171  0.00  0.00    +0.000 OA
ATOM     14  O   UNL     1       1.789   4.108  17.401  0.00  0.00    +0.000 OA
BRANCH  12  15
ATOM     15  C   UNL     1       3.463   2.308  18.248  0.00  0.00    +0.000 C 
BRANCH  15  16
ATOM     16  C   UNL     1       2.650   2.253  19.545  0.00  0.00    +0.000 C 
BRANCH  16  17
ATOM     17  C   UNL     1       3.584   2.195  20.718  0.00  0.00    +0.000 C 
ATOM     18  O   UNL     1       4.779   1.966  20.635  0.00  0.00    +0.000 OA
BRANCH  17  20
ATOM     19  C   UNL     1       1.508   2.522  21.754  0.00  0.00    +0.000 C 
ATOM     20  O   UNL     1       2.932   2.422  21.889  0.00  0.00    +0.000 OA
ENDBRANCH  17  20
ENDBRANCH  16  17
ENDBRANCH  15  16
ENDBRANCH  12  15
ENDBRANCH   1  12
BRANCH   1  21
ATOM     21  C   UNL     1       5.330   4.882  19.043  0.00  0.00    +0.000 C 
BRANCH  21  22
ATOM     22  C   UNL     1       6.403   4.470  18.033  0.00  0.00    +0.000 C 
BRANCH  22  23
ATOM     23  C   UNL     1       7.293   5.569  17.433  0.00  0.00    +0.000 C 
BRANCH  23  24
ATOM     24  C   UNL     1       7.221   6.789  18.374  0.00  0.00    +0.000 C 
BRANCH  24  25
ATOM     25  C   UNL     1       7.905   8.046  17.879  0.00  0.00    +0.000 C 
ATOM     26  F   UNL     1       8.885   8.467  18.703  0.00  0.00    +0.000 F 
ATOM     27  F   UNL     1       8.452   7.841  16.659  0.00  0.00    +0.000 F 
ATOM     28  F   UNL     1       7.011   9.053  17.751  0.00  0.00    +0.000 F 
ENDBRANCH  24  25
ENDBRANCH  23  24
ENDBRANCH  22  23
ENDBRANCH  21  22
ENDBRANCH   1  21
TORSDOF 11
ENDMDL
MODEL 9
REMARK VINA RESULT:      -6.8      4.272      6.246
REMARK  Name = 
REMARK  13 active torsions:
REMARK  status: ('A' for Active; 'I' for Inactive)
REMARK    1  A    between atoms: C_1  and  O_2
REMARK    2  A    between atoms: O_2  and  C_3
REMARK    3  A    between atoms: C_3  and  C_5
REMARK    4  A    between atoms: C_5  and  C_6
REMARK    5  A    between atoms: C_6  and  S_7
REMARK    6  A    between atoms: S_7  and  N_10
REMARK    7  A    between atoms: N_10  and  C_11
REMARK    8  A    between atoms: N_10  and  C_19
REMARK    9  A    between atoms: C_11  and  C_12
REMARK   10  A    between atoms: C_12  and  C_13
REMARK   11  A    between atoms: C_13  and  C_14
REMARK   12  A    between atoms: C_14  and  C_15
REMARK   13  A    between atoms: C_27  and  C_28
REMARK                            x       y       z     vdW  Elec       q    Type
REMARK                         _______ _______ _______ _____ _____    ______ ____
ROOT
ATOM      1  N   UNL     1       5.844   5.550  17.384  0.00  0.00    +0.000 N 
ENDROOT
BRANCH   1   2
ATOM      2  C   UNL     1       4.832   5.002  18.257  0.00  0.00    +0.000 A 
ATOM      3  S   UNL     1       5.142   3.688  19.292  0.00  0.00    +0.000 S 
ATOM      4  C   UNL     1       3.530   3.668  19.896  0.00  0.00    +0.000 A 
ATOM      5  C   UNL     1       2.972   2.762  20.824  0.00  0.00    +0.000 A 
ATOM      6  C   UNL     1       1.632   2.900  21.198  0.00  0.00    +0.000 A 
ATOM      7  C   UNL     1       0.861   3.923  20.673  0.00  0.00    +0.000 A 
ATOM      8  C   UNL     1       1.421   4.825  19.762  0.00  0.00    +0.000 A 
ATOM      9  C   UNL     1       2.775   4.709  19.345  0.00  0.00    +0.000 A 
ATOM     10  C   UNL     1       3.552   5.505  18.406  0.00  0.00    +0.000 A 
ATOM     11  C   UNL     1       3.000   6.698  17.692  0.00  0.00    +0.000 C 
ENDBRANCH   1   2
BRANCH   1  12
ATOM     12  S   UNL     1       6.490   4.468  16.234  0.00  0.00    +0.000 S 
ATOM     13  O   UNL     1       5.688   3.263  16.156  0.00  0.00    +0.000 OA
ATOM     14  O   UNL     1       7.922   4.364  16.438  0.00  0.00    +0.000 OA
BRANCH  12  15
ATOM     15  C   UNL     1       6.258   5.287  14.667  0.00  0.00    +0.000 C 
BRANCH  15  16
ATOM     16  C   UNL     1       7.415   4.966  13.715  0.00  0.00    +0.000 C 
BRANCH  16  17
ATOM     17  C   UNL     1       6.899   4.171  12.552  0.00  0.00    +0.000 C 
ATOM     18  O   UNL     1       7.372   4.212  11.427  0.00  0.00    +0.000 OA
BRANCH  17  20
ATOM     19  C   UNL     1       4.857   3.253  11.863  0.00  0.00    +0.000 C 
ATOM     20  O   UNL     1       5.834   3.404  12.902  0.00  0.00    +0.000 OA
ENDBRANCH  17  20
ENDBRANCH  16  17
ENDBRANCH  15  16
ENDBRANCH  12  15
ENDBRANCH   1  12
BRANCH   1  21
ATOM     21  C   UNL     1       6.091   7.032  17.408  0.00  0.00    +0.000 C 
BRANCH  21  22
ATOM     22  C   UNL     1       7.534   7.408  17.750  0.00  0.00    +0.000 C 
BRANCH  22  23
ATOM     23  C   UNL     1       7.935   8.889  17.669  0.00  0.00    +0.000 C 
BRANCH  23  24
ATOM     24  C   UNL     1       8.917   9.167  18.825  0.00  0.00    +0.000 C 
BRANCH  24  25
ATOM     25  C   UNL     1       9.300  10.618  19.032  0.00  0.00    +0.000 C 
ATOM     26  F   UNL     1       8.768  11.436  18.104  0.00  0.00    +0.000 F 
ATOM     27  F   UNL     1       8.888  11.049  20.247  0.00  0.00    +0.000 F 
ATOM     28  F   UNL     1      10.643  10.763  18.993  0.00  0.00    +0.000 F 
ENDBRANCH  24  25
ENDBRANCH  23  24
ENDBRANCH  22  23
ENDBRANCH  21  22
ENDBRANCH   1  21
TORSDOF 11
ENDMDL
