MODEL 1
REMARK VINA RESULT:      -8.1      0.000      0.000
REMARK  Name = 
REMARK  15 active torsions:
REMARK  status: ('A' for Active; 'I' for Inactive)
REMARK    1  A    between atoms: C_1  and  C_2
REMARK    2  A    between atoms: C_5  and  S_6
REMARK    3  A    between atoms: S_6  and  N_9
REMARK    4  A    between atoms: N_9  and  C_10
REMARK    5  A    between atoms: C_10  and  C_11
REMARK    6  A    between atoms: C_10  and  C_15
REMARK    7  A    between atoms: C_11  and  C_12
REMARK    8  A    between atoms: C_12  and  C_13
REMARK    9  A    between atoms: C_12  and  C_14
REMARK   10  A    between atoms: N_17  and  C_18
REMARK   11  A    between atoms: C_18  and  C_19
REMARK   12  A    between atoms: C_19  and  C_20
REMARK   13  A    between atoms: C_20  and  N_21
REMARK   14  A    between atoms: C_23  and  C_24
REMARK   15  A    between atoms: C_26  and  C_27
REMARK                            x       y       z     vdW  Elec       q    Type
REMARK                         _______ _______ _______ _____ _____    ______ ____
ROOT
ATOM      1  C   UNL     1       2.312   5.276  19.488  0.00  0.00    +0.000 C 
ENDROOT
BRANCH   1   2
ATOM      2  C   UNL     1       2.294   6.826  19.451  0.00  0.00    +0.000 C 
ATOM      3  O   UNL     1       2.249   7.514  20.476  0.00  0.00    +0.000 OA
ATOM      4  N   UNL     1       2.277   7.389  18.193  0.00  0.00    +0.000 N 
ATOM      5  H   UNL     1       2.183   6.810  17.365  0.00  0.00    +0.000 HD
BRANCH   4   6
ATOM      6  C   UNL     1       2.294   8.823  17.987  0.00  0.00    +0.000 C 
BRANCH   6   7
ATOM      7  C   UNL     1       0.903   9.451  18.057  0.00  0.00    +0.000 C 
BRANCH   7   8
ATOM      8  C   UNL     1       0.895  10.868  18.630  0.00  0.00    +0.000 C 
BRANCH   8   9
ATOM      9  N   UNL     1       0.242  10.977  19.923  0.00  0.00    +0.000 N 
ATOM     10  N   UNL     1       0.529  10.071  20.886  0.00  0.00    +0.000 NA
ATOM     11  C   UNL     1      -0.255  10.422  21.912  0.00  0.00    +0.000 A 
ATOM     12  C   UNL     1      -0.244   9.659  23.184  0.00  0.00    +0.000 C 
ATOM     13  C   UNL     1      -1.036  11.557  21.606  0.00  0.00    +0.000 A 
ATOM     14  C   UNL     1      -0.697  11.899  20.316  0.00  0.00    +0.000 A 
ATOM     15  C   UNL     1      -1.191  13.003  19.459  0.00  0.00    +0.000 C 
ENDBRANCH   8   9
ENDBRANCH   7   8
ENDBRANCH   6   7
ENDBRANCH   4   6
ENDBRANCH   1   2
BRANCH   1  16
ATOM     16  N   UNL     1       3.635   4.783  19.959  0.00  0.00    +0.000 NA
ATOM     17  H   UNL     1       4.216   5.531  20.355  0.00  0.00    +0.000 HD
BRANCH  16  18
ATOM     18  S   UNL     1       4.645   3.958  18.862  0.00  0.00    +0.000 S 
ATOM     19  O   UNL     1       3.809   3.676  17.708  0.00  0.00    +0.000 OA
ATOM     20  O   UNL     1       5.378   2.931  19.549  0.00  0.00    +0.000 OA
BRANCH  18  25
ATOM     21  C   UNL     1       8.265   8.660  17.754  0.00  0.00    +0.000 C 
ATOM     22  C   UNL     1       7.463   7.396  17.863  0.00  0.00    +0.000 A 
ATOM     23  C   UNL     1       6.283   7.220  17.130  0.00  0.00    +0.000 A 
ATOM     24  C   UNL     1       5.476   6.108  17.358  0.00  0.00    +0.000 A 
ATOM     25  C   UNL     1       5.841   5.161  18.326  0.00  0.00    +0.000 A 
ATOM     26  C   UNL     1       7.044   5.292  19.018  0.00  0.00    +0.000 A 
ATOM     27  C   UNL     1       7.859   6.397  18.778  0.00  0.00    +0.000 A 
ENDBRANCH  18  25
ENDBRANCH  16  18
ENDBRANCH   1  16
BRANCH   1  28
ATOM     28  C   UNL     1       1.204   4.845  20.491  0.00  0.00    +0.000 C 
BRANCH  28  29
ATOM     29  C   UNL     1       0.858   3.346  20.575  0.00  0.00    +0.000 C 
ATOM     30  C   UNL     1       0.912   2.711  19.173  0.00  0.00    +0.000 C 
ATOM     31  C   UNL     1       1.780   2.558  21.505  0.00  0.00    +0.000 C 
ENDBRANCH  28  29
ENDBRANCH   1  28
TORSDOF 10
ENDMDL
MODEL 2
REMARK VINA RESULT:      -7.9      1.720      2.343
REMARK  Name = 
REMARK  15 active torsions:
REMARK  status: ('A' for Active; 'I' for Inactive)
REMARK    1  A    between atoms: C_1  and  C_2
REMARK    2  A    between atoms: C_5  and  S_6
REMARK    3  A    between atoms: S_6  and  N_9
REMARK    4  A    between atoms: N_9  and  C_10
REMARK    5  A    between atoms: C_10  and  C_11
REMARK    6  A    between atoms: C_10  and  C_15
REMARK    7  A    between atoms: C_11  and  C_12
REMARK    8  A    between atoms: C_12  and  C_13
REMARK    9  A    between atoms: C_12  and  C_14
REMARK   10  A    between atoms: N_17  and  C_18
REMARK   11  A    between atoms: C_18  and  C_19
REMARK   12  A    between atoms: C_19  and  C_20
REMARK   13  A    between atoms: C_20  and  N_21
REMARK   14  A    between atoms: C_23  and  C_24
REMARK   15  A    between atoms: C_26  and  C_27
REMARK                            x       y       z     vdW  Elec       q    Type
REMARK                         _______ _______ _______ _____ _____    ______ ____
ROOT
ATOM      1  C   UNL     1       3.165   6.035  18.500  0.00  0.00    +0.000 C 
ENDROOT
BRANCH   1   2
ATOM      2  C   UNL     1       2.491   7.376  18.886  0.00  0.00    +0.000 C 
ATOM      3  O   UNL     1       2.118   7.624  20.036  0.00  0.00    +0.000 OA
ATOM      4  N   UNL     1       2.283   8.257  17.846  0.00  0.00    +0.000 N 
ATOM      5  H   UNL     1       2.477   7.985  16.887  0.00  0.00    +0.000 HD
BRANCH   4   6
ATOM      6  C   UNL     1       1.696   9.566  18.046  0.00  0.00    +0.000 C 
BRANCH   6   7
ATOM      7  C   UNL     1       0.176   9.565  17.898  0.00  0.00    +0.000 C 
BRANCH   7   8
ATOM      8  C   UNL     1      -0.487  10.871  18.338  0.00  0.00    +0.000 C 
BRANCH   8   9
ATOM      9  N   UNL     1      -0.312  11.176  19.747  0.00  0.00    +0.000 N 
ATOM     10  N   UNL     1      -0.708  10.272  20.672  0.00  0.00    +0.000 NA
ATOM     11  C   UNL     1      -0.453  10.867  21.843  0.00  0.00    +0.000 A 
ATOM     12  C   UNL     1      -0.756  10.194  23.129  0.00  0.00    +0.000 C 
ATOM     13  C   UNL     1       0.113  12.147  21.664  0.00  0.00    +0.000 A 
ATOM     14  C   UNL     1       0.197  12.325  20.301  0.00  0.00    +0.000 A 
ATOM     15  C   UNL     1       0.705  13.475  19.517  0.00  0.00    +0.000 C 
ENDBRANCH   8   9
ENDBRANCH   7   8
ENDBRANCH   6   7
ENDBRANCH   4   6
ENDBRANCH   1   2
BRANCH   1  16
ATOM     16  N   UNL     1       4.026   5.547  19.612  0.00  0.00    +0.000 NA
ATOM     17  H   UNL     1       4.305   6.299  20.253  0.00  0.00    +0.000 HD
BRANCH  16  18
ATOM     18  S   UNL     1       5.464   4.714  19.236  0.00  0.00    +0.000 S 
ATOM     19  O   UNL     1       5.200   3.324  19.565  0.00  0.00    +0.000 OA
ATOM     20  O   UNL     1       6.594   5.428  19.764  0.00  0.00    +0.000 OA
BRANCH  18  25
ATOM     21  C   UNL     1       6.725   4.296  13.347  0.00  0.00    +0.000 C 
ATOM     22  C   UNL     1       6.268   4.550  14.755  0.00  0.00    +0.000 A 
ATOM     23  C   UNL     1       6.849   5.556  15.535  0.00  0.00    +0.000 A 
ATOM     24  C   UNL     1       6.518   5.677  16.883  0.00  0.00    +0.000 A 
ATOM     25  C   UNL     1       5.602   4.787  17.464  0.00  0.00    +0.000 A 
ATOM     26  C   UNL     1       4.970   3.821  16.684  0.00  0.00    +0.000 A 
ATOM     27  C   UNL     1       5.291   3.711  15.331  0.00  0.00    +0.000 A 
ENDBRANCH  18  25
ENDBRANCH  16  18
ENDBRANCH   1  16
BRANCH   1  28
ATOM     28  C   UNL     1       2.015   5.020  18.242  0.00  0.00    +0.000 C 
BRANCH  28  29
ATOM     29  C   UNL     1       1.880   3.830  19.211  0.00  0.00    +0.000 C 
ATOM     30  C   UNL     1       0.850   4.156  20.309  0.00  0.00    +0.000 C 
ATOM     31  C   UNL     1       1.467   2.529  18.525  0.00  0.00    +0.000 C 
ENDBRANCH  28  29
ENDBRANCH   1  28
TORSDOF 10
ENDMDL
MODEL 3
REMARK VINA RESULT:      -7.6      1.305      1.569
REMARK  Name = 
REMARK  15 active torsions:
REMARK  status: ('A' for Active; 'I' for Inactive)
REMARK    1  A    between atoms: C_1  and  C_2
REMARK    2  A    between atoms: C_5  and  S_6
REMARK    3  A    between atoms: S_6  and  N_9
REMARK    4  A    between atoms: N_9  and  C_10
REMARK    5  A    between atoms: C_10  and  C_11
REMARK    6  A    between atoms: C_10  and  C_15
REMARK    7  A    between atoms: C_11  and  C_12
REMARK    8  A    between atoms: C_12  and  C_13
REMARK    9  A    between atoms: C_12  and  C_14
REMARK   10  A    between atoms: N_17  and  C_18
REMARK   11  A    between atoms: C_18  and  C_19
REMARK   12  A    between atoms: C_19  and  C_20
REMARK   13  A    between atoms: C_20  and  N_21
REMARK   14  A    between atoms: C_23  and  C_24
REMARK   15  A    between atoms: C_26  and  C_27
REMARK                            x       y       z     vdW  Elec       q    Type
REMARK                         _______ _______ _______ _____ _____    ______ ____
ROOT
ATOM      1  C   UNL     1       2.323   5.316  19.578  0.00  0.00    +0.000 C 
ENDROOT
BRANCH   1   2
ATOM      2  C   UNL     1       2.234   6.864  19.584  0.00  0.00    +0.000 C 
ATOM      3  O   UNL     1       2.691   7.558  18.672  0.00  0.00    +0.000 OA
ATOM      4  N   UNL     1       1.657   7.420  20.706  0.00  0.00    +0.000 N 
ATOM      5  H   UNL     1       1.406   6.843  21.502  0.00  0.00    +0.000 HD
BRANCH   4   6
ATOM      6  C   UNL     1       1.468   8.849  20.851  0.00  0.00    +0.000 C 
BRANCH   6   7
ATOM      7  C   UNL     1       0.095   9.318  20.373  0.00  0.00    +0.000 C 
BRANCH   7   8
ATOM      8  C   UNL     1       0.099  10.726  19.777  0.00  0.00    +0.000 C 
BRANCH   8   9
ATOM      9  N   UNL     1      -0.815  11.646  20.431  0.00  0.00    +0.000 N 
ATOM     10  N   UNL     1      -0.490  12.147  21.645  0.00  0.00    +0.000 NA
ATOM     11  C   UNL     1      -1.540  12.908  21.979  0.00  0.00    +0.000 A 
ATOM     12  C   UNL     1      -1.579  13.641  23.267  0.00  0.00    +0.000 C 
ATOM     13  C   UNL     1      -2.530  12.896  20.974  0.00  0.00    +0.000 A 
ATOM     14  C   UNL     1      -2.040  12.076  19.982  0.00  0.00    +0.000 A 
ATOM     15  C   UNL     1      -2.637  11.683  18.684  0.00  0.00    +0.000 C 
ENDBRANCH   8   9
ENDBRANCH   7   8
ENDBRANCH   6   7
ENDBRANCH   4   6
ENDBRANCH   1   2
BRANCH   1  16
ATOM     16  N   UNL     1       3.685   4.872  19.983  0.00  0.00    +0.000 NA
ATOM     17  H   UNL     1       4.263   5.644  20.332  0.00  0.00    +0.000 HD
BRANCH  16  18
ATOM     18  S   UNL     1       4.657   4.056  18.846  0.00  0.00    +0.000 S 
ATOM     19  O   UNL     1       3.788   3.804  17.708  0.00  0.00    +0.000 OA
ATOM     20  O   UNL     1       5.396   3.009  19.495  0.00  0.00    +0.000 OA
BRANCH  18  25
ATOM     21  C   UNL     1       8.312   8.732  17.742  0.00  0.00    +0.000 C 
ATOM     22  C   UNL     1       7.493   7.478  17.844  0.00  0.00    +0.000 A 
ATOM     23  C   UNL     1       6.284   7.343  17.150  0.00  0.00    +0.000 A 
ATOM     24  C   UNL     1       5.467   6.238  17.376  0.00  0.00    +0.000 A 
ATOM     25  C   UNL     1       5.852   5.256  18.300  0.00  0.00    +0.000 A 
ATOM     26  C   UNL     1       7.082   5.347  18.950  0.00  0.00    +0.000 A 
ATOM     27  C   UNL     1       7.906   6.446  18.713  0.00  0.00    +0.000 A 
ENDBRANCH  18  25
ENDBRANCH  16  18
ENDBRANCH   1  16
BRANCH   1  28
ATOM     28  C   UNL     1       1.277   4.809  20.613  0.00  0.00    +0.000 C 
BRANCH  28  29
ATOM     29  C   UNL     1       0.827   3.339  20.514  0.00  0.00    +0.000 C 
ATOM     30  C   UNL     1       0.970   2.837  19.065  0.00  0.00    +0.000 C 
ATOM     31  C   UNL     1       1.604   2.400  21.436  0.00  0.00    +0.000 C 
ENDBRANCH  28  29
ENDBRANCH   1  28
TORSDOF 10
ENDMDL
MODEL 4
REMARK VINA RESULT:      -7.6      1.296      2.229
REMARK  Name = 
REMARK  15 active torsions:
REMARK  status: ('A' for Active; 'I' for Inactive)
REMARK    1  A    between atoms: C_1  and  C_2
REMARK    2  A    between atoms: C_5  and  S_6
REMARK    3  A    between atoms: S_6  and  N_9
REMARK    4  A    between atoms: N_9  and  C_10
REMARK    5  A    between atoms: C_10  and  C_11
REMARK    6  A    between atoms: C_10  and  C_15
REMARK    7  A    between atoms: C_11  and  C_12
REMARK    8  A    between atoms: C_12  and  C_13
REMARK    9  A    between atoms: C_12  and  C_14
REMARK   10  A    between atoms: N_17  and  C_18
REMARK   11  A    between atoms: C_18  and  C_19
REMARK   12  A    between atoms: C_19  and  C_20
REMARK   13  A    between atoms: C_20  and  N_21
REMARK   14  A    between atoms: C_23  and  C_24
REMARK   15  A    between atoms: C_26  and  C_27
REMARK                            x       y       z     vdW  Elec       q    Type
REMARK                         _______ _______ _______ _____ _____    ______ ____
ROOT
ATOM      1  C   UNL     1       2.419   5.660  19.463  0.00  0.00    +0.000 C 
ENDROOT
BRANCH   1   2
ATOM      2  C   UNL     1       2.128   7.142  19.813  0.00  0.00    +0.000 C 
ATOM      3  O   UNL     1       2.369   8.068  19.033  0.00  0.00    +0.000 OA
ATOM      4  N   UNL     1       1.631   7.366  21.080  0.00  0.00    +0.000 N 
ATOM      5  H   UNL     1       1.562   6.610  21.753  0.00  0.00    +0.000 HD
BRANCH   4   6
ATOM      6  C   UNL     1       1.275   8.689  21.549  0.00  0.00    +0.000 C 
BRANCH   6   7
ATOM      7  C   UNL     1      -0.090   9.152  21.043  0.00  0.00    +0.000 C 
BRANCH   7   8
ATOM      8  C   UNL     1      -0.440  10.587  21.438  0.00  0.00    +0.000 C 
BRANCH   8   9
ATOM      9  N   UNL     1      -0.209  11.562  20.387  0.00  0.00    +0.000 N 
ATOM     10  N   UNL     1       0.667  12.570  20.602  0.00  0.00    +0.000 NA
ATOM     11  C   UNL     1       0.614  13.297  19.480  0.00  0.00    +0.000 A 
ATOM     12  C   UNL     1       1.438  14.519  19.315  0.00  0.00    +0.000 C 
ATOM     13  C   UNL     1      -0.290  12.747  18.546  0.00  0.00    +0.000 A 
ATOM     14  C   UNL     1      -0.809  11.625  19.153  0.00  0.00    +0.000 A 
ATOM     15  C   UNL     1      -1.805  10.645  18.659  0.00  0.00    +0.000 C 
ENDBRANCH   8   9
ENDBRANCH   7   8
ENDBRANCH   6   7
ENDBRANCH   4   6
ENDBRANCH   1   2
BRANCH   1  16
ATOM     16  N   UNL     1       3.790   5.282  19.900  0.00  0.00    +0.000 NA
ATOM     17  H   UNL     1       4.339   6.090  20.216  0.00  0.00    +0.000 HD
BRANCH  16  18
ATOM     18  S   UNL     1       4.800   4.445  18.813  0.00  0.00    +0.000 S 
ATOM     19  O   UNL     1       3.971   4.170  17.652  0.00  0.00    +0.000 OA
ATOM     20  O   UNL     1       5.517   3.412  19.508  0.00  0.00    +0.000 OA
BRANCH  18  25
ATOM     21  C   UNL     1       8.518   9.086  17.769  0.00  0.00    +0.000 C 
ATOM     22  C   UNL     1       7.683   7.841  17.856  0.00  0.00    +0.000 A 
ATOM     23  C   UNL     1       6.479   7.724  17.153  0.00  0.00    +0.000 A 
ATOM     24  C   UNL     1       5.647   6.627  17.364  0.00  0.00    +0.000 A 
ATOM     25  C   UNL     1       6.014   5.634  18.285  0.00  0.00    +0.000 A 
ATOM     26  C   UNL     1       7.239   5.707  18.946  0.00  0.00    +0.000 A 
ATOM     27  C   UNL     1       8.077   6.798  18.721  0.00  0.00    +0.000 A 
ENDBRANCH  18  25
ENDBRANCH  16  18
ENDBRANCH   1  16
BRANCH   1  28
ATOM     28  C   UNL     1       1.370   4.810  20.235  0.00  0.00    +0.000 C 
BRANCH  28  29
ATOM     29  C   UNL     1       1.555   3.280  20.246  0.00  0.00    +0.000 C 
ATOM     30  C   UNL     1       1.321   2.729  21.665  0.00  0.00    +0.000 C 
ATOM     31  C   UNL     1       0.628   2.547  19.277  0.00  0.00    +0.000 C 
ENDBRANCH  28  29
ENDBRANCH   1  28
TORSDOF 10
ENDMDL
MODEL 5
REMARK VINA RESULT:      -7.3      3.859      7.838
REMARK  Name = 
REMARK  15 active torsions:
REMARK  status: ('A' for Active; 'I' for Inactive)
REMARK    1  A    between atoms: C_1  and  C_2
REMARK    2  A    between atoms: C_5  and  S_6
REMARK    3  A    between atoms: S_6  and  N_9
REMARK    4  A    between atoms: N_9  and  C_10
REMARK    5  A    between atoms: C_10  and  C_11
REMARK    6  A    between atoms: C_10  and  C_15
REMARK    7  A    between atoms: C_11  and  C_12
REMARK    8  A    between atoms: C_12  and  C_13
REMARK    9  A    between atoms: C_12  and  C_14
REMARK   10  A    between atoms: N_17  and  C_18
REMARK   11  A    between atoms: C_18  and  C_19
REMARK   12  A    between atoms: C_19  and  C_20
REMARK   13  A    between atoms: C_20  and  N_21
REMARK   14  A    between atoms: C_23  and  C_24
REMARK   15  A    between atoms: C_26  and  C_27
REMARK                            x       y       z     vdW  Elec       q    Type
REMARK                         _______ _______ _______ _____ _____    ______ ____
ROOT
ATOM      1  C   UNL     1       5.702   5.899  17.293  0.00  0.00    +0.000 C 
ENDROOT
BRANCH   1   2
ATOM      2  C   UNL     1       6.998   6.592  17.785  0.00  0.00    +0.000 C 
ATOM      3  O   UNL     1       7.706   6.117  18.679  0.00  0.00    +0.000 OA
ATOM      4  N   UNL     1       7.282   7.806  17.197  0.00  0.00    +0.000 N 
ATOM      5  H   UNL     1       6.623   8.242  16.560  0.00  0.00    +0.000 HD
BRANCH   4   6
ATOM      6  C   UNL     1       8.473   8.563  17.521  0.00  0.00    +0.000 C 
BRANCH   6   7
ATOM      7  C   UNL     1       8.170   9.851  18.284  0.00  0.00    +0.000 C 
BRANCH   7   8
ATOM      8  C   UNL     1       9.233  10.219  19.320  0.00  0.00    +0.000 C 
BRANCH   8   9
ATOM      9  N   UNL     1       9.956  11.441  19.014  0.00  0.00    +0.000 N 
ATOM     10  N   UNL     1      10.389  11.652  17.750  0.00  0.00    +0.000 NA
ATOM     11  C   UNL     1      11.040  12.820  17.816  0.00  0.00    +0.000 A 
ATOM     12  C   UNL     1      11.681  13.411  16.617  0.00  0.00    +0.000 C 
ATOM     13  C   UNL     1      11.015  13.355  19.121  0.00  0.00    +0.000 A 
ATOM     14  C   UNL     1      10.308  12.448  19.878  0.00  0.00    +0.000 A 
ATOM     15  C   UNL     1       9.960  12.471  21.319  0.00  0.00    +0.000 C 
ENDBRANCH   8   9
ENDBRANCH   7   8
ENDBRANCH   6   7
ENDBRANCH   4   6
ENDBRANCH   1   2
BRANCH   1  16
ATOM     16  N   UNL     1       4.527   6.791  17.492  0.00  0.00    +0.000 NA
ATOM     17  H   UNL     1       4.792   7.715  17.853  0.00  0.00    +0.000 HD
BRANCH  16  18
ATOM     18  S   UNL     1       3.250   6.263  18.488  0.00  0.00    +0.000 S 
ATOM     19  O   UNL     1       3.884   5.796  19.710  0.00  0.00    +0.000 OA
ATOM     20  O   UNL     1       2.345   5.444  17.730  0.00  0.00    +0.000 OA
BRANCH  18  25
ATOM     21  C   UNL     1      -0.643  10.701  19.747  0.00  0.00    +0.000 C 
ATOM     22  C   UNL     1       0.479   9.743  19.469  0.00  0.00    +0.000 A 
ATOM     23  C   UNL     1       1.032   9.627  18.188  0.00  0.00    +0.000 A 
ATOM     24  C   UNL     1       1.965   8.629  17.917  0.00  0.00    +0.000 A 
ATOM     25  C   UNL     1       2.353   7.736  18.926  0.00  0.00    +0.000 A 
ATOM     26  C   UNL     1       1.858   7.880  20.220  0.00  0.00    +0.000 A 
ATOM     27  C   UNL     1       0.935   8.889  20.495  0.00  0.00    +0.000 A 
ENDBRANCH  18  25
ENDBRANCH  16  18
ENDBRANCH   1  16
BRANCH   1  28
ATOM     28  C   UNL     1       5.899   5.622  15.775  0.00  0.00    +0.000 C 
BRANCH  28  29
ATOM     29  C   UNL     1       6.005   4.153  15.323  0.00  0.00    +0.000 C 
ATOM     30  C   UNL     1       4.982   3.289  16.084  0.00  0.00    +0.000 C 
ATOM     31  C   UNL     1       5.788   3.959  13.823  0.00  0.00    +0.000 C 
ENDBRANCH  28  29
ENDBRANCH   1  28
TORSDOF 10
ENDMDL
MODEL 6
REMARK VINA RESULT:      -7.3      2.192      2.905
REMARK  Name = 
REMARK  15 active torsions:
REMARK  status: ('A' for Active; 'I' for Inactive)
REMARK    1  A    between atoms: C_1  and  C_2
REMARK    2  A    between atoms: C_5  and  S_6
REMARK    3  A    between atoms: S_6  and  N_9
REMARK    4  A    between atoms: N_9  and  C_10
REMARK    5  A    between atoms: C_10  and  C_11
REMARK    6  A    between atoms: C_10  and  C_15
REMARK    7  A    between atoms: C_11  and  C_12
REMARK    8  A    between atoms: C_12  and  C_13
REMARK    9  A    between atoms: C_12  and  C_14
REMARK   10  A    between atoms: N_17  and  C_18
REMARK   11  A    between atoms: C_18  and  C_19
REMARK   12  A    between atoms: C_19  and  C_20
REMARK   13  A    between atoms: C_20  and  N_21
REMARK   14  A    between atoms: C_23  and  C_24
REMARK   15  A    between atoms: C_26  and  C_27
REMARK                            x       y       z     vdW  Elec       q    Type
REMARK                         _______ _______ _______ _____ _____    ______ ____
ROOT
ATOM      1  C   UNL     1       2.238   5.612  19.186  0.00  0.00    +0.000 C 
ENDROOT
BRANCH   1   2
ATOM      2  C   UNL     1       2.100   7.081  19.663  0.00  0.00    +0.000 C 
ATOM      3  O   UNL     1       2.467   8.039  18.976  0.00  0.00    +0.000 OA
ATOM      4  N   UNL     1       1.590   7.246  20.934  0.00  0.00    +0.000 N 
ATOM      5  H   UNL     1       1.416   6.447  21.533  0.00  0.00    +0.000 HD
BRANCH   4   6
ATOM      6  C   UNL     1       1.367   8.555  21.513  0.00  0.00    +0.000 C 
BRANCH   6   7
ATOM      7  C   UNL     1       0.013   9.151  21.132  0.00  0.00    +0.000 C 
BRANCH   7   8
ATOM      8  C   UNL     1       0.107  10.535  20.488  0.00  0.00    +0.000 C 
BRANCH   8   9
ATOM      9  N   UNL     1      -0.945  10.810  19.526  0.00  0.00    +0.000 N 
ATOM     10  N   UNL     1      -1.010  10.076  18.392  0.00  0.00    +0.000 NA
ATOM     11  C   UNL     1      -2.041  10.601  17.718  0.00  0.00    +0.000 A 
ATOM     12  C   UNL     1      -2.445  10.071  16.394  0.00  0.00    +0.000 C 
ATOM     13  C   UNL     1      -2.637  11.666  18.428  0.00  0.00    +0.000 A 
ATOM     14  C   UNL     1      -1.913  11.782  19.594  0.00  0.00    +0.000 A 
ATOM     15  C   UNL     1      -2.071  12.724  20.727  0.00  0.00    +0.000 C 
ENDBRANCH   8   9
ENDBRANCH   7   8
ENDBRANCH   6   7
ENDBRANCH   4   6
ENDBRANCH   1   2
BRANCH   1  16
ATOM     16  N   UNL     1       3.331   5.492  18.184  0.00  0.00    +0.000 NA
ATOM     17  H   UNL     1       3.000   5.131  17.282  0.00  0.00    +0.000 HD
BRANCH  16  18
ATOM     18  S   UNL     1       4.703   4.558  18.570  0.00  0.00    +0.000 S 
ATOM     19  O   UNL     1       4.194   3.229  18.863  0.00  0.00    +0.000 OA
ATOM     20  O   UNL     1       5.544   5.278  19.485  0.00  0.00    +0.000 OA
BRANCH  18  25
ATOM     21  C   UNL     1       7.525   5.058  13.257  0.00  0.00    +0.000 C 
ATOM     22  C   UNL     1       6.881   4.726  14.571  0.00  0.00    +0.000 A 
ATOM     23  C   UNL     1       5.567   4.248  14.635  0.00  0.00    +0.000 A 
ATOM     24  C   UNL     1       4.937   4.090  15.867  0.00  0.00    +0.000 A 
ATOM     25  C   UNL     1       5.618   4.413  17.050  0.00  0.00    +0.000 A 
ATOM     26  C   UNL     1       6.947   4.831  17.005  0.00  0.00    +0.000 A 
ATOM     27  C   UNL     1       7.581   4.974  15.771  0.00  0.00    +0.000 A 
ENDBRANCH  18  25
ENDBRANCH  16  18
ENDBRANCH   1  16
BRANCH   1  28
ATOM     28  C   UNL     1       2.586   4.769  20.446  0.00  0.00    +0.000 C 
BRANCH  28  29
ATOM     29  C   UNL     1       1.529   3.769  20.953  0.00  0.00    +0.000 C 
ATOM     30  C   UNL     1       0.805   3.115  19.762  0.00  0.00    +0.000 C 
ATOM     31  C   UNL     1       2.109   2.666  21.838  0.00  0.00    +0.000 C 
ENDBRANCH  28  29
ENDBRANCH   1  28
TORSDOF 10
ENDMDL
MODEL 7
REMARK VINA RESULT:      -7.3      3.564      9.421
REMARK  Name = 
REMARK  15 active torsions:
REMARK  status: ('A' for Active; 'I' for Inactive)
REMARK    1  A    between atoms: C_1  and  C_2
REMARK    2  A    between atoms: C_5  and  S_6
REMARK    3  A    between atoms: S_6  and  N_9
REMARK    4  A    between atoms: N_9  and  C_10
REMARK    5  A    between atoms: C_10  and  C_11
REMARK    6  A    between atoms: C_10  and  C_15
REMARK    7  A    between atoms: C_11  and  C_12
REMARK    8  A    between atoms: C_12  and  C_13
REMARK    9  A    between atoms: C_12  and  C_14
REMARK   10  A    between atoms: N_17  and  C_18
REMARK   11  A    between atoms: C_18  and  C_19
REMARK   12  A    between atoms: C_19  and  C_20
REMARK   13  A    between atoms: C_20  and  N_21
REMARK   14  A    between atoms: C_23  and  C_24
REMARK   15  A    between atoms: C_26  and  C_27
REMARK                            x       y       z     vdW  Elec       q    Type
REMARK                         _______ _______ _______ _____ _____    ______ ____
ROOT
ATOM      1  C   UNL     1       0.346  10.626  19.636  0.00  0.00    +0.000 C 
ENDROOT
BRANCH   1   2
ATOM      2  C   UNL     1       1.130   9.377  19.157  0.00  0.00    +0.000 C 
ATOM      3  O   UNL     1       1.360   9.155  17.965  0.00  0.00    +0.000 OA
ATOM      4  N   UNL     1       1.509   8.499  20.150  0.00  0.00    +0.000 N 
ATOM      5  H   UNL     1       1.200   8.631  21.107  0.00  0.00    +0.000 HD
BRANCH   4   6
ATOM      6  C   UNL     1       2.277   7.303  19.873  0.00  0.00    +0.000 C 
BRANCH   6   7
ATOM      7  C   UNL     1       1.630   6.037  20.430  0.00  0.00    +0.000 C 
BRANCH   7   8
ATOM      8  C   UNL     1       2.568   4.830  20.470  0.00  0.00    +0.000 C 
BRANCH   8   9
ATOM      9  N   UNL     1       2.824   4.239  19.169  0.00  0.00    +0.000 N 
ATOM     10  N   UNL     1       3.916   4.626  18.471  0.00  0.00    +0.000 NA
ATOM     11  C   UNL     1       3.835   3.939  17.325  0.00  0.00    +0.000 A 
ATOM     12  C   UNL     1       4.861   4.089  16.265  0.00  0.00    +0.000 C 
ATOM     13  C   UNL     1       2.695   3.109  17.296  0.00  0.00    +0.000 A 
ATOM     14  C   UNL     1       2.057   3.317  18.499  0.00  0.00    +0.000 A 
ATOM     15  C   UNL     1       0.809   2.724  19.035  0.00  0.00    +0.000 C 
ENDBRANCH   8   9
ENDBRANCH   7   8
ENDBRANCH   6   7
ENDBRANCH   4   6
ENDBRANCH   1   2
BRANCH   1  16
ATOM     16  N   UNL     1      -1.109  10.459  19.369  0.00  0.00    +0.000 NA
ATOM     17  H   UNL     1      -1.382   9.474  19.273  0.00  0.00    +0.000 HD
BRANCH  16  18
ATOM     18  S   UNL     1      -1.797  11.252  18.027  0.00  0.00    +0.000 S 
ATOM     19  O   UNL     1      -1.862  10.248  16.979  0.00  0.00    +0.000 OA
ATOM     20  O   UNL     1      -1.161  12.526  17.833  0.00  0.00    +0.000 OA
BRANCH  18  25
ATOM     21  C   UNL     1      -7.410  11.579  20.225  0.00  0.00    +0.000 C 
ATOM     22  C   UNL     1      -6.072  11.659  19.548  0.00  0.00    +0.000 A 
ATOM     23  C   UNL     1      -5.811  10.948  18.371  0.00  0.00    +0.000 A 
ATOM     24  C   UNL     1      -4.523  10.915  17.843  0.00  0.00    +0.000 A 
ATOM     25  C   UNL     1      -3.480  11.594  18.492  0.00  0.00    +0.000 A 
ATOM     26  C   UNL     1      -3.739  12.356  19.629  0.00  0.00    +0.000 A 
ATOM     27  C   UNL     1      -5.032  12.401  20.148  0.00  0.00    +0.000 A 
ENDBRANCH  18  25
ENDBRANCH  16  18
ENDBRANCH   1  16
BRANCH   1  28
ATOM     28  C   UNL     1       0.588  10.740  21.168  0.00  0.00    +0.000 C 
BRANCH  28  29
ATOM     29  C   UNL     1      -0.634  10.614  22.098  0.00  0.00    +0.000 C 
ATOM     30  C   UNL     1      -0.336   9.615  23.231  0.00  0.00    +0.000 C 
ATOM     31  C   UNL     1      -1.067  11.942  22.718  0.00  0.00    +0.000 C 
ENDBRANCH  28  29
ENDBRANCH   1  28
TORSDOF 10
ENDMDL
MODEL 8
REMARK VINA RESULT:      -7.2      1.977      2.883
REMARK  Name = 
REMARK  15 active torsions:
REMARK  status: ('A' for Active; 'I' for Inactive)
REMARK    1  A    between atoms: C_1  and  C_2
REMARK    2  A    between atoms: C_5  and  S_6
REMARK    3  A    between atoms: S_6  and  N_9
REMARK    4  A    between atoms: N_9  and  C_10
REMARK    5  A    between atoms: C_10  and  C_11
REMARK    6  A    between atoms: C_10  and  C_15
REMARK    7  A    between atoms: C_11  and  C_12
REMARK    8  A    between atoms: C_12  and  C_13
REMARK    9  A    between atoms: C_12  and  C_14
REMARK   10  A    between atoms: N_17  and  C_18
REMARK   11  A    between atoms: C_18  and  C_19
REMARK   12  A    between atoms: C_19  and  C_20
REMARK   13  A    between atoms: C_20  and  N_21
REMARK   14  A    between atoms: C_23  and  C_24
REMARK   15  A    between atoms: C_26  and  C_27
REMARK                            x       y       z     vdW  Elec       q    Type
REMARK                         _______ _______ _______ _____ _____    ______ ____
ROOT
ATOM      1  C   UNL     1       3.221   5.770  18.366  0.00  0.00    +0.000 C 
ENDROOT
BRANCH   1   2
ATOM      2  C   UNL     1       3.061   7.264  17.984  0.00  0.00    +0.000 C 
ATOM      3  O   UNL     1       4.007   7.952  17.588  0.00  0.00    +0.000 OA
ATOM      4  N   UNL     1       1.801   7.791  18.167  0.00  0.00    +0.000 N 
ATOM      5  H   UNL     1       1.070   7.249  18.614  0.00  0.00    +0.000 HD
BRANCH   4   6
ATOM      6  C   UNL     1       1.479   9.161  17.825  0.00  0.00    +0.000 C 
BRANCH   6   7
ATOM      7  C   UNL     1       0.551   9.826  18.840  0.00  0.00    +0.000 C 
BRANCH   7   8
ATOM      8  C   UNL     1       1.149   9.933  20.243  0.00  0.00    +0.000 C 
BRANCH   8   9
ATOM      9  N   UNL     1       0.359  10.734  21.162  0.00  0.00    +0.000 N 
ATOM     10  N   UNL     1       0.349  12.079  21.022  0.00  0.00    +0.000 NA
ATOM     11  C   UNL     1      -0.422  12.509  22.029  0.00  0.00    +0.000 A 
ATOM     12  C   UNL     1      -0.685  13.953  22.235  0.00  0.00    +0.000 C 
ATOM     13  C   UNL     1      -0.909  11.435  22.805  0.00  0.00    +0.000 A 
ATOM     14  C   UNL     1      -0.392  10.298  22.225  0.00  0.00    +0.000 A 
ATOM     15  C   UNL     1      -0.556   8.874  22.603  0.00  0.00    +0.000 C 
ENDBRANCH   8   9
ENDBRANCH   7   8
ENDBRANCH   6   7
ENDBRANCH   4   6
ENDBRANCH   1   2
BRANCH   1  16
ATOM     16  N   UNL     1       4.254   5.612  19.427  0.00  0.00    +0.000 NA
ATOM     17  H   UNL     1       4.606   6.513  19.770  0.00  0.00    +0.000 HD
BRANCH  16  18
ATOM     18  S   UNL     1       5.641   4.681  19.093  0.00  0.00    +0.000 S 
ATOM     19  O   UNL     1       5.280   3.316  19.440  0.00  0.00    +0.000 OA
ATOM     20  O   UNL     1       6.805   5.328  19.631  0.00  0.00    +0.000 OA
BRANCH  18  25
ATOM     21  C   UNL     1       6.795   3.920  13.217  0.00  0.00    +0.000 C 
ATOM     22  C   UNL     1       6.417   4.295  14.621  0.00  0.00    +0.000 A 
ATOM     23  C   UNL     1       7.260   5.082  15.413  0.00  0.00    +0.000 A 
ATOM     24  C   UNL     1       6.963   5.292  16.758  0.00  0.00    +0.000 A 
ATOM     25  C   UNL     1       5.817   4.713  17.323  0.00  0.00    +0.000 A 
ATOM     26  C   UNL     1       4.937   3.980  16.530  0.00  0.00    +0.000 A 
ATOM     27  C   UNL     1       5.227   3.783  15.181  0.00  0.00    +0.000 A 
ENDBRANCH  18  25
ENDBRANCH  16  18
ENDBRANCH   1  16
BRANCH   1  28
ATOM     28  C   UNL     1       1.839   5.302  18.906  0.00  0.00    +0.000 C 
BRANCH  28  29
ATOM     29  C   UNL     1       1.729   3.860  19.437  0.00  0.00    +0.000 C 
ATOM     30  C   UNL     1       1.247   3.870  20.900  0.00  0.00    +0.000 C 
ATOM     31  C   UNL     1       0.786   2.979  18.619  0.00  0.00    +0.000 C 
ENDBRANCH  28  29
ENDBRANCH   1  28
TORSDOF 10
ENDMDL
MODEL 9
REMARK VINA RESULT:      -7.1      2.344      3.123
REMARK  Name = 
REMARK  15 active torsions:
REMARK  status: ('A' for Active; 'I' for Inactive)
REMARK    1  A    between atoms: C_1  and  C_2
REMARK    2  A    between atoms: C_5  and  S_6
REMARK    3  A    between atoms: S_6  and  N_9
REMARK    4  A    between atoms: N_9  and  C_10
REMARK    5  A    between atoms: C_10  and  C_11
REMARK    6  A    between atoms: C_10  and  C_15
REMARK    7  A    between atoms: C_11  and  C_12
REMARK    8  A    between atoms: C_12  and  C_13
REMARK    9  A    between atoms: C_12  and  C_14
REMARK   10  A    between atoms: N_17  and  C_18
REMARK   11  A    between atoms: C_18  and  C_19
REMARK   12  A    between atoms: C_19  and  C_20
REMARK   13  A    between atoms: C_20  and  N_21
REMARK   14  A    between atoms: C_23  and  C_24
REMARK   15  A    between atoms: C_26  and  C_27
REMARK                            x       y       z     vdW  Elec       q    Type
REMARK                         _______ _______ _______ _____ _____    ______ ____
ROOT
ATOM      1  C   UNL     1       3.349   5.804  18.916  0.00  0.00    +0.000 C 
ENDROOT
BRANCH   1   2
ATOM      2  C   UNL     1       2.966   7.121  18.195  0.00  0.00    +0.000 C 
ATOM      3  O   UNL     1       3.477   7.465  17.125  0.00  0.00    +0.000 OA
ATOM      4  N   UNL     1       2.052   7.915  18.856  0.00  0.00    +0.000 N 
ATOM      5  H   UNL     1       1.741   7.681  19.793  0.00  0.00    +0.000 HD
BRANCH   4   6
ATOM      6  C   UNL     1       1.564   9.160  18.299  0.00  0.00    +0.000 C 
BRANCH   6   7
ATOM      7  C   UNL     1       0.683   9.941  19.273  0.00  0.00    +0.000 C 
BRANCH   7   8
ATOM      8  C   UNL     1       0.125  11.241  18.692  0.00  0.00    +0.000 C 
BRANCH   8   9
ATOM      9  N   UNL     1      -1.243  11.135  18.216  0.00  0.00    +0.000 N 
ATOM     10  N   UNL     1      -1.496  10.435  17.086  0.00  0.00    +0.000 NA
ATOM     11  C   UNL     1      -2.815  10.567  16.906  0.00  0.00    +0.000 A 
ATOM     12  C   UNL     1      -3.501   9.940  15.751  0.00  0.00    +0.000 C 
ATOM     13  C   UNL     1      -3.404  11.346  17.926  0.00  0.00    +0.000 A 
ATOM     14  C   UNL     1      -2.369  11.700  18.762  0.00  0.00    +0.000 A 
ATOM     15  C   UNL     1      -2.376  12.516  20.000  0.00  0.00    +0.000 C 
ENDBRANCH   8   9
ENDBRANCH   7   8
ENDBRANCH   6   7
ENDBRANCH   4   6
ENDBRANCH   1   2
BRANCH   1  16
ATOM     16  N   UNL     1       4.693   5.927  19.544  0.00  0.00    +0.000 NA
ATOM     17  H   UNL     1       5.206   6.754  19.217  0.00  0.00    +0.000 HD
BRANCH  16  18
ATOM     18  S   UNL     1       5.789   4.630  19.407  0.00  0.00    +0.000 S 
ATOM     19  O   UNL     1       5.057   3.459  19.860  0.00  0.00    +0.000 OA
ATOM     20  O   UNL     1       7.061   5.003  19.962  0.00  0.00    +0.000 OA
BRANCH  18  25
ATOM     21  C   UNL     1       6.364   4.884  13.403  0.00  0.00    +0.000 C 
ATOM     22  C   UNL     1       6.265   4.612  14.876  0.00  0.00    +0.000 A 
ATOM     23  C   UNL     1       5.062   4.192  15.457  0.00  0.00    +0.000 A 
ATOM     24  C   UNL     1       4.951   4.090  16.841  0.00  0.00    +0.000 A 
ATOM     25  C   UNL     1       6.044   4.411  17.660  0.00  0.00    +0.000 A 
ATOM     26  C   UNL     1       7.265   4.770  17.092  0.00  0.00    +0.000 A 
ATOM     27  C   UNL     1       7.380   4.856  15.705  0.00  0.00    +0.000 A 
ENDBRANCH  18  25
ENDBRANCH  16  18
ENDBRANCH   1  16
BRANCH   1  28
ATOM     28  C   UNL     1       2.275   5.574  20.017  0.00  0.00    +0.000 C 
BRANCH  28  29
ATOM     29  C   UNL     1       1.385   4.322  19.900  0.00  0.00    +0.000 C 
ATOM     30  C   UNL     1       1.513   3.712  18.492  0.00  0.00    +0.000 C 
ATOM     31  C   UNL     1       1.713   3.242  20.931  0.00  0.00    +0.000 C 
ENDBRANCH  28  29
ENDBRANCH   1  28
TORSDOF 10
ENDMDL
