MODEL 1
REMARK VINA RESULT:      -6.2      0.000      0.000
REMARK  Name = 
REMARK  11 active torsions:
REMARK  status: ('A' for Active; 'I' for Inactive)
REMARK    1  A    between atoms: C_1  and  C_2
REMARK    2  A    between atoms: C_2  and  O_3
REMARK    3  A    between atoms: O_3  and  C_4
REMARK    4  A    between atoms: C_5  and  C_6
REMARK    5  A    between atoms: C_6  and  N_7
REMARK    6  A    between atoms: N_7  and  C_8
REMARK    7  A    between atoms: C_8  and  C_9
REMARK    8  A    between atoms: C_9  and  C_10
REMARK    9  A    between atoms: C_9  and  O_11
REMARK   10  A    between atoms: C_16  and  O_17
REMARK   11  A    between atoms: O_17  and  C_18
REMARK                            x       y       z     vdW  Elec       q    Type
REMARK                         _______ _______ _______ _____ _____    ______ ____
ROOT
ATOM      1  C   UNL     1       3.333   3.820  17.747  0.00  0.00    +0.000 A 
ATOM      2  C   UNL     1       4.313   4.760  17.350  0.00  0.00    +0.000 A 
ATOM      3  C   UNL     1       4.029   6.137  17.437  0.00  0.00    +0.000 A 
ATOM      4  C   UNL     1       2.794   6.572  17.893  0.00  0.00    +0.000 A 
ATOM      5 BR   UNL     1       2.415   8.422  17.957  0.00  0.00    +0.000 Br
ATOM      6  C   UNL     1       1.824   5.655  18.282  0.00  0.00    +0.000 A 
ATOM      7  C   UNL     1       2.072   4.275  18.199  0.00  0.00    +0.000 A 
ENDROOT
BRANCH   7   8
ATOM      8  O   UNL     1       1.126   3.351  18.562  0.00  0.00    +0.000 OA
ATOM      9  C   UNL     1       0.708   3.347  19.923  0.00  0.00    +0.000 C 
ENDBRANCH   7   8
BRANCH   1  10
ATOM     10  O   UNL     1       3.695   2.501  17.581  0.00  0.00    +0.000 OA
BRANCH  10  12
ATOM     11  C   UNL     1       4.379   2.344  19.871  0.00  0.00    +0.000 C 
ATOM     12  C   UNL     1       3.637   1.660  18.733  0.00  0.00    +0.000 C 
ENDBRANCH  10  12
ENDBRANCH   1  10
BRANCH   2  13
ATOM     13  C   UNL     1       5.670   4.355  16.803  0.00  0.00    +0.000 C 
BRANCH  13  14
ATOM     14  N   UNL     1       6.643   3.959  17.830  0.00  0.00    +0.000 NA
ATOM     15  H   UNL     1       6.975   3.024  17.581  0.00  0.00    +0.000 HD
BRANCH  14  16
ATOM     16  C   UNL     1       7.784   4.883  17.929  0.00  0.00    +0.000 C 
BRANCH  16  17
ATOM     17  C   UNL     1       7.545   5.990  18.983  0.00  0.00    +0.000 C 
ATOM     18  C   UNL     1       8.184   7.321  18.600  0.00  0.00    +0.000 C 
BRANCH  17  19
ATOM     19  O   UNL     1       8.068   5.578  20.242  0.00  0.00    +0.000 OA
ATOM     20  H   UNL     1       7.365   5.776  20.891  0.00  0.00    +0.000 HD
ENDBRANCH  17  19
ENDBRANCH  16  17
ENDBRANCH  14  16
ENDBRANCH  13  14
ENDBRANCH   2  13
TORSDOF 8
ENDMDL
MODEL 2
REMARK VINA RESULT:      -6.0      3.343      5.016
REMARK  Name = 
REMARK  11 active torsions:
REMARK  status: ('A' for Active; 'I' for Inactive)
REMARK    1  A    between atoms: C_1  and  C_2
REMARK    2  A    between atoms: C_2  and  O_3
REMARK    3  A    between atoms: O_3  and  C_4
REMARK    4  A    between atoms: C_5  and  C_6
REMARK    5  A    between atoms: C_6  and  N_7
REMARK    6  A    between atoms: N_7  and  C_8
REMARK    7  A    between atoms: C_8  and  C_9
REMARK    8  A    between atoms: C_9  and  C_10
REMARK    9  A    between atoms: C_9  and  O_11
REMARK   10  A    between atoms: C_16  and  O_17
REMARK   11  A    between atoms: O_17  and  C_18
REMARK                            x       y       z     vdW  Elec       q    Type
REMARK                         _______ _______ _______ _____ _____    ______ ____
ROOT
ATOM      1  C   UNL     1       4.337   5.708  17.205  0.00  0.00    +0.000 A 
ATOM      2  C   UNL     1       4.379   4.363  16.768  0.00  0.00    +0.000 A 
ATOM      3  C   UNL     1       3.379   3.465  17.191  0.00  0.00    +0.000 A 
ATOM      4  C   UNL     1       2.367   3.888  18.039  0.00  0.00    +0.000 A 
ATOM      5 BR   UNL     1       1.062   2.657  18.631  0.00  0.00    +0.000 Br
ATOM      6  C   UNL     1       2.320   5.207  18.475  0.00  0.00    +0.000 A 
ATOM      7  C   UNL     1       3.307   6.125  18.081  0.00  0.00    +0.000 A 
ENDROOT
BRANCH   7   8
ATOM      8  O   UNL     1       3.291   7.427  18.511  0.00  0.00    +0.000 OA
ATOM      9  C   UNL     1       2.443   8.334  17.813  0.00  0.00    +0.000 C 
ENDBRANCH   7   8
BRANCH   1  10
ATOM     10  O   UNL     1       5.384   6.491  16.771  0.00  0.00    +0.000 OA
BRANCH  10  12
ATOM     11  C   UNL     1       7.295   7.807  17.363  0.00  0.00    +0.000 C 
ATOM     12  C   UNL     1       6.573   6.483  17.561  0.00  0.00    +0.000 C 
ENDBRANCH  10  12
ENDBRANCH   1  10
BRANCH   2  13
ATOM     13  C   UNL     1       5.478   3.822  15.873  0.00  0.00    +0.000 C 
BRANCH  13  14
ATOM     14  N   UNL     1       5.435   4.320  14.492  0.00  0.00    +0.000 NA
ATOM     15  H   UNL     1       5.405   5.341  14.544  0.00  0.00    +0.000 HD
BRANCH  14  16
ATOM     16  C   UNL     1       6.594   3.895  13.690  0.00  0.00    +0.000 C 
BRANCH  16  17
ATOM     17  C   UNL     1       6.195   3.532  12.240  0.00  0.00    +0.000 C 
ATOM     18  C   UNL     1       4.687   3.390  12.059  0.00  0.00    +0.000 C 
BRANCH  17  19
ATOM     19  O   UNL     1       6.818   2.310  11.860  0.00  0.00    +0.000 OA
ATOM     20  H   UNL     1       7.735   2.373  12.192  0.00  0.00    +0.000 HD
ENDBRANCH  17  19
ENDBRANCH  16  17
ENDBRANCH  14  16
ENDBRANCH  13  14
ENDBRANCH   2  13
TORSDOF 8
ENDMDL
MODEL 3
REMARK VINA RESULT:      -5.9      1.300      1.350
REMARK  Name = 
REMARK  11 active torsions:
REMARK  status: ('A' for Active; 'I' for Inactive)
REMARK    1  A    between atoms: C_1  and  C_2
REMARK    2  A    between atoms: C_2  and  O_3
REMARK    3  A    between atoms: O_3  and  C_4
REMARK    4  A    between atoms: C_5  and  C_6
REMARK    5  A    between atoms: C_6  and  N_7
REMARK    6  A    between atoms: N_7  and  C_8
REMARK    7  A    between atoms: C_8  and  C_9
REMARK    8  A    between atoms: C_9  and  C_10
REMARK    9  A    between atoms: C_9  and  O_11
REMARK   10  A    between atoms: C_16  and  O_17
REMARK   11  A    between atoms: O_17  and  C_18
REMARK                            x       y       z     vdW  Elec       q    Type
REMARK                         _______ _______ _______ _____ _____    ______ ____
ROOT
ATOM      1  C   UNL     1       3.884   4.866  18.553  0.00  0.00    +0.000 A 
ATOM      2  C   UNL     1       4.305   5.676  17.472  0.00  0.00    +0.000 A 
ATOM      3  C   UNL     1       3.765   6.968  17.321  0.00  0.00    +0.000 A 
ATOM      4  C   UNL     1       2.817   7.442  18.215  0.00  0.00    +0.000 A 
ATOM      5 BR   UNL     1       2.070   9.160  17.968  0.00  0.00    +0.000 Br
ATOM      6  C   UNL     1       2.395   6.651  19.278  0.00  0.00    +0.000 A 
ATOM      7  C   UNL     1       2.906   5.355  19.451  0.00  0.00    +0.000 A 
ENDROOT
BRANCH   7   8
ATOM      8  O   UNL     1       2.494   4.551  20.483  0.00  0.00    +0.000 OA
ATOM      9  C   UNL     1       1.145   4.094  20.454  0.00  0.00    +0.000 C 
ENDBRANCH   7   8
BRANCH   1  10
ATOM     10  O   UNL     1       4.439   3.606  18.583  0.00  0.00    +0.000 OA
BRANCH  10  12
ATOM     11  C   UNL     1       3.328   1.494  18.779  0.00  0.00    +0.000 C 
ATOM     12  C   UNL     1       3.786   2.588  17.826  0.00  0.00    +0.000 C 
ENDBRANCH  10  12
ENDBRANCH   1  10
BRANCH   2  13
ATOM     13  C   UNL     1       5.308   5.207  16.434  0.00  0.00    +0.000 C 
BRANCH  13  14
ATOM     14  N   UNL     1       6.665   5.739  16.618  0.00  0.00    +0.000 NA
ATOM     15  H   UNL     1       6.568   6.732  16.845  0.00  0.00    +0.000 HD
BRANCH  14  16
ATOM     16  C   UNL     1       7.413   5.054  17.685  0.00  0.00    +0.000 C 
BRANCH  16  17
ATOM     17  C   UNL     1       7.621   5.959  18.922  0.00  0.00    +0.000 C 
ATOM     18  C   UNL     1       8.161   7.340  18.561  0.00  0.00    +0.000 C 
BRANCH  17  19
ATOM     19  O   UNL     1       8.527   5.337  19.828  0.00  0.00    +0.000 OA
ATOM     20  H   UNL     1       8.401   5.800  20.679  0.00  0.00    +0.000 HD
ENDBRANCH  17  19
ENDBRANCH  16  17
ENDBRANCH  14  16
ENDBRANCH  13  14
ENDBRANCH   2  13
TORSDOF 8
ENDMDL
MODEL 4
REMARK VINA RESULT:      -5.9      1.698      2.177
REMARK  Name = 
REMARK  11 active torsions:
REMARK  status: ('A' for Active; 'I' for Inactive)
REMARK    1  A    between atoms: C_1  and  C_2
REMARK    2  A    between atoms: C_2  and  O_3
REMARK    3  A    between atoms: O_3  and  C_4
REMARK    4  A    between atoms: C_5  and  C_6
REMARK    5  A    between atoms: C_6  and  N_7
REMARK    6  A    between atoms: N_7  and  C_8
REMARK    7  A    between atoms: C_8  and  C_9
REMARK    8  A    between atoms: C_9  and  C_10
REMARK    9  A    between atoms: C_9  and  O_11
REMARK   10  A    between atoms: C_16  and  O_17
REMARK   11  A    between atoms: O_17  and  C_18
REMARK                            x       y       z     vdW  Elec       q    Type
REMARK                         _______ _______ _______ _____ _____    ______ ____
ROOT
ATOM      1  C   UNL     1       3.607   4.074  18.514  0.00  0.00    +0.000 A 
ATOM      2  C   UNL     1       4.442   5.184  18.780  0.00  0.00    +0.000 A 
ATOM      3  C   UNL     1       3.940   6.488  18.604  0.00  0.00    +0.000 A 
ATOM      4  C   UNL     1       2.641   6.687  18.161  0.00  0.00    +0.000 A 
ATOM      5 BR   UNL     1       2.001   8.444  17.887  0.00  0.00    +0.000 Br
ATOM      6  C   UNL     1       1.815   5.602  17.894  0.00  0.00    +0.000 A 
ATOM      7  C   UNL     1       2.288   4.289  18.049  0.00  0.00    +0.000 A 
ENDROOT
BRANCH   7   8
ATOM      8  O   UNL     1       1.497   3.202  17.777  0.00  0.00    +0.000 OA
ATOM      9  C   UNL     1       0.579   2.795  18.787  0.00  0.00    +0.000 C 
ENDBRANCH   7   8
BRANCH   1  10
ATOM     10  O   UNL     1       4.208   2.845  18.675  0.00  0.00    +0.000 OA
BRANCH  10  12
ATOM     11  C   UNL     1       5.022   1.648  20.582  0.00  0.00    +0.000 C 
ATOM     12  C   UNL     1       3.790   2.056  19.788  0.00  0.00    +0.000 C 
ENDBRANCH  10  12
ENDBRANCH   1  10
BRANCH   2  13
ATOM     13  C   UNL     1       5.885   5.041  19.229  0.00  0.00    +0.000 C 
BRANCH  13  14
ATOM     14  N   UNL     1       6.725   4.246  18.324  0.00  0.00    +0.000 NA
ATOM     15  H   UNL     1       6.186   3.417  18.067  0.00  0.00    +0.000 HD
BRANCH  14  16
ATOM     16  C   UNL     1       7.120   4.981  17.111  0.00  0.00    +0.000 C 
BRANCH  16  17
ATOM     17  C   UNL     1       6.863   4.160  15.825  0.00  0.00    +0.000 C 
ATOM     18  C   UNL     1       6.488   5.033  14.631  0.00  0.00    +0.000 C 
BRANCH  17  19
ATOM     19  O   UNL     1       5.816   3.223  16.053  0.00  0.00    +0.000 OA
ATOM     20  H   UNL     1       5.207   3.327  15.296  0.00  0.00    +0.000 HD
ENDBRANCH  17  19
ENDBRANCH  16  17
ENDBRANCH  14  16
ENDBRANCH  13  14
ENDBRANCH   2  13
TORSDOF 8
ENDMDL
MODEL 5
REMARK VINA RESULT:      -5.9      2.197      5.025
REMARK  Name = 
REMARK  11 active torsions:
REMARK  status: ('A' for Active; 'I' for Inactive)
REMARK    1  A    between atoms: C_1  and  C_2
REMARK    2  A    between atoms: C_2  and  O_3
REMARK    3  A    between atoms: O_3  and  C_4
REMARK    4  A    between atoms: C_5  and  C_6
REMARK    5  A    between atoms: C_6  and  N_7
REMARK    6  A    between atoms: N_7  and  C_8
REMARK    7  A    between atoms: C_8  and  C_9
REMARK    8  A    between atoms: C_9  and  C_10
REMARK    9  A    between atoms: C_9  and  O_11
REMARK   10  A    between atoms: C_16  and  O_17
REMARK   11  A    between atoms: O_17  and  C_18
REMARK                            x       y       z     vdW  Elec       q    Type
REMARK                         _______ _______ _______ _____ _____    ______ ____
ROOT
ATOM      1  C   UNL     1       5.297   5.246  17.071  0.00  0.00    +0.000 A 
ATOM      2  C   UNL     1       4.035   4.787  17.518  0.00  0.00    +0.000 A 
ATOM      3  C   UNL     1       3.043   5.723  17.872  0.00  0.00    +0.000 A 
ATOM      4  C   UNL     1       3.301   7.083  17.798  0.00  0.00    +0.000 A 
ATOM      5 BR   UNL     1       1.973   8.321  18.321  0.00  0.00    +0.000 Br
ATOM      6  C   UNL     1       4.539   7.542  17.363  0.00  0.00    +0.000 A 
ATOM      7  C   UNL     1       5.553   6.636  17.013  0.00  0.00    +0.000 A 
ENDROOT
BRANCH   7   8
ATOM      8  O   UNL     1       6.788   7.065  16.596  0.00  0.00    +0.000 OA
ATOM      9  C   UNL     1       7.649   7.628  17.581  0.00  0.00    +0.000 C 
ENDBRANCH   7   8
BRANCH   1  10
ATOM     10  O   UNL     1       6.209   4.252  16.794  0.00  0.00    +0.000 OA
BRANCH  10  12
ATOM     11  C   UNL     1       5.871   4.047  14.432  0.00  0.00    +0.000 C 
ATOM     12  C   UNL     1       6.882   4.317  15.536  0.00  0.00    +0.000 C 
ENDBRANCH  10  12
ENDBRANCH   1  10
BRANCH   2  13
ATOM     13  C   UNL     1       3.698   3.315  17.662  0.00  0.00    +0.000 C 
BRANCH  13  14
ATOM     14  N   UNL     1       2.420   3.049  18.335  0.00  0.00    +0.000 NA
ATOM     15  H   UNL     1       1.824   2.561  17.662  0.00  0.00    +0.000 HD
BRANCH  14  16
ATOM     16  C   UNL     1       2.568   2.235  19.553  0.00  0.00    +0.000 C 
BRANCH  16  17
ATOM     17  C   UNL     1       1.598   2.683  20.672  0.00  0.00    +0.000 C 
ATOM     18  C   UNL     1       0.990   4.058  20.413  0.00  0.00    +0.000 C 
BRANCH  17  19
ATOM     19  O   UNL     1       2.283   2.714  21.920  0.00  0.00    +0.000 OA
ATOM     20  H   UNL     1       2.910   1.965  21.889  0.00  0.00    +0.000 HD
ENDBRANCH  17  19
ENDBRANCH  16  17
ENDBRANCH  14  16
ENDBRANCH  13  14
ENDBRANCH   2  13
TORSDOF 8
ENDMDL
MODEL 6
REMARK VINA RESULT:      -5.9      1.871      5.070
REMARK  Name = 
REMARK  11 active torsions:
REMARK  status: ('A' for Active; 'I' for Inactive)
REMARK    1  A    between atoms: C_1  and  C_2
REMARK    2  A    between atoms: C_2  and  O_3
REMARK    3  A    between atoms: O_3  and  C_4
REMARK    4  A    between atoms: C_5  and  C_6
REMARK    5  A    between atoms: C_6  and  N_7
REMARK    6  A    between atoms: N_7  and  C_8
REMARK    7  A    between atoms: C_8  and  C_9
REMARK    8  A    between atoms: C_9  and  C_10
REMARK    9  A    between atoms: C_9  and  O_11
REMARK   10  A    between atoms: C_16  and  O_17
REMARK   11  A    between atoms: O_17  and  C_18
REMARK                            x       y       z     vdW  Elec       q    Type
REMARK                         _______ _______ _______ _____ _____    ______ ____
ROOT
ATOM      1  C   UNL     1       5.307   5.241  16.955  0.00  0.00    +0.000 A 
ATOM      2  C   UNL     1       4.012   4.826  17.346  0.00  0.00    +0.000 A 
ATOM      3  C   UNL     1       3.063   5.791  17.737  0.00  0.00    +0.000 A 
ATOM      4  C   UNL     1       3.396   7.137  17.753  0.00  0.00    +0.000 A 
ATOM      5 BR   UNL     1       2.123   8.412  18.326  0.00  0.00    +0.000 Br
ATOM      6  C   UNL     1       4.666   7.553  17.372  0.00  0.00    +0.000 A 
ATOM      7  C   UNL     1       5.639   6.616  16.987  0.00  0.00    +0.000 A 
ENDROOT
BRANCH   7   8
ATOM      8  O   UNL     1       6.904   7.000  16.623  0.00  0.00    +0.000 OA
ATOM      9  C   UNL     1       7.673   7.710  17.589  0.00  0.00    +0.000 C 
ENDBRANCH   7   8
BRANCH   1  10
ATOM     10  O   UNL     1       6.171   4.216  16.634  0.00  0.00    +0.000 OA
BRANCH  10  12
ATOM     11  C   UNL     1       6.611   4.531  14.302  0.00  0.00    +0.000 C 
ATOM     12  C   UNL     1       6.013   3.608  15.352  0.00  0.00    +0.000 C 
ENDBRANCH  10  12
ENDBRANCH   1  10
BRANCH   2  13
ATOM     13  C   UNL     1       3.593   3.368  17.392  0.00  0.00    +0.000 C 
BRANCH  13  14
ATOM     14  N   UNL     1       4.242   2.583  18.451  0.00  0.00    +0.000 NA
ATOM     15  H   UNL     1       4.894   3.209  18.929  0.00  0.00    +0.000 HD
BRANCH  14  16
ATOM     16  C   UNL     1       3.287   2.022  19.420  0.00  0.00    +0.000 C 
BRANCH  16  17
ATOM     17  C   UNL     1       1.845   2.528  19.175  0.00  0.00    +0.000 C 
ATOM     18  C   UNL     1       1.224   3.167  20.413  0.00  0.00    +0.000 C 
BRANCH  17  19
ATOM     19  O   UNL     1       1.020   1.446  18.756  0.00  0.00    +0.000 OA
ATOM     20  H   UNL     1       1.537   0.974  18.074  0.00  0.00    +0.000 HD
ENDBRANCH  17  19
ENDBRANCH  16  17
ENDBRANCH  14  16
ENDBRANCH  13  14
ENDBRANCH   2  13
TORSDOF 8
ENDMDL
MODEL 7
REMARK VINA RESULT:      -5.8      2.107      2.714
REMARK  Name = 
REMARK  11 active torsions:
REMARK  status: ('A' for Active; 'I' for Inactive)
REMARK    1  A    between atoms: C_1  and  C_2
REMARK    2  A    between atoms: C_2  and  O_3
REMARK    3  A    between atoms: O_3  and  C_4
REMARK    4  A    between atoms: C_5  and  C_6
REMARK    5  A    between atoms: C_6  and  N_7
REMARK    6  A    between atoms: N_7  and  C_8
REMARK    7  A    between atoms: C_8  and  C_9
REMARK    8  A    between atoms: C_9  and  C_10
REMARK    9  A    between atoms: C_9  and  O_11
REMARK   10  A    between atoms: C_16  and  O_17
REMARK   11  A    between atoms: O_17  and  C_18
REMARK                            x       y       z     vdW  Elec       q    Type
REMARK                         _______ _______ _______ _____ _____    ______ ____
ROOT
ATOM      1  C   UNL     1       3.545   4.731  19.256  0.00  0.00    +0.000 A 
ATOM      2  C   UNL     1       3.573   6.038  18.713  0.00  0.00    +0.000 A 
ATOM      3  C   UNL     1       2.760   7.040  19.278  0.00  0.00    +0.000 A 
ATOM      4  C   UNL     1       1.928   6.750  20.348  0.00  0.00    +0.000 A 
ATOM      5 BR   UNL     1       0.811   8.098  21.061  0.00  0.00    +0.000 Br
ATOM      6  C   UNL     1       1.892   5.468  20.885  0.00  0.00    +0.000 A 
ATOM      7  C   UNL     1       2.682   4.444  20.339  0.00  0.00    +0.000 A 
ENDROOT
BRANCH   7   8
ATOM      8  O   UNL     1       2.652   3.168  20.842  0.00  0.00    +0.000 OA
ATOM      9  C   UNL     1       1.504   2.791  21.595  0.00  0.00    +0.000 C 
ENDBRANCH   7   8
BRANCH   1  10
ATOM     10  O   UNL     1       4.342   3.816  18.603  0.00  0.00    +0.000 OA
BRANCH  10  12
ATOM     11  C   UNL     1       2.620   3.168  17.072  0.00  0.00    +0.000 C 
ATOM     12  C   UNL     1       3.695   2.680  18.030  0.00  0.00    +0.000 C 
ENDBRANCH  10  12
ENDBRANCH   1  10
BRANCH   2  13
ATOM     13  C   UNL     1       4.429   6.415  17.518  0.00  0.00    +0.000 C 
BRANCH  13  14
ATOM     14  N   UNL     1       5.875   6.374  17.771  0.00  0.00    +0.000 NA
ATOM     15  H   UNL     1       6.035   5.647  18.473  0.00  0.00    +0.000 HD
BRANCH  14  16
ATOM     16  C   UNL     1       6.663   6.084  16.563  0.00  0.00    +0.000 C 
BRANCH  16  17
ATOM     17  C   UNL     1       7.085   4.597  16.487  0.00  0.00    +0.000 C 
ATOM     18  C   UNL     1       6.208   3.781  15.542  0.00  0.00    +0.000 C 
BRANCH  17  19
ATOM     19  O   UNL     1       7.026   4.013  17.784  0.00  0.00    +0.000 OA
ATOM     20  H   UNL     1       6.127   4.204  18.113  0.00  0.00    +0.000 HD
ENDBRANCH  17  19
ENDBRANCH  16  17
ENDBRANCH  14  16
ENDBRANCH  13  14
ENDBRANCH   2  13
TORSDOF 8
ENDMDL
MODEL 8
REMARK VINA RESULT:      -5.8      2.271      2.871
REMARK  Name = 
REMARK  11 active torsions:
REMARK  status: ('A' for Active; 'I' for Inactive)
REMARK    1  A    between atoms: C_1  and  C_2
REMARK    2  A    between atoms: C_2  and  O_3
REMARK    3  A    between atoms: O_3  and  C_4
REMARK    4  A    between atoms: C_5  and  C_6
REMARK    5  A    between atoms: C_6  and  N_7
REMARK    6  A    between atoms: N_7  and  C_8
REMARK    7  A    between atoms: C_8  and  C_9
REMARK    8  A    between atoms: C_9  and  C_10
REMARK    9  A    between atoms: C_9  and  O_11
REMARK   10  A    between atoms: C_16  and  O_17
REMARK   11  A    between atoms: O_17  and  C_18
REMARK                            x       y       z     vdW  Elec       q    Type
REMARK                         _______ _______ _______ _____ _____    ______ ____
ROOT
ATOM      1  C   UNL     1       3.657   4.224  19.132  0.00  0.00    +0.000 A 
ATOM      2  C   UNL     1       3.825   5.252  18.173  0.00  0.00    +0.000 A 
ATOM      3  C   UNL     1       3.175   6.487  18.362  0.00  0.00    +0.000 A 
ATOM      4  C   UNL     1       2.366   6.695  19.468  0.00  0.00    +0.000 A 
ATOM      5 BR   UNL     1       1.466   8.343  19.677  0.00  0.00    +0.000 Br
ATOM      6  C   UNL     1       2.193   5.689  20.412  0.00  0.00    +0.000 A 
ATOM      7  C   UNL     1       2.818   4.442  20.250  0.00  0.00    +0.000 A 
ENDROOT
BRANCH   7   8
ATOM      8  O   UNL     1       2.650   3.430  21.159  0.00  0.00    +0.000 OA
ATOM      9  C   UNL     1       1.326   2.944  21.357  0.00  0.00    +0.000 C 
ENDBRANCH   7   8
BRANCH   1  10
ATOM     10  O   UNL     1       4.298   3.042  18.831  0.00  0.00    +0.000 OA
BRANCH  10  12
ATOM     11  C   UNL     1       2.416   2.225  17.598  0.00  0.00    +0.000 C 
ATOM     12  C   UNL     1       3.480   1.890  18.631  0.00  0.00    +0.000 C 
ENDBRANCH  10  12
ENDBRANCH   1  10
BRANCH   2  13
ATOM     13  C   UNL     1       4.663   5.080  16.920  0.00  0.00    +0.000 C 
BRANCH  13  14
ATOM     14  N   UNL     1       6.112   5.058  17.158  0.00  0.00    +0.000 NA
ATOM     15  H   UNL     1       6.258   4.619  18.069  0.00  0.00    +0.000 HD
BRANCH  14  16
ATOM     16  C   UNL     1       6.855   4.322  16.122  0.00  0.00    +0.000 C 
BRANCH  16  17
ATOM     17  C   UNL     1       6.621   4.909  14.710  0.00  0.00    +0.000 C 
ATOM     18  C   UNL     1       6.182   3.857  13.697  0.00  0.00    +0.000 C 
BRANCH  17  19
ATOM     19  O   UNL     1       7.815   5.527  14.241  0.00  0.00    +0.000 OA
ATOM     20  H   UNL     1       8.039   5.060  13.412  0.00  0.00    +0.000 HD
ENDBRANCH  17  19
ENDBRANCH  16  17
ENDBRANCH  14  16
ENDBRANCH  13  14
ENDBRANCH   2  13
TORSDOF 8
ENDMDL
MODEL 9
REMARK VINA RESULT:      -5.8      2.606      4.964
REMARK  Name = 
REMARK  11 active torsions:
REMARK  status: ('A' for Active; 'I' for Inactive)
REMARK    1  A    between atoms: C_1  and  C_2
REMARK    2  A    between atoms: C_2  and  O_3
REMARK    3  A    between atoms: O_3  and  C_4
REMARK    4  A    between atoms: C_5  and  C_6
REMARK    5  A    between atoms: C_6  and  N_7
REMARK    6  A    between atoms: N_7  and  C_8
REMARK    7  A    between atoms: C_8  and  C_9
REMARK    8  A    between atoms: C_9  and  C_10
REMARK    9  A    between atoms: C_9  and  O_11
REMARK   10  A    between atoms: C_16  and  O_17
REMARK   11  A    between atoms: O_17  and  C_18
REMARK                            x       y       z     vdW  Elec       q    Type
REMARK                         _______ _______ _______ _____ _____    ______ ____
ROOT
ATOM      1  C   UNL     1       4.724   4.814  16.929  0.00  0.00    +0.000 A 
ATOM      2  C   UNL     1       4.451   5.877  17.823  0.00  0.00    +0.000 A 
ATOM      3  C   UNL     1       5.409   6.893  18.005  0.00  0.00    +0.000 A 
ATOM      4  C   UNL     1       6.618   6.849  17.326  0.00  0.00    +0.000 A 
ATOM      5 BR   UNL     1       7.909   8.197  17.619  0.00  0.00    +0.000 Br
ATOM      6  C   UNL     1       6.894   5.807  16.448  0.00  0.00    +0.000 A 
ATOM      7  C   UNL     1       5.965   4.773  16.252  0.00  0.00    +0.000 A 
ENDROOT
BRANCH   7   8
ATOM      8  O   UNL     1       6.222   3.726  15.404  0.00  0.00    +0.000 OA
ATOM      9  C   UNL     1       6.269   4.013  14.010  0.00  0.00    +0.000 C 
ENDBRANCH   7   8
BRANCH   1  10
ATOM     10  O   UNL     1       3.741   3.850  16.858  0.00  0.00    +0.000 OA
BRANCH  10  12
ATOM     11  C   UNL     1       2.568   1.938  17.695  0.00  0.00    +0.000 C 
ATOM     12  C   UNL     1       3.870   2.724  17.725  0.00  0.00    +0.000 C 
ENDBRANCH  10  12
ENDBRANCH   1  10
BRANCH   2  13
ATOM     13  C   UNL     1       3.168   5.967  18.628  0.00  0.00    +0.000 C 
BRANCH  13  14
ATOM     14  N   UNL     1       3.334   5.708  20.065  0.00  0.00    +0.000 NA
ATOM     15  H   UNL     1       3.624   6.589  20.495  0.00  0.00    +0.000 HD
BRANCH  14  16
ATOM     16  C   UNL     1       2.105   5.218  20.708  0.00  0.00    +0.000 C 
BRANCH  16  17
ATOM     17  C   UNL     1       2.139   3.688  20.938  0.00  0.00    +0.000 C 
ATOM     18  C   UNL     1       0.822   3.006  20.580  0.00  0.00    +0.000 C 
BRANCH  17  19
ATOM     19  O   UNL     1       2.441   3.412  22.302  0.00  0.00    +0.000 OA
ATOM     20  H   UNL     1       1.726   2.822  22.610  0.00  0.00    +0.000 HD
ENDBRANCH  17  19
ENDBRANCH  16  17
ENDBRANCH  14  16
ENDBRANCH  13  14
ENDBRANCH   2  13
TORSDOF 8
ENDMDL
