MODEL 1
REMARK VINA RESULT:      -7.4      0.000      0.000
REMARK  Name = 
REMARK  12 active torsions:
REMARK  status: ('A' for Active; 'I' for Inactive)
REMARK    1  A    between atoms: C_1  and  O_2
REMARK    2  A    between atoms: O_2  and  C_3
REMARK    3  A    between atoms: C_8  and  N_9
REMARK    4  A    between atoms: C_11  and  C_12
REMARK    5  A    between atoms: C_12  and  C_14
REMARK    6  A    between atoms: C_16  and  O_17
REMARK    7  A    between atoms: O_17  and  C_18
REMARK    8  A    between atoms: C_19  and  O_20
REMARK    9  A    between atoms: O_20  and  C_21
REMARK   10  A    between atoms: C_22  and  O_23
REMARK   11  A    between atoms: O_23  and  C_24
REMARK   12  A    between atoms: C_26  and  C_27
REMARK                            x       y       z     vdW  Elec       q    Type
REMARK                         _______ _______ _______ _____ _____    ______ ____
ROOT
ATOM      1  N   UNL     1       2.714   6.909  18.378  0.00  0.00    +0.000 N 
ATOM      2  C   UNL     1       2.369   8.087  17.752  0.00  0.00    +0.000 A 
ATOM      3  C   UNL     1       1.753   8.944  18.661  0.00  0.00    +0.000 A 
ATOM      4  C   UNL     1       1.613   8.212  19.878  0.00  0.00    +0.000 A 
ATOM      5  C   UNL     1       2.203   6.982  19.663  0.00  0.00    +0.000 A 
ENDROOT
BRANCH   1  11
ATOM      6  C   UNL     1       2.994   4.574  17.513  0.00  0.00    +0.000 A 
ATOM      7  C   UNL     1       3.860   3.611  16.962  0.00  0.00    +0.000 A 
ATOM      8  C   UNL     1       5.223   3.865  16.807  0.00  0.00    +0.000 A 
ATOM      9  C   UNL     1       5.741   5.093  17.182  0.00  0.00    +0.000 A 
ATOM     10  C   UNL     1       4.896   6.071  17.704  0.00  0.00    +0.000 A 
ATOM     11  C   UNL     1       3.514   5.833  17.866  0.00  0.00    +0.000 A 
BRANCH   6  13
ATOM     12  C   UNL     1       1.384   3.355  18.750  0.00  0.00    +0.000 C 
ATOM     13  O   UNL     1       1.666   4.303  17.720  0.00  0.00    +0.000 OA
ENDBRANCH   6  13
ENDBRANCH   1  11
BRANCH   4  14
ATOM     14  C   UNL     1       1.027   8.592  21.160  0.00  0.00    +0.000 A 
ATOM     15  C   UNL     1      -0.362   8.591  21.345  0.00  0.00    +0.000 A 
ATOM     16  C   UNL     1      -0.923   9.026  22.550  0.00  0.00    +0.000 A 
ATOM     17  C   UNL     1      -0.101   9.470  23.580  0.00  0.00    +0.000 A 
ATOM     18  C   UNL     1       1.277   9.448  23.425  0.00  0.00    +0.000 A 
ATOM     19  C   UNL     1       1.840   8.997  22.229  0.00  0.00    +0.000 A 
ENDBRANCH   4  14
BRANCH   3  20
ATOM     20  C   UNL     1       1.344  10.323  18.387  0.00  0.00    +0.000 C 
ATOM     21  O   UNL     1       2.144  11.230  18.176  0.00  0.00    +0.000 OA
BRANCH  20  22
ATOM     22  C   UNL     1      -0.112  10.638  18.321  0.00  0.00    +0.000 A 
ATOM     23  C   UNL     1      -0.690  11.528  19.222  0.00  0.00    +0.000 A 
ATOM     24  C   UNL     1      -2.018  11.920  19.082  0.00  0.00    +0.000 A 
ATOM     25  C   UNL     1      -2.828  11.315  18.095  0.00  0.00    +0.000 A 
ATOM     26  C   UNL     1      -2.274  10.323  17.255  0.00  0.00    +0.000 A 
ATOM     27  C   UNL     1      -0.914  10.010  17.365  0.00  0.00    +0.000 A 
BRANCH  24  28
ATOM     28  O   UNL     1      -2.575  12.885  19.890  0.00  0.00    +0.000 OA
ATOM     29  C   UNL     1      -2.473  12.639  21.296  0.00  0.00    +0.000 C 
ENDBRANCH  24  28
BRANCH  25  30
ATOM     30  O   UNL     1      -4.142  11.723  18.093  0.00  0.00    +0.000 OA
ATOM     31  C   UNL     1      -5.128  10.737  18.379  0.00  0.00    +0.000 C 
ENDBRANCH  25  30
BRANCH  26  32
ATOM     32  O   UNL     1      -3.105   9.689  16.364  0.00  0.00    +0.000 OA
ATOM     33  C   UNL     1      -3.144  10.165  15.023  0.00  0.00    +0.000 C 
ENDBRANCH  26  32
ENDBRANCH  20  22
ENDBRANCH   3  20
TORSDOF 8
ENDMDL
MODEL 2
REMARK VINA RESULT:      -7.3      0.528      2.253
REMARK  Name = 
REMARK  12 active torsions:
REMARK  status: ('A' for Active; 'I' for Inactive)
REMARK    1  A    between atoms: C_1  and  O_2
REMARK    2  A    between atoms: O_2  and  C_3
REMARK    3  A    between atoms: C_8  and  N_9
REMARK    4  A    between atoms: C_11  and  C_12
REMARK    5  A    between atoms: C_12  and  C_14
REMARK    6  A    between atoms: C_16  and  O_17
REMARK    7  A    between atoms: O_17  and  C_18
REMARK    8  A    between atoms: C_19  and  O_20
REMARK    9  A    between atoms: O_20  and  C_21
REMARK   10  A    between atoms: C_22  and  O_23
REMARK   11  A    between atoms: O_23  and  C_24
REMARK   12  A    between atoms: C_26  and  C_27
REMARK                            x       y       z     vdW  Elec       q    Type
REMARK                         _______ _______ _______ _____ _____    ______ ____
ROOT
ATOM      1  N   UNL     1       2.723   7.078  18.258  0.00  0.00    +0.000 N 
ATOM      2  C   UNL     1       2.298   8.247  17.667  0.00  0.00    +0.000 A 
ATOM      3  C   UNL     1       1.673   9.056  18.614  0.00  0.00    +0.000 A 
ATOM      4  C   UNL     1       1.612   8.296  19.820  0.00  0.00    +0.000 A 
ATOM      5  C   UNL     1       2.254   7.101  19.560  0.00  0.00    +0.000 A 
ENDROOT
BRANCH   1  11
ATOM      6  C   UNL     1       3.211   4.689  17.676  0.00  0.00    +0.000 A 
ATOM      7  C   UNL     1       4.076   3.777  17.045  0.00  0.00    +0.000 A 
ATOM      8  C   UNL     1       5.286   4.192  16.487  0.00  0.00    +0.000 A 
ATOM      9  C   UNL     1       5.642   5.529  16.533  0.00  0.00    +0.000 A 
ATOM     10  C   UNL     1       4.786   6.453  17.129  0.00  0.00    +0.000 A 
ATOM     11  C   UNL     1       3.557   6.053  17.696  0.00  0.00    +0.000 A 
BRANCH   6  13
ATOM     12  C   UNL     1       1.767   2.876  18.169  0.00  0.00    +0.000 C 
ATOM     13  O   UNL     1       2.050   4.272  18.277  0.00  0.00    +0.000 OA
ENDBRANCH   6  13
ENDBRANCH   1  11
BRANCH   4  14
ATOM     14  C   UNL     1       1.054   8.622  21.129  0.00  0.00    +0.000 A 
ATOM     15  C   UNL     1      -0.328   8.567  21.356  0.00  0.00    +0.000 A 
ATOM     16  C   UNL     1      -0.866   8.950  22.588  0.00  0.00    +0.000 A 
ATOM     17  C   UNL     1      -0.029   9.398  23.604  0.00  0.00    +0.000 A 
ATOM     18  C   UNL     1       1.344   9.429  23.406  0.00  0.00    +0.000 A 
ATOM     19  C   UNL     1       1.885   9.028  22.183  0.00  0.00    +0.000 A 
ENDBRANCH   4  14
BRANCH   3  20
ATOM     20  C   UNL     1       1.187  10.418  18.382  0.00  0.00    +0.000 C 
ATOM     21  O   UNL     1       1.933  11.373  18.198  0.00  0.00    +0.000 OA
BRANCH  20  22
ATOM     22  C   UNL     1      -0.286  10.651  18.325  0.00  0.00    +0.000 A 
ATOM     23  C   UNL     1      -1.058  10.084  17.316  0.00  0.00    +0.000 A 
ATOM     24  C   UNL     1      -2.445  10.196  17.334  0.00  0.00    +0.000 A 
ATOM     25  C   UNL     1      -3.072  10.998  18.314  0.00  0.00    +0.000 A 
ATOM     26  C   UNL     1      -2.279  11.671  19.271  0.00  0.00    +0.000 A 
ATOM     27  C   UNL     1      -0.894  11.473  19.277  0.00  0.00    +0.000 A 
BRANCH  24  28
ATOM     28  O   UNL     1      -3.234   9.546  16.412  0.00  0.00    +0.000 OA
ATOM     29  C   UNL     1      -2.977   9.880  15.045  0.00  0.00    +0.000 C 
ENDBRANCH  24  28
BRANCH  25  30
ATOM     30  O   UNL     1      -4.440  11.096  18.196  0.00  0.00    +0.000 OA
ATOM     31  C   UNL     1      -4.943  12.053  17.271  0.00  0.00    +0.000 C 
ENDBRANCH  25  30
BRANCH  26  32
ATOM     32  O   UNL     1      -2.907  12.513  20.156  0.00  0.00    +0.000 OA
ATOM     33  C   UNL     1      -2.219  13.687  20.572  0.00  0.00    +0.000 C 
ENDBRANCH  26  32
ENDBRANCH  20  22
ENDBRANCH   3  20
TORSDOF 8
ENDMDL
MODEL 3
REMARK VINA RESULT:      -7.1      1.042      1.753
REMARK  Name = 
REMARK  12 active torsions:
REMARK  status: ('A' for Active; 'I' for Inactive)
REMARK    1  A    between atoms: C_1  and  O_2
REMARK    2  A    between atoms: O_2  and  C_3
REMARK    3  A    between atoms: C_8  and  N_9
REMARK    4  A    between atoms: C_11  and  C_12
REMARK    5  A    between atoms: C_12  and  C_14
REMARK    6  A    between atoms: C_16  and  O_17
REMARK    7  A    between atoms: O_17  and  C_18
REMARK    8  A    between atoms: C_19  and  O_20
REMARK    9  A    between atoms: O_20  and  C_21
REMARK   10  A    between atoms: C_22  and  O_23
REMARK   11  A    between atoms: O_23  and  C_24
REMARK   12  A    between atoms: C_26  and  C_27
REMARK                            x       y       z     vdW  Elec       q    Type
REMARK                         _______ _______ _______ _____ _____    ______ ____
ROOT
ATOM      1  N   UNL     1       2.726   6.941  18.271  0.00  0.00    +0.000 N 
ATOM      2  C   UNL     1       2.302   8.098  17.655  0.00  0.00    +0.000 A 
ATOM      3  C   UNL     1       1.685   8.932  18.585  0.00  0.00    +0.000 A 
ATOM      4  C   UNL     1       1.626   8.200  19.809  0.00  0.00    +0.000 A 
ATOM      5  C   UNL     1       2.263   6.997  19.575  0.00  0.00    +0.000 A 
ENDROOT
BRANCH   1  11
ATOM      6  C   UNL     1       4.899   6.084  17.364  0.00  0.00    +0.000 A 
ATOM      7  C   UNL     1       5.635   4.979  16.901  0.00  0.00    +0.000 A 
ATOM      8  C   UNL     1       5.044   3.723  16.755  0.00  0.00    +0.000 A 
ATOM      9  C   UNL     1       3.711   3.547  17.087  0.00  0.00    +0.000 A 
ATOM     10  C   UNL     1       2.972   4.624  17.574  0.00  0.00    +0.000 A 
ATOM     11  C   UNL     1       3.553   5.900  17.731  0.00  0.00    +0.000 A 
BRANCH   6  13
ATOM     12  C   UNL     1       6.891   7.367  17.404  0.00  0.00    +0.000 C 
ATOM     13  O   UNL     1       5.464   7.331  17.451  0.00  0.00    +0.000 OA
ENDBRANCH   6  13
ENDBRANCH   1  11
BRANCH   4  14
ATOM     14  C   UNL     1       1.075   8.560  21.113  0.00  0.00    +0.000 A 
ATOM     15  C   UNL     1      -0.304   8.499  21.352  0.00  0.00    +0.000 A 
ATOM     16  C   UNL     1      -0.836   8.913  22.577  0.00  0.00    +0.000 A 
ATOM     17  C   UNL     1       0.005   9.398  23.573  0.00  0.00    +0.000 A 
ATOM     18  C   UNL     1       1.376   9.436  23.363  0.00  0.00    +0.000 A 
ATOM     19  C   UNL     1       1.911   9.005  22.148  0.00  0.00    +0.000 A 
ENDBRANCH   4  14
BRANCH   3  20
ATOM     20  C   UNL     1       1.203  10.289  18.323  0.00  0.00    +0.000 C 
ATOM     21  O   UNL     1       1.951  11.231  18.080  0.00  0.00    +0.000 OA
BRANCH  20  22
ATOM     22  C   UNL     1      -0.268  10.536  18.310  0.00  0.00    +0.000 A 
ATOM     23  C   UNL     1      -0.860  11.366  19.258  0.00  0.00    +0.000 A 
ATOM     24  C   UNL     1      -2.209  11.698  19.170  0.00  0.00    +0.000 A 
ATOM     25  C   UNL     1      -3.019  11.090  18.185  0.00  0.00    +0.000 A 
ATOM     26  C   UNL     1      -2.444  10.155  17.294  0.00  0.00    +0.000 A 
ATOM     27  C   UNL     1      -1.068   9.904  17.355  0.00  0.00    +0.000 A 
BRANCH  24  28
ATOM     28  O   UNL     1      -2.786  12.607  20.027  0.00  0.00    +0.000 OA
ATOM     29  C   UNL     1      -1.873  13.488  20.690  0.00  0.00    +0.000 C 
ENDBRANCH  24  28
BRANCH  25  30
ATOM     30  O   UNL     1      -4.350  11.434  18.234  0.00  0.00    +0.000 OA
ATOM     31  C   UNL     1      -4.880  12.132  17.113  0.00  0.00    +0.000 C 
ENDBRANCH  25  30
BRANCH  26  32
ATOM     32  O   UNL     1      -3.270   9.514  16.405  0.00  0.00    +0.000 OA
ATOM     33  C   UNL     1      -3.166   9.848  15.025  0.00  0.00    +0.000 C 
ENDBRANCH  26  32
ENDBRANCH  20  22
ENDBRANCH   3  20
TORSDOF 8
ENDMDL
MODEL 4
REMARK VINA RESULT:      -7.0      1.479      3.108
REMARK  Name = 
REMARK  12 active torsions:
REMARK  status: ('A' for Active; 'I' for Inactive)
REMARK    1  A    between atoms: C_1  and  O_2
REMARK    2  A    between atoms: O_2  and  C_3
REMARK    3  A    between atoms: C_8  and  N_9
REMARK    4  A    between atoms: C_11  and  C_12
REMARK    5  A    between atoms: C_12  and  C_14
REMARK    6  A    between atoms: C_16  and  O_17
REMARK    7  A    between atoms: O_17  and  C_18
REMARK    8  A    between atoms: C_19  and  O_20
REMARK    9  A    between atoms: O_20  and  C_21
REMARK   10  A    between atoms: C_22  and  O_23
REMARK   11  A    between atoms: O_23  and  C_24
REMARK   12  A    between atoms: C_26  and  C_27
REMARK                            x       y       z     vdW  Elec       q    Type
REMARK                         _______ _______ _______ _____ _____    ______ ____
ROOT
ATOM      1  N   UNL     1       2.355   5.796  18.858  0.00  0.00    +0.000 N 
ATOM      2  C   UNL     1       2.362   6.885  18.015  0.00  0.00    +0.000 A 
ATOM      3  C   UNL     1       1.943   8.021  18.705  0.00  0.00    +0.000 A 
ATOM      4  C   UNL     1       1.551   7.584  20.005  0.00  0.00    +0.000 A 
ATOM      5  C   UNL     1       1.811   6.228  20.055  0.00  0.00    +0.000 A 
ENDROOT
BRANCH   1  11
ATOM      6  C   UNL     1       4.176   4.077  18.962  0.00  0.00    +0.000 A 
ATOM      7  C   UNL     1       4.560   2.744  18.729  0.00  0.00    +0.000 A 
ATOM      8  C   UNL     1       3.696   1.835  18.118  0.00  0.00    +0.000 A 
ATOM      9  C   UNL     1       2.424   2.239  17.745  0.00  0.00    +0.000 A 
ATOM     10  C   UNL     1       2.014   3.548  17.992  0.00  0.00    +0.000 A 
ATOM     11  C   UNL     1       2.874   4.480  18.612  0.00  0.00    +0.000 A 
BRANCH   6  13
ATOM     12  C   UNL     1       6.273   5.168  18.800  0.00  0.00    +0.000 C 
ATOM     13  O   UNL     1       5.046   4.985  19.508  0.00  0.00    +0.000 OA
ENDBRANCH   6  13
ENDBRANCH   1  11
BRANCH   4  14
ATOM     14  C   UNL     1       1.016   8.326  21.143  0.00  0.00    +0.000 A 
ATOM     15  C   UNL     1       1.871   8.926  22.077  0.00  0.00    +0.000 A 
ATOM     16  C   UNL     1       1.357   9.573  23.205  0.00  0.00    +0.000 A 
ATOM     17  C   UNL     1      -0.018   9.623  23.413  0.00  0.00    +0.000 A 
ATOM     18  C   UNL     1      -0.879   9.061  22.482  0.00  0.00    +0.000 A 
ATOM     19  C   UNL     1      -0.368   8.431  21.345  0.00  0.00    +0.000 A 
ENDBRANCH   4  14
BRANCH   3  20
ATOM     20  C   UNL     1       1.922   9.383  18.168  0.00  0.00    +0.000 C 
ATOM     21  O   UNL     1       2.821   9.842  17.471  0.00  0.00    +0.000 OA
BRANCH  20  22
ATOM     22  C   UNL     1       0.735  10.243  18.445  0.00  0.00    +0.000 A 
ATOM     23  C   UNL     1      -0.523   9.896  17.962  0.00  0.00    +0.000 A 
ATOM     24  C   UNL     1      -1.651  10.626  18.325  0.00  0.00    +0.000 A 
ATOM     25  C   UNL     1      -1.507  11.807  19.088  0.00  0.00    +0.000 A 
ATOM     26  C   UNL     1      -0.216  12.226  19.481  0.00  0.00    +0.000 A 
ATOM     27  C   UNL     1       0.891  11.426  19.170  0.00  0.00    +0.000 A 
BRANCH  24  28
ATOM     28  O   UNL     1      -2.916  10.233  17.954  0.00  0.00    +0.000 OA
ATOM     29  C   UNL     1      -3.186  10.286  16.550  0.00  0.00    +0.000 C 
ENDBRANCH  24  28
BRANCH  25  30
ATOM     30  O   UNL     1      -2.677  12.489  19.329  0.00  0.00    +0.000 OA
ATOM     31  C   UNL     1      -3.131  12.542  20.676  0.00  0.00    +0.000 C 
ENDBRANCH  25  30
BRANCH  26  32
ATOM     32  O   UNL     1      -0.096  13.421  20.146  0.00  0.00    +0.000 OA
ATOM     33  C   UNL     1       0.500  13.417  21.438  0.00  0.00    +0.000 C 
ENDBRANCH  26  32
ENDBRANCH  20  22
ENDBRANCH   3  20
TORSDOF 8
ENDMDL
MODEL 5
REMARK VINA RESULT:      -7.0      0.912      2.748
REMARK  Name = 
REMARK  12 active torsions:
REMARK  status: ('A' for Active; 'I' for Inactive)
REMARK    1  A    between atoms: C_1  and  O_2
REMARK    2  A    between atoms: O_2  and  C_3
REMARK    3  A    between atoms: C_8  and  N_9
REMARK    4  A    between atoms: C_11  and  C_12
REMARK    5  A    between atoms: C_12  and  C_14
REMARK    6  A    between atoms: C_16  and  O_17
REMARK    7  A    between atoms: O_17  and  C_18
REMARK    8  A    between atoms: C_19  and  O_20
REMARK    9  A    between atoms: O_20  and  C_21
REMARK   10  A    between atoms: C_22  and  O_23
REMARK   11  A    between atoms: O_23  and  C_24
REMARK   12  A    between atoms: C_26  and  C_27
REMARK                            x       y       z     vdW  Elec       q    Type
REMARK                         _______ _______ _______ _____ _____    ______ ____
ROOT
ATOM      1  N   UNL     1       2.505   6.879  18.346  0.00  0.00    +0.000 N 
ATOM      2  C   UNL     1       2.187   8.072  17.736  0.00  0.00    +0.000 A 
ATOM      3  C   UNL     1       1.635   8.949  18.667  0.00  0.00    +0.000 A 
ATOM      4  C   UNL     1       1.504   8.217  19.885  0.00  0.00    +0.000 A 
ATOM      5  C   UNL     1       2.038   6.966  19.646  0.00  0.00    +0.000 A 
ENDROOT
BRANCH   1  11
ATOM      6  C   UNL     1       4.590   5.862  17.396  0.00  0.00    +0.000 A 
ATOM      7  C   UNL     1       5.237   4.701  16.936  0.00  0.00    +0.000 A 
ATOM      8  C   UNL     1       4.561   3.485  16.834  0.00  0.00    +0.000 A 
ATOM      9  C   UNL     1       3.230   3.405  17.207  0.00  0.00    +0.000 A 
ATOM     10  C   UNL     1       2.577   4.537  17.692  0.00  0.00    +0.000 A 
ATOM     11  C   UNL     1       3.246   5.775  17.805  0.00  0.00    +0.000 A 
BRANCH   6  13
ATOM     12  C   UNL     1       6.655   7.016  17.270  0.00  0.00    +0.000 C 
ATOM     13  O   UNL     1       5.237   7.070  17.440  0.00  0.00    +0.000 OA
ENDBRANCH   6  13
ENDBRANCH   1  11
BRANCH   4  14
ATOM     14  C   UNL     1       0.975   8.613  21.186  0.00  0.00    +0.000 A 
ATOM     15  C   UNL     1      -0.407   8.691  21.407  0.00  0.00    +0.000 A 
ATOM     16  C   UNL     1      -0.911   9.141  22.631  0.00  0.00    +0.000 A 
ATOM     17  C   UNL     1      -0.038   9.523  23.645  0.00  0.00    +0.000 A 
ATOM     18  C   UNL     1       1.332   9.423  23.453  0.00  0.00    +0.000 A 
ATOM     19  C   UNL     1       1.837   8.955  22.239  0.00  0.00    +0.000 A 
ENDBRANCH   4  14
BRANCH   3  20
ATOM     20  C   UNL     1       1.272  10.344  18.411  0.00  0.00    +0.000 C 
ATOM     21  O   UNL     1       2.102  11.237  18.271  0.00  0.00    +0.000 OA
BRANCH  20  22
ATOM     22  C   UNL     1      -0.171  10.694  18.272  0.00  0.00    +0.000 A 
ATOM     23  C   UNL     1      -0.953  10.109  17.282  0.00  0.00    +0.000 A 
ATOM     24  C   UNL     1      -2.326  10.337  17.231  0.00  0.00    +0.000 A 
ATOM     25  C   UNL     1      -2.915  11.270  18.113  0.00  0.00    +0.000 A 
ATOM     26  C   UNL     1      -2.101  11.955  19.044  0.00  0.00    +0.000 A 
ATOM     27  C   UNL     1      -0.738  11.643  19.126  0.00  0.00    +0.000 A 
BRANCH  24  28
ATOM     28  O   UNL     1      -3.134   9.678  16.334  0.00  0.00    +0.000 OA
ATOM     29  C   UNL     1      -3.074  10.160  14.988  0.00  0.00    +0.000 C 
ENDBRANCH  24  28
BRANCH  25  30
ATOM     30  O   UNL     1      -4.263  11.472  17.929  0.00  0.00    +0.000 OA
ATOM     31  C   UNL     1      -5.150  10.702  18.733  0.00  0.00    +0.000 C 
ENDBRANCH  25  30
BRANCH  26  32
ATOM     32  O   UNL     1      -2.684  12.919  19.829  0.00  0.00    +0.000 OA
ATOM     33  C   UNL     1      -2.923  12.619  21.199  0.00  0.00    +0.000 C 
ENDBRANCH  26  32
ENDBRANCH  20  22
ENDBRANCH   3  20
TORSDOF 8
ENDMDL
MODEL 6
REMARK VINA RESULT:      -6.9      1.583      2.488
REMARK  Name = 
REMARK  12 active torsions:
REMARK  status: ('A' for Active; 'I' for Inactive)
REMARK    1  A    between atoms: C_1  and  O_2
REMARK    2  A    between atoms: O_2  and  C_3
REMARK    3  A    between atoms: C_8  and  N_9
REMARK    4  A    between atoms: C_11  and  C_12
REMARK    5  A    between atoms: C_12  and  C_14
REMARK    6  A    between atoms: C_16  and  O_17
REMARK    7  A    between atoms: O_17  and  C_18
REMARK    8  A    between atoms: C_19  and  O_20
REMARK    9  A    between atoms: O_20  and  C_21
REMARK   10  A    between atoms: C_22  and  O_23
REMARK   11  A    between atoms: O_23  and  C_24
REMARK   12  A    between atoms: C_26  and  C_27
REMARK                            x       y       z     vdW  Elec       q    Type
REMARK                         _______ _______ _______ _____ _____    ______ ____
ROOT
ATOM      1  N   UNL     1       2.394   5.551  18.987  0.00  0.00    +0.000 N 
ATOM      2  C   UNL     1       2.439   6.608  18.105  0.00  0.00    +0.000 A 
ATOM      3  C   UNL     1       2.034   7.777  18.743  0.00  0.00    +0.000 A 
ATOM      4  C   UNL     1       1.610   7.398  20.052  0.00  0.00    +0.000 A 
ATOM      5  C   UNL     1       1.840   6.040  20.158  0.00  0.00    +0.000 A 
ENDROOT
BRANCH   1  11
ATOM      6  C   UNL     1       4.188   3.809  19.153  0.00  0.00    +0.000 A 
ATOM      7  C   UNL     1       4.548   2.460  18.981  0.00  0.00    +0.000 A 
ATOM      8  C   UNL     1       3.661   1.537  18.427  0.00  0.00    +0.000 A 
ATOM      9  C   UNL     1       2.391   1.944  18.051  0.00  0.00    +0.000 A 
ATOM     10  C   UNL     1       2.005   3.270  18.238  0.00  0.00    +0.000 A 
ATOM     11  C   UNL     1       2.888   4.217  18.800  0.00  0.00    +0.000 A 
BRANCH   6  13
ATOM     12  C   UNL     1       6.041   5.216  18.704  0.00  0.00    +0.000 C 
ATOM     13  O   UNL     1       5.080   4.729  19.643  0.00  0.00    +0.000 OA
ENDBRANCH   6  13
ENDBRANCH   1  11
BRANCH   4  14
ATOM     14  C   UNL     1       1.072   8.194  21.152  0.00  0.00    +0.000 A 
ATOM     15  C   UNL     1       1.925   8.842  22.055  0.00  0.00    +0.000 A 
ATOM     16  C   UNL     1       1.408   9.543  23.149  0.00  0.00    +0.000 A 
ATOM     17  C   UNL     1       0.033   9.598  23.354  0.00  0.00    +0.000 A 
ATOM     18  C   UNL     1      -0.826   8.988  22.452  0.00  0.00    +0.000 A 
ATOM     19  C   UNL     1      -0.312   8.304  21.348  0.00  0.00    +0.000 A 
ENDBRANCH   4  14
BRANCH   3  20
ATOM     20  C   UNL     1       2.052   9.118  18.156  0.00  0.00    +0.000 C 
ATOM     21  O   UNL     1       2.951   9.516  17.422  0.00  0.00    +0.000 OA
BRANCH  20  22
ATOM     22  C   UNL     1       0.905  10.033  18.426  0.00  0.00    +0.000 A 
ATOM     23  C   UNL     1       1.081  11.192  19.176  0.00  0.00    +0.000 A 
ATOM     24  C   UNL     1       0.044  12.110  19.321  0.00  0.00    +0.000 A 
ATOM     25  C   UNL     1      -1.238  11.807  18.811  0.00  0.00    +0.000 A 
ATOM     26  C   UNL     1      -1.448  10.575  18.150  0.00  0.00    +0.000 A 
ATOM     27  C   UNL     1      -0.367   9.710  17.948  0.00  0.00    +0.000 A 
BRANCH  24  28
ATOM     28  O   UNL     1       0.231  13.315  19.960  0.00  0.00    +0.000 OA
ATOM     29  C   UNL     1       0.890  14.322  19.186  0.00  0.00    +0.000 C 
ENDBRANCH  24  28
BRANCH  25  30
ATOM     30  O   UNL     1      -2.205  12.750  19.073  0.00  0.00    +0.000 OA
ATOM     31  C   UNL     1      -3.005  12.553  20.233  0.00  0.00    +0.000 C 
ENDBRANCH  25  30
BRANCH  26  32
ATOM     32  O   UNL     1      -2.723  10.268  17.742  0.00  0.00    +0.000 OA
ATOM     33  C   UNL     1      -2.942   9.999  16.362  0.00  0.00    +0.000 C 
ENDBRANCH  26  32
ENDBRANCH  20  22
ENDBRANCH   3  20
TORSDOF 8
ENDMDL
MODEL 7
REMARK VINA RESULT:      -6.9      2.536      7.854
REMARK  Name = 
REMARK  12 active torsions:
REMARK  status: ('A' for Active; 'I' for Inactive)
REMARK    1  A    between atoms: C_1  and  O_2
REMARK    2  A    between atoms: O_2  and  C_3
REMARK    3  A    between atoms: C_8  and  N_9
REMARK    4  A    between atoms: C_11  and  C_12
REMARK    5  A    between atoms: C_12  and  C_14
REMARK    6  A    between atoms: C_16  and  O_17
REMARK    7  A    between atoms: O_17  and  C_18
REMARK    8  A    between atoms: C_19  and  O_20
REMARK    9  A    between atoms: O_20  and  C_21
REMARK   10  A    between atoms: C_22  and  O_23
REMARK   11  A    between atoms: O_23  and  C_24
REMARK   12  A    between atoms: C_26  and  C_27
REMARK                            x       y       z     vdW  Elec       q    Type
REMARK                         _______ _______ _______ _____ _____    ______ ____
ROOT
ATOM      1  N   UNL     1      -1.598  11.323  18.662  0.00  0.00    +0.000 N 
ATOM      2  C   UNL     1      -1.045  10.254  19.331  0.00  0.00    +0.000 A 
ATOM      3  C   UNL     1       0.232  10.584  19.780  0.00  0.00    +0.000 A 
ATOM      4  C   UNL     1       0.520  11.883  19.263  0.00  0.00    +0.000 A 
ATOM      5  C   UNL     1      -0.613  12.292  18.587  0.00  0.00    +0.000 A 
ENDROOT
BRANCH   1  11
ATOM      6  C   UNL     1      -3.375  11.090  16.910  0.00  0.00    +0.000 A 
ATOM      7  C   UNL     1      -4.735  11.229  16.577  0.00  0.00    +0.000 A 
ATOM      8  C   UNL     1      -5.649  11.783  17.475  0.00  0.00    +0.000 A 
ATOM      9  C   UNL     1      -5.222  12.191  18.727  0.00  0.00    +0.000 A 
ATOM     10  C   UNL     1      -3.885  12.036  19.087  0.00  0.00    +0.000 A 
ATOM     11  C   UNL     1      -2.947  11.476  18.194  0.00  0.00    +0.000 A 
BRANCH   6  13
ATOM     12  C   UNL     1      -2.990  10.278  14.718  0.00  0.00    +0.000 C 
ATOM     13  O   UNL     1      -2.466  10.601  16.008  0.00  0.00    +0.000 OA
ENDBRANCH   6  13
ENDBRANCH   1  11
BRANCH   4  14
ATOM     14  C   UNL     1       1.708  12.722  19.392  0.00  0.00    +0.000 A 
ATOM     15  C   UNL     1       2.109  13.214  20.641  0.00  0.00    +0.000 A 
ATOM     16  C   UNL     1       3.204  14.076  20.751  0.00  0.00    +0.000 A 
ATOM     17  C   UNL     1       3.905  14.460  19.613  0.00  0.00    +0.000 A 
ATOM     18  C   UNL     1       3.540  13.958  18.373  0.00  0.00    +0.000 A 
ATOM     19  C   UNL     1       2.459  13.081  18.263  0.00  0.00    +0.000 A 
ENDBRANCH   4  14
BRANCH   3  20
ATOM     20  C   UNL     1       1.084   9.740  20.620  0.00  0.00    +0.000 C 
ATOM     21  O   UNL     1       1.368  10.019  21.780  0.00  0.00    +0.000 OA
BRANCH  20  22
ATOM     22  C   UNL     1       1.600   8.459  20.055  0.00  0.00    +0.000 A 
ATOM     23  C   UNL     1       2.172   8.420  18.787  0.00  0.00    +0.000 A 
ATOM     24  C   UNL     1       2.768   7.255  18.311  0.00  0.00    +0.000 A 
ATOM     25  C   UNL     1       2.684   6.065  19.066  0.00  0.00    +0.000 A 
ATOM     26  C   UNL     1       2.000   6.075  20.304  0.00  0.00    +0.000 A 
ATOM     27  C   UNL     1       1.482   7.280  20.793  0.00  0.00    +0.000 A 
BRANCH  24  28
ATOM     28  O   UNL     1       3.440   7.227  17.110  0.00  0.00    +0.000 OA
ATOM     29  C   UNL     1       4.864   7.328  17.203  0.00  0.00    +0.000 C 
ENDBRANCH  24  28
BRANCH  25  30
ATOM     30  O   UNL     1       3.243   4.958  18.470  0.00  0.00    +0.000 OA
ATOM     31  C   UNL     1       4.403   4.408  19.084  0.00  0.00    +0.000 C 
ENDBRANCH  25  30
BRANCH  26  32
ATOM     32  O   UNL     1       1.858   4.885  20.975  0.00  0.00    +0.000 OA
ATOM     33  C   UNL     1       0.922   3.937  20.474  0.00  0.00    +0.000 C 
ENDBRANCH  26  32
ENDBRANCH  20  22
ENDBRANCH   3  20
TORSDOF 8
ENDMDL
MODEL 8
REMARK VINA RESULT:      -6.8      0.912      1.106
REMARK  Name = 
REMARK  12 active torsions:
REMARK  status: ('A' for Active; 'I' for Inactive)
REMARK    1  A    between atoms: C_1  and  O_2
REMARK    2  A    between atoms: O_2  and  C_3
REMARK    3  A    between atoms: C_8  and  N_9
REMARK    4  A    between atoms: C_11  and  C_12
REMARK    5  A    between atoms: C_12  and  C_14
REMARK    6  A    between atoms: C_16  and  O_17
REMARK    7  A    between atoms: O_17  and  C_18
REMARK    8  A    between atoms: C_19  and  O_20
REMARK    9  A    between atoms: O_20  and  C_21
REMARK   10  A    between atoms: C_22  and  O_23
REMARK   11  A    between atoms: O_23  and  C_24
REMARK   12  A    between atoms: C_26  and  C_27
REMARK                            x       y       z     vdW  Elec       q    Type
REMARK                         _______ _______ _______ _____ _____    ______ ____
ROOT
ATOM      1  N   UNL     1       2.650   6.933  18.318  0.00  0.00    +0.000 N 
ATOM      2  C   UNL     1       2.433   8.160  17.730  0.00  0.00    +0.000 A 
ATOM      3  C   UNL     1       1.863   9.034  18.653  0.00  0.00    +0.000 A 
ATOM      4  C   UNL     1       1.615   8.271  19.834  0.00  0.00    +0.000 A 
ATOM      5  C   UNL     1       2.101   7.002  19.587  0.00  0.00    +0.000 A 
ENDROOT
BRANCH   1  11
ATOM      6  C   UNL     1       2.827   4.516  17.679  0.00  0.00    +0.000 A 
ATOM      7  C   UNL     1       3.601   3.501  17.086  0.00  0.00    +0.000 A 
ATOM      8  C   UNL     1       4.905   3.743  16.653  0.00  0.00    +0.000 A 
ATOM      9  C   UNL     1       5.451   5.009  16.787  0.00  0.00    +0.000 A 
ATOM     10  C   UNL     1       4.691   6.035  17.346  0.00  0.00    +0.000 A 
ATOM     11  C   UNL     1       3.370   5.810  17.787  0.00  0.00    +0.000 A 
BRANCH   6  13
ATOM     12  C   UNL     1       1.351   2.944  18.659  0.00  0.00    +0.000 C 
ATOM     13  O   UNL     1       1.567   4.264  18.159  0.00  0.00    +0.000 OA
ENDBRANCH   6  13
ENDBRANCH   1  11
BRANCH   4  14
ATOM     14  C   UNL     1       1.020   8.652  21.111  0.00  0.00    +0.000 A 
ATOM     15  C   UNL     1      -0.370   8.629  21.293  0.00  0.00    +0.000 A 
ATOM     16  C   UNL     1      -0.941   9.064  22.492  0.00  0.00    +0.000 A 
ATOM     17  C   UNL     1      -0.130   9.533  23.520  0.00  0.00    +0.000 A 
ATOM     18  C   UNL     1       1.249   9.534  23.368  0.00  0.00    +0.000 A 
ATOM     19  C   UNL     1       1.823   9.081  22.178  0.00  0.00    +0.000 A 
ENDBRANCH   4  14
BRANCH   3  20
ATOM     20  C   UNL     1       1.588  10.453  18.424  0.00  0.00    +0.000 C 
ATOM     21  O   UNL     1       2.410  11.225  17.941  0.00  0.00    +0.000 OA
BRANCH  20  22
ATOM     22  C   UNL     1       0.232  10.981  18.753  0.00  0.00    +0.000 A 
ATOM     23  C   UNL     1       0.074  12.012  19.675  0.00  0.00    +0.000 A 
ATOM     24  C   UNL     1      -1.173  12.591  19.888  0.00  0.00    +0.000 A 
ATOM     25  C   UNL     1      -2.316  12.048  19.259  0.00  0.00    +0.000 A 
ATOM     26  C   UNL     1      -2.174  10.925  18.413  0.00  0.00    +0.000 A 
ATOM     27  C   UNL     1      -0.896  10.416  18.154  0.00  0.00    +0.000 A 
BRANCH  24  28
ATOM     28  O   UNL     1      -1.331  13.686  20.707  0.00  0.00    +0.000 OA
ATOM     29  C   UNL     1      -0.937  14.938  20.136  0.00  0.00    +0.000 C 
ENDBRANCH  24  28
BRANCH  25  30
ATOM     30  O   UNL     1      -3.506  12.651  19.596  0.00  0.00    +0.000 OA
ATOM     31  C   UNL     1      -4.093  12.278  20.836  0.00  0.00    +0.000 C 
ENDBRANCH  25  30
BRANCH  26  32
ATOM     32  O   UNL     1      -3.310  10.363  17.885  0.00  0.00    +0.000 OA
ATOM     33  C   UNL     1      -3.762  10.822  16.615  0.00  0.00    +0.000 C 
ENDBRANCH  26  32
ENDBRANCH  20  22
ENDBRANCH   3  20
TORSDOF 8
ENDMDL
MODEL 9
REMARK VINA RESULT:      -6.8      0.909      2.343
REMARK  Name = 
REMARK  12 active torsions:
REMARK  status: ('A' for Active; 'I' for Inactive)
REMARK    1  A    between atoms: C_1  and  O_2
REMARK    2  A    between atoms: O_2  and  C_3
REMARK    3  A    between atoms: C_8  and  N_9
REMARK    4  A    between atoms: C_11  and  C_12
REMARK    5  A    between atoms: C_12  and  C_14
REMARK    6  A    between atoms: C_16  and  O_17
REMARK    7  A    between atoms: O_17  and  C_18
REMARK    8  A    between atoms: C_19  and  O_20
REMARK    9  A    between atoms: O_20  and  C_21
REMARK   10  A    between atoms: C_22  and  O_23
REMARK   11  A    between atoms: O_23  and  C_24
REMARK   12  A    between atoms: C_26  and  C_27
REMARK                            x       y       z     vdW  Elec       q    Type
REMARK                         _______ _______ _______ _____ _____    ______ ____
ROOT
ATOM      1  N   UNL     1       2.665   7.007  18.252  0.00  0.00    +0.000 N 
ATOM      2  C   UNL     1       2.472   8.247  17.685  0.00  0.00    +0.000 A 
ATOM      3  C   UNL     1       1.901   9.111  18.617  0.00  0.00    +0.000 A 
ATOM      4  C   UNL     1       1.626   8.329  19.778  0.00  0.00    +0.000 A 
ATOM      5  C   UNL     1       2.099   7.059  19.514  0.00  0.00    +0.000 A 
ENDROOT
BRANCH   1  11
ATOM      6  C   UNL     1       2.846   4.584  17.638  0.00  0.00    +0.000 A 
ATOM      7  C   UNL     1       3.609   3.570  17.031  0.00  0.00    +0.000 A 
ATOM      8  C   UNL     1       4.893   3.820  16.546  0.00  0.00    +0.000 A 
ATOM      9  C   UNL     1       5.429   5.093  16.643  0.00  0.00    +0.000 A 
ATOM     10  C   UNL     1       4.679   6.119  17.216  0.00  0.00    +0.000 A 
ATOM     11  C   UNL     1       3.377   5.885  17.710  0.00  0.00    +0.000 A 
BRANCH   6  13
ATOM     12  C   UNL     1       1.344   2.954  18.476  0.00  0.00    +0.000 C 
ATOM     13  O   UNL     1       1.608   4.324  18.168  0.00  0.00    +0.000 OA
ENDBRANCH   6  13
ENDBRANCH   1  11
BRANCH   4  14
ATOM     14  C   UNL     1       1.017   8.694  21.055  0.00  0.00    +0.000 A 
ATOM     15  C   UNL     1      -0.376   8.720  21.206  0.00  0.00    +0.000 A 
ATOM     16  C   UNL     1      -0.957   9.141  22.406  0.00  0.00    +0.000 A 
ATOM     17  C   UNL     1      -0.151   9.544  23.466  0.00  0.00    +0.000 A 
ATOM     18  C   UNL     1       1.230   9.494  23.343  0.00  0.00    +0.000 A 
ATOM     19  C   UNL     1       1.812   9.057  22.152  0.00  0.00    +0.000 A 
ENDBRANCH   4  14
BRANCH   3  20
ATOM     20  C   UNL     1       1.647  10.538  18.411  0.00  0.00    +0.000 C 
ATOM     21  O   UNL     1       2.496  11.315  17.985  0.00  0.00    +0.000 OA
BRANCH  20  22
ATOM     22  C   UNL     1       0.282  11.070  18.692  0.00  0.00    +0.000 A 
ATOM     23  C   UNL     1      -0.835  10.532  18.061  0.00  0.00    +0.000 A 
ATOM     24  C   UNL     1      -2.118  10.939  18.416  0.00  0.00    +0.000 A 
ATOM     25  C   UNL     1      -2.289  11.999  19.335  0.00  0.00    +0.000 A 
ATOM     26  C   UNL     1      -1.150  12.627  19.889  0.00  0.00    +0.000 A 
ATOM     27  C   UNL     1       0.124  12.141  19.575  0.00  0.00    +0.000 A 
BRANCH  24  28
ATOM     28  O   UNL     1      -3.238  10.339  17.889  0.00  0.00    +0.000 OA
ATOM     29  C   UNL     1      -3.072   9.770  16.587  0.00  0.00    +0.000 C 
ENDBRANCH  24  28
BRANCH  25  30
ATOM     30  O   UNL     1      -3.595  12.368  19.559  0.00  0.00    +0.000 OA
ATOM     31  C   UNL     1      -4.022  12.451  20.914  0.00  0.00    +0.000 C 
ENDBRANCH  25  30
BRANCH  26  32
ATOM     32  O   UNL     1      -1.343  13.710  20.711  0.00  0.00    +0.000 OA
ATOM     33  C   UNL     1      -0.970  14.996  20.229  0.00  0.00    +0.000 C 
ENDBRANCH  26  32
ENDBRANCH  20  22
ENDBRANCH   3  20
TORSDOF 8
ENDMDL
