MODEL 1
REMARK VINA RESULT:      -7.3      0.000      0.000
REMARK  Name = 
REMARK  7 active torsions:
REMARK  status: ('A' for Active; 'I' for Inactive)
REMARK    1  A    between atoms: C_1  and  O_2
REMARK    2  A    between atoms: O_2  and  C_3
REMARK    3  A    between atoms: N_8  and  N_9
REMARK    4  A    between atoms: N_11  and  O_12
REMARK    5  A    between atoms: O_12  and  C_13
REMARK    6  A    between atoms: C_16  and  N_17
REMARK    7  A    between atoms: C_21  and  N_22
REMARK                            x       y       z     vdW  Elec       q    Type
REMARK                         _______ _______ _______ _____ _____    ______ ____
ROOT
ATOM      1  N   UNL     1       2.580   5.616  19.423  0.00  0.00    +0.000 N 
ATOM      2  O   UNL     1       2.279   4.392  19.241  0.00  0.00    +0.000 OA
ATOM      3  N   UNL     1       1.736   6.388  19.986  0.00  0.00    +0.000 NA
ENDROOT
BRANCH   1   9
ATOM      4  C   UNL     1       6.981   4.882  16.564  0.00  0.00    +0.000 C 
ATOM      5  O   UNL     1       7.989   4.373  17.037  0.00  0.00    +0.000 OA
ATOM      6  N   UNL     1       5.739   4.841  17.167  0.00  0.00    +0.000 N 
ATOM      7  C   UNL     1       5.572   4.233  18.488  0.00  0.00    +0.000 C 
ATOM      8  C   UNL     1       5.014   5.261  19.492  0.00  0.00    +0.000 C 
ATOM      9  N   UNL     1       3.853   6.008  18.981  0.00  0.00    +0.000 N 
ATOM     10  C   UNL     1       4.005   6.542  17.624  0.00  0.00    +0.000 C 
ATOM     11  C   UNL     1       4.540   5.487  16.634  0.00  0.00    +0.000 C 
BRANCH   4  13
ATOM     12  C   UNL     1       7.034   4.744  14.213  0.00  0.00    +0.000 C 
ATOM     13  O   UNL     1       6.963   5.562  15.385  0.00  0.00    +0.000 OA
ENDBRANCH   4  13
ENDBRANCH   1   9
BRANCH   3  14
ATOM     14  O   UNL     1       2.260   7.650  20.313  0.00  0.00    +0.000 OA
BRANCH  14  15
ATOM     15  C   UNL     1       1.457   8.658  19.804  0.00  0.00    +0.000 A 
ATOM     16  C   UNL     1       1.471   8.980  18.433  0.00  0.00    +0.000 A 
ATOM     17  C   UNL     1       0.647   9.982  17.910  0.00  0.00    +0.000 A 
ATOM     18  C   UNL     1      -0.209  10.686  18.758  0.00  0.00    +0.000 A 
ATOM     19  C   UNL     1      -0.229  10.406  20.129  0.00  0.00    +0.000 A 
ATOM     20  C   UNL     1       0.616   9.403  20.654  0.00  0.00    +0.000 A 
BRANCH  18  21
ATOM     21  N   UNL     1      -1.086  11.729  18.193  0.00  0.00    +0.000 N 
ATOM     22  O   UNL     1      -2.156  11.369  17.693  0.00  0.00    +0.000 OA
ATOM     23  O   UNL     1      -0.686  12.898  18.259  0.00  0.00    +0.000 OA
ENDBRANCH  18  21
BRANCH  20  24
ATOM     24  N   UNL     1       0.596   9.190  22.113  0.00  0.00    +0.000 N 
ATOM     25  O   UNL     1       1.599   9.491  22.770  0.00  0.00    +0.000 OA
ATOM     26  O   UNL     1      -0.446   8.744  22.606  0.00  0.00    +0.000 OA
ENDBRANCH  20  24
ENDBRANCH  14  15
ENDBRANCH   3  14
TORSDOF 6
ENDMDL
MODEL 2
REMARK VINA RESULT:      -7.2      1.918      3.107
REMARK  Name = 
REMARK  7 active torsions:
REMARK  status: ('A' for Active; 'I' for Inactive)
REMARK    1  A    between atoms: C_1  and  O_2
REMARK    2  A    between atoms: O_2  and  C_3
REMARK    3  A    between atoms: N_8  and  N_9
REMARK    4  A    between atoms: N_11  and  O_12
REMARK    5  A    between atoms: O_12  and  C_13
REMARK    6  A    between atoms: C_16  and  N_17
REMARK    7  A    between atoms: C_21  and  N_22
REMARK                            x       y       z     vdW  Elec       q    Type
REMARK                         _______ _______ _______ _____ _____    ______ ____
ROOT
ATOM      1  N   UNL     1       4.003   5.717  19.255  0.00  0.00    +0.000 N 
ATOM      2  O   UNL     1       4.821   4.984  19.897  0.00  0.00    +0.000 OA
ATOM      3  N   UNL     1       3.065   6.306  19.888  0.00  0.00    +0.000 NA
ENDROOT
BRANCH   1   9
ATOM      4  C   UNL     1       6.746   4.637  14.852  0.00  0.00    +0.000 C 
ATOM      5  O   UNL     1       7.598   5.398  14.412  0.00  0.00    +0.000 OA
ATOM      6  N   UNL     1       6.211   4.729  16.122  0.00  0.00    +0.000 N 
ATOM      7  C   UNL     1       6.589   5.829  17.012  0.00  0.00    +0.000 C 
ATOM      8  C   UNL     1       5.350   6.649  17.419  0.00  0.00    +0.000 C 
ATOM      9  N   UNL     1       4.222   5.819  17.873  0.00  0.00    +0.000 N 
ATOM     10  C   UNL     1       3.906   4.674  17.013  0.00  0.00    +0.000 C 
ATOM     11  C   UNL     1       5.160   3.856  16.641  0.00  0.00    +0.000 C 
BRANCH   4  13
ATOM     12  C   UNL     1       6.325   3.733  12.718  0.00  0.00    +0.000 C 
ATOM     13  O   UNL     1       6.214   3.607  14.139  0.00  0.00    +0.000 OA
ENDBRANCH   4  13
ENDBRANCH   1   9
BRANCH   3  14
ATOM     14  O   UNL     1       2.362   7.240  19.109  0.00  0.00    +0.000 OA
BRANCH  14  15
ATOM     15  C   UNL     1       1.682   8.136  19.919  0.00  0.00    +0.000 A 
ATOM     16  C   UNL     1       1.524   7.900  21.298  0.00  0.00    +0.000 A 
ATOM     17  C   UNL     1       0.858   8.811  22.124  0.00  0.00    +0.000 A 
ATOM     18  C   UNL     1       0.331   9.982  21.578  0.00  0.00    +0.000 A 
ATOM     19  C   UNL     1       0.451  10.235  20.207  0.00  0.00    +0.000 A 
ATOM     20  C   UNL     1       1.112   9.305  19.375  0.00  0.00    +0.000 A 
BRANCH  18  21
ATOM     21  N   UNL     1      -0.354  10.943  22.461  0.00  0.00    +0.000 N 
ATOM     22  O   UNL     1      -1.079  10.488  23.352  0.00  0.00    +0.000 OA
ATOM     23  O   UNL     1      -0.156  12.146  22.248  0.00  0.00    +0.000 OA
ENDBRANCH  18  21
BRANCH  20  24
ATOM     24  N   UNL     1       1.158   9.594  17.930  0.00  0.00    +0.000 N 
ATOM     25  O   UNL     1       0.147   9.381  17.251  0.00  0.00    +0.000 OA
ATOM     26  O   UNL     1       2.208  10.066  17.481  0.00  0.00    +0.000 OA
ENDBRANCH  20  24
ENDBRANCH  14  15
ENDBRANCH   3  14
TORSDOF 6
ENDMDL
MODEL 3
REMARK VINA RESULT:      -7.1      1.876      2.882
REMARK  Name = 
REMARK  7 active torsions:
REMARK  status: ('A' for Active; 'I' for Inactive)
REMARK    1  A    between atoms: C_1  and  O_2
REMARK    2  A    between atoms: O_2  and  C_3
REMARK    3  A    between atoms: N_8  and  N_9
REMARK    4  A    between atoms: N_11  and  O_12
REMARK    5  A    between atoms: O_12  and  C_13
REMARK    6  A    between atoms: C_16  and  N_17
REMARK    7  A    between atoms: C_21  and  N_22
REMARK                            x       y       z     vdW  Elec       q    Type
REMARK                         _______ _______ _______ _____ _____    ______ ____
ROOT
ATOM      1  N   UNL     1       2.583   5.586  19.965  0.00  0.00    +0.000 N 
ATOM      2  O   UNL     1       2.609   4.406  20.443  0.00  0.00    +0.000 OA
ATOM      3  N   UNL     1       1.846   6.467  20.520  0.00  0.00    +0.000 NA
ENDROOT
BRANCH   1   9
ATOM      4  C   UNL     1       6.499   4.227  16.665  0.00  0.00    +0.000 C 
ATOM      5  O   UNL     1       7.643   4.643  16.803  0.00  0.00    +0.000 OA
ATOM      6  N   UNL     1       5.522   4.318  17.636  0.00  0.00    +0.000 N 
ATOM      7  C   UNL     1       5.787   5.013  18.898  0.00  0.00    +0.000 C 
ATOM      8  C   UNL     1       4.804   6.183  19.090  0.00  0.00    +0.000 C 
ATOM      9  N   UNL     1       3.399   5.815  18.848  0.00  0.00    +0.000 N 
ATOM     10  C   UNL     1       3.161   5.049  17.619  0.00  0.00    +0.000 C 
ATOM     11  C   UNL     1       4.142   3.869  17.464  0.00  0.00    +0.000 C 
BRANCH   4  13
ATOM     12  C   UNL     1       6.374   4.311  14.314  0.00  0.00    +0.000 C 
ATOM     13  O   UNL     1       6.048   3.629  15.529  0.00  0.00    +0.000 OA
ENDBRANCH   4  13
ENDBRANCH   1   9
BRANCH   3  14
ATOM     14  O   UNL     1       2.061   7.767  20.033  0.00  0.00    +0.000 OA
BRANCH  14  15
ATOM     15  C   UNL     1       1.296   8.683  20.736  0.00  0.00    +0.000 A 
ATOM     16  C   UNL     1       1.011   8.500  22.104  0.00  0.00    +0.000 A 
ATOM     17  C   UNL     1       0.258   9.433  22.824  0.00  0.00    +0.000 A 
ATOM     18  C   UNL     1      -0.230  10.572  22.182  0.00  0.00    +0.000 A 
ATOM     19  C   UNL     1       0.016  10.771  20.819  0.00  0.00    +0.000 A 
ATOM     20  C   UNL     1       0.765   9.819  20.093  0.00  0.00    +0.000 A 
BRANCH  18  21
ATOM     21  N   UNL     1      -1.008  11.556  22.956  0.00  0.00    +0.000 N 
ATOM     22  O   UNL     1      -2.110  11.204  23.389  0.00  0.00    +0.000 OA
ATOM     23  O   UNL     1      -0.503  12.674  23.117  0.00  0.00    +0.000 OA
ENDBRANCH  18  21
BRANCH  20  24
ATOM     24  N   UNL     1       0.944  10.050  18.648  0.00  0.00    +0.000 N 
ATOM     25  O   UNL     1       0.092   9.611  17.867  0.00  0.00    +0.000 OA
ATOM     26  O   UNL     1       1.933  10.703  18.298  0.00  0.00    +0.000 OA
ENDBRANCH  20  24
ENDBRANCH  14  15
ENDBRANCH   3  14
TORSDOF 6
ENDMDL
MODEL 4
REMARK VINA RESULT:      -7.1      2.330      8.155
REMARK  Name = 
REMARK  7 active torsions:
REMARK  status: ('A' for Active; 'I' for Inactive)
REMARK    1  A    between atoms: C_1  and  O_2
REMARK    2  A    between atoms: O_2  and  C_3
REMARK    3  A    between atoms: N_8  and  N_9
REMARK    4  A    between atoms: N_11  and  O_12
REMARK    5  A    between atoms: O_12  and  C_13
REMARK    6  A    between atoms: C_16  and  N_17
REMARK    7  A    between atoms: C_21  and  N_22
REMARK                            x       y       z     vdW  Elec       q    Type
REMARK                         _______ _______ _______ _____ _____    ______ ____
ROOT
ATOM      1  N   UNL     1       2.807   4.590  18.054  0.00  0.00    +0.000 N 
ATOM      2  O   UNL     1       1.586   4.455  17.718  0.00  0.00    +0.000 OA
ATOM      3  N   UNL     1       3.662   3.733  17.653  0.00  0.00    +0.000 NA
ENDROOT
BRANCH   1   9
ATOM      4  C   UNL     1       1.407   8.911  20.783  0.00  0.00    +0.000 C 
ATOM      5  O   UNL     1       1.444  10.032  20.292  0.00  0.00    +0.000 OA
ATOM      6  N   UNL     1       1.487   7.744  20.048  0.00  0.00    +0.000 N 
ATOM      7  C   UNL     1       1.708   7.788  18.601  0.00  0.00    +0.000 C 
ATOM      8  C   UNL     1       3.000   7.037  18.227  0.00  0.00    +0.000 C 
ATOM      9  N   UNL     1       3.106   5.707  18.848  0.00  0.00    +0.000 N 
ATOM     10  C   UNL     1       2.803   5.665  20.283  0.00  0.00    +0.000 C 
ATOM     11  C   UNL     1       1.493   6.402  20.627  0.00  0.00    +0.000 C 
BRANCH   4  13
ATOM     12  C   UNL     1       0.281   9.442  22.783  0.00  0.00    +0.000 C 
ATOM     13  O   UNL     1       1.291   8.676  22.118  0.00  0.00    +0.000 OA
ENDBRANCH   4  13
ENDBRANCH   1   9
BRANCH   3  14
ATOM     14  O   UNL     1       4.992   4.101  17.914  0.00  0.00    +0.000 OA
BRANCH  14  15
ATOM     15  C   UNL     1       5.674   4.335  16.731  0.00  0.00    +0.000 A 
ATOM     16  C   UNL     1       5.177   3.870  15.497  0.00  0.00    +0.000 A 
ATOM     17  C   UNL     1       5.850   4.121  14.297  0.00  0.00    +0.000 A 
ATOM     18  C   UNL     1       7.043   4.845  14.312  0.00  0.00    +0.000 A 
ATOM     19  C   UNL     1       7.575   5.301  15.524  0.00  0.00    +0.000 A 
ATOM     20  C   UNL     1       6.899   5.032  16.734  0.00  0.00    +0.000 A 
BRANCH  18  21
ATOM     21  N   UNL     1       7.735   5.119  13.039  0.00  0.00    +0.000 N 
ATOM     22  O   UNL     1       8.667   5.928  13.056  0.00  0.00    +0.000 OA
ATOM     23  O   UNL     1       7.331   4.516  12.036  0.00  0.00    +0.000 OA
ENDBRANCH  18  21
BRANCH  20  24
ATOM     24  N   UNL     1       7.534   5.484  17.985  0.00  0.00    +0.000 N 
ATOM     25  O   UNL     1       7.956   4.634  18.777  0.00  0.00    +0.000 OA
ATOM     26  O   UNL     1       7.635   6.704  18.159  0.00  0.00    +0.000 OA
ENDBRANCH  20  24
ENDBRANCH  14  15
ENDBRANCH   3  14
TORSDOF 6
ENDMDL
MODEL 5
REMARK VINA RESULT:      -7.0      1.823      2.909
REMARK  Name = 
REMARK  7 active torsions:
REMARK  status: ('A' for Active; 'I' for Inactive)
REMARK    1  A    between atoms: C_1  and  O_2
REMARK    2  A    between atoms: O_2  and  C_3
REMARK    3  A    between atoms: N_8  and  N_9
REMARK    4  A    between atoms: N_11  and  O_12
REMARK    5  A    between atoms: O_12  and  C_13
REMARK    6  A    between atoms: C_16  and  N_17
REMARK    7  A    between atoms: C_21  and  N_22
REMARK                            x       y       z     vdW  Elec       q    Type
REMARK                         _______ _______ _______ _____ _____    ______ ____
ROOT
ATOM      1  N   UNL     1       3.107   5.477  19.486  0.00  0.00    +0.000 N 
ATOM      2  O   UNL     1       3.463   4.418  20.097  0.00  0.00    +0.000 OA
ATOM      3  N   UNL     1       2.401   6.344  20.100  0.00  0.00    +0.000 NA
ENDROOT
BRANCH   1   9
ATOM      4  C   UNL     1       6.640   4.647  15.626  0.00  0.00    +0.000 C 
ATOM      5  O   UNL     1       7.484   5.481  15.323  0.00  0.00    +0.000 OA
ATOM      6  N   UNL     1       5.892   4.691  16.785  0.00  0.00    +0.000 N 
ATOM      7  C   UNL     1       6.015   5.820  17.709  0.00  0.00    +0.000 C 
ATOM      8  C   UNL     1       4.657   6.525  17.888  0.00  0.00    +0.000 C 
ATOM      9  N   UNL     1       3.547   5.598  18.159  0.00  0.00    +0.000 N 
ATOM     10  C   UNL     1       3.484   4.428  17.276  0.00  0.00    +0.000 C 
ATOM     11  C   UNL     1       4.850   3.727  17.134  0.00  0.00    +0.000 C 
BRANCH   4  13
ATOM     12  C   UNL     1       6.016   3.880  13.487  0.00  0.00    +0.000 C 
ATOM     13  O   UNL     1       6.330   3.573  14.849  0.00  0.00    +0.000 OA
ENDBRANCH   4  13
ENDBRANCH   1   9
BRANCH   3  14
ATOM     14  O   UNL     1       2.250   7.548  19.393  0.00  0.00    +0.000 OA
BRANCH  14  15
ATOM     15  C   UNL     1       1.538   8.468  20.144  0.00  0.00    +0.000 A 
ATOM     16  C   UNL     1       1.414   8.332  21.541  0.00  0.00    +0.000 A 
ATOM     17  C   UNL     1       0.715   9.269  22.308  0.00  0.00    +0.000 A 
ATOM     18  C   UNL     1       0.118  10.366  21.684  0.00  0.00    +0.000 A 
ATOM     19  C   UNL     1       0.202  10.517  20.295  0.00  0.00    +0.000 A 
ATOM     20  C   UNL     1       0.898   9.560  19.524  0.00  0.00    +0.000 A 
BRANCH  18  21
ATOM     21  N   UNL     1      -0.602  11.357  22.504  0.00  0.00    +0.000 N 
ATOM     22  O   UNL     1      -0.611  12.528  22.112  0.00  0.00    +0.000 OA
ATOM     23  O   UNL     1      -1.150  10.945  23.534  0.00  0.00    +0.000 OA
ENDBRANCH  18  21
BRANCH  20  24
ATOM     24  N   UNL     1       0.905   9.738  18.061  0.00  0.00    +0.000 N 
ATOM     25  O   UNL     1       1.985   9.942  17.494  0.00  0.00    +0.000 OA
ATOM     26  O   UNL     1      -0.178   9.642  17.474  0.00  0.00    +0.000 OA
ENDBRANCH  20  24
ENDBRANCH  14  15
ENDBRANCH   3  14
TORSDOF 6
ENDMDL
MODEL 6
REMARK VINA RESULT:      -7.0      1.564      2.814
REMARK  Name = 
REMARK  7 active torsions:
REMARK  status: ('A' for Active; 'I' for Inactive)
REMARK    1  A    between atoms: C_1  and  O_2
REMARK    2  A    between atoms: O_2  and  C_3
REMARK    3  A    between atoms: N_8  and  N_9
REMARK    4  A    between atoms: N_11  and  O_12
REMARK    5  A    between atoms: O_12  and  C_13
REMARK    6  A    between atoms: C_16  and  N_17
REMARK    7  A    between atoms: C_21  and  N_22
REMARK                            x       y       z     vdW  Elec       q    Type
REMARK                         _______ _______ _______ _____ _____    ______ ____
ROOT
ATOM      1  N   UNL     1       2.865   5.597  19.576  0.00  0.00    +0.000 N 
ATOM      2  O   UNL     1       2.716   4.387  19.943  0.00  0.00    +0.000 OA
ATOM      3  N   UNL     1       1.880   6.403  19.673  0.00  0.00    +0.000 NA
ENDROOT
BRANCH   1   9
ATOM      4  C   UNL     1       7.089   4.768  16.488  0.00  0.00    +0.000 C 
ATOM      5  O   UNL     1       8.088   4.185  16.891  0.00  0.00    +0.000 OA
ATOM      6  N   UNL     1       5.875   4.764  17.144  0.00  0.00    +0.000 N 
ATOM      7  C   UNL     1       5.732   4.105  18.444  0.00  0.00    +0.000 C 
ATOM      8  C   UNL     1       5.276   5.112  19.517  0.00  0.00    +0.000 C 
ATOM      9  N   UNL     1       4.136   5.942  19.094  0.00  0.00    +0.000 N 
ATOM     10  C   UNL     1       4.257   6.530  17.756  0.00  0.00    +0.000 C 
ATOM     11  C   UNL     1       4.691   5.496  16.697  0.00  0.00    +0.000 C 
BRANCH   4  13
ATOM     12  C   UNL     1       6.992   4.738  14.134  0.00  0.00    +0.000 C 
ATOM     13  O   UNL     1       7.057   5.502  15.342  0.00  0.00    +0.000 OA
ENDBRANCH   4  13
ENDBRANCH   1   9
BRANCH   3  14
ATOM     14  O   UNL     1       2.226   7.743  19.433  0.00  0.00    +0.000 OA
BRANCH  14  15
ATOM     15  C   UNL     1       1.478   8.590  20.235  0.00  0.00    +0.000 A 
ATOM     16  C   UNL     1       1.409   8.403  21.630  0.00  0.00    +0.000 A 
ATOM     17  C   UNL     1       0.674   9.268  22.447  0.00  0.00    +0.000 A 
ATOM     18  C   UNL     1      -0.014  10.340  21.878  0.00  0.00    +0.000 A 
ATOM     19  C   UNL     1       0.016  10.539  20.493  0.00  0.00    +0.000 A 
ATOM     20  C   UNL     1       0.748   9.655  19.670  0.00  0.00    +0.000 A 
BRANCH  18  21
ATOM     21  N   UNL     1      -0.772  11.255  22.751  0.00  0.00    +0.000 N 
ATOM     22  O   UNL     1      -0.380  12.423  22.836  0.00  0.00    +0.000 OA
ATOM     23  O   UNL     1      -1.753  10.786  23.342  0.00  0.00    +0.000 OA
ENDBRANCH  18  21
BRANCH  20  24
ATOM     24  N   UNL     1       0.697   9.877  18.214  0.00  0.00    +0.000 N 
ATOM     25  O   UNL     1      -0.394   9.786  17.638  0.00  0.00    +0.000 OA
ATOM     26  O   UNL     1       1.756  10.174  17.649  0.00  0.00    +0.000 OA
ENDBRANCH  20  24
ENDBRANCH  14  15
ENDBRANCH   3  14
TORSDOF 6
ENDMDL
MODEL 7
REMARK VINA RESULT:      -6.9      2.495      3.955
REMARK  Name = 
REMARK  7 active torsions:
REMARK  status: ('A' for Active; 'I' for Inactive)
REMARK    1  A    between atoms: C_1  and  O_2
REMARK    2  A    between atoms: O_2  and  C_3
REMARK    3  A    between atoms: N_8  and  N_9
REMARK    4  A    between atoms: N_11  and  O_12
REMARK    5  A    between atoms: O_12  and  C_13
REMARK    6  A    between atoms: C_16  and  N_17
REMARK    7  A    between atoms: C_21  and  N_22
REMARK                            x       y       z     vdW  Elec       q    Type
REMARK                         _______ _______ _______ _____ _____    ______ ____
ROOT
ATOM      1  N   UNL     1       5.442   4.504  18.605  0.00  0.00    +0.000 N 
ATOM      2  O   UNL     1       6.614   4.444  19.097  0.00  0.00    +0.000 OA
ATOM      3  N   UNL     1       4.448   4.136  19.315  0.00  0.00    +0.000 NA
ENDROOT
BRANCH   1   9
ATOM      4  C   UNL     1       7.042   4.712  13.558  0.00  0.00    +0.000 C 
ATOM      5  O   UNL     1       7.821   5.567  13.156  0.00  0.00    +0.000 OA
ATOM      6  N   UNL     1       6.815   4.442  14.893  0.00  0.00    +0.000 N 
ATOM      7  C   UNL     1       7.457   5.245  15.936  0.00  0.00    +0.000 C 
ATOM      8  C   UNL     1       6.399   5.916  16.832  0.00  0.00    +0.000 C 
ATOM      9  N   UNL     1       5.349   4.993  17.293  0.00  0.00    +0.000 N 
ATOM     10  C   UNL     1       4.772   4.137  16.251  0.00  0.00    +0.000 C 
ATOM     11  C   UNL     1       5.852   3.458  15.385  0.00  0.00    +0.000 C 
BRANCH   4  13
ATOM     12  C   UNL     1       7.035   3.217  11.738  0.00  0.00    +0.000 C 
ATOM     13  O   UNL     1       6.295   3.927  12.735  0.00  0.00    +0.000 OA
ENDBRANCH   4  13
ENDBRANCH   1   9
BRANCH   3  14
ATOM     14  O   UNL     1       3.203   4.441  18.741  0.00  0.00    +0.000 OA
BRANCH  14  15
ATOM     15  C   UNL     1       2.621   5.521  19.386  0.00  0.00    +0.000 A 
ATOM     16  C   UNL     1       2.823   6.839  18.932  0.00  0.00    +0.000 A 
ATOM     17  C   UNL     1       2.221   7.930  19.566  0.00  0.00    +0.000 A 
ATOM     18  C   UNL     1       1.402   7.720  20.676  0.00  0.00    +0.000 A 
ATOM     19  C   UNL     1       1.201   6.424  21.167  0.00  0.00    +0.000 A 
ATOM     20  C   UNL     1       1.823   5.327  20.532  0.00  0.00    +0.000 A 
BRANCH  18  21
ATOM     21  N   UNL     1       0.759   8.876  21.326  0.00  0.00    +0.000 N 
ATOM     22  O   UNL     1      -0.381   9.179  20.960  0.00  0.00    +0.000 OA
ATOM     23  O   UNL     1       1.409   9.468  22.197  0.00  0.00    +0.000 OA
ENDBRANCH  18  21
BRANCH  20  24
ATOM     24  N   UNL     1       1.623   3.993  21.125  0.00  0.00    +0.000 N 
ATOM     25  O   UNL     1       0.779   3.241  20.623  0.00  0.00    +0.000 OA
ATOM     26  O   UNL     1       2.341   3.686  22.084  0.00  0.00    +0.000 OA
ENDBRANCH  20  24
ENDBRANCH  14  15
ENDBRANCH   3  14
TORSDOF 6
ENDMDL
MODEL 8
REMARK VINA RESULT:      -6.9      2.124      8.037
REMARK  Name = 
REMARK  7 active torsions:
REMARK  status: ('A' for Active; 'I' for Inactive)
REMARK    1  A    between atoms: C_1  and  O_2
REMARK    2  A    between atoms: O_2  and  C_3
REMARK    3  A    between atoms: N_8  and  N_9
REMARK    4  A    between atoms: N_11  and  O_12
REMARK    5  A    between atoms: O_12  and  C_13
REMARK    6  A    between atoms: C_16  and  N_17
REMARK    7  A    between atoms: C_21  and  N_22
REMARK                            x       y       z     vdW  Elec       q    Type
REMARK                         _______ _______ _______ _____ _____    ______ ____
ROOT
ATOM      1  N   UNL     1       2.663   5.254  18.298  0.00  0.00    +0.000 N 
ATOM      2  O   UNL     1       1.444   5.042  18.000  0.00  0.00    +0.000 OA
ATOM      3  N   UNL     1       3.519   4.325  18.118  0.00  0.00    +0.000 NA
ENDROOT
BRANCH   1   9
ATOM      4  C   UNL     1       1.310  10.201  19.626  0.00  0.00    +0.000 C 
ATOM      5  O   UNL     1       1.474  11.148  18.867  0.00  0.00    +0.000 OA
ATOM      6  N   UNL     1       1.380   8.879  19.236  0.00  0.00    +0.000 N 
ATOM      7  C   UNL     1       1.745   8.525  17.863  0.00  0.00    +0.000 C 
ATOM      8  C   UNL     1       3.011   7.647  17.847  0.00  0.00    +0.000 C 
ATOM      9  N   UNL     1       2.961   6.528  18.802  0.00  0.00    +0.000 N 
ATOM     10  C   UNL     1       2.515   6.884  20.154  0.00  0.00    +0.000 C 
ATOM     11  C   UNL     1       1.233   7.741  20.142  0.00  0.00    +0.000 C 
BRANCH   4  13
ATOM     12  C   UNL     1      -0.113  11.117  21.266  0.00  0.00    +0.000 C 
ATOM     13  O   UNL     1       1.046  10.337  20.954  0.00  0.00    +0.000 OA
ENDBRANCH   4  13
ENDBRANCH   1   9
BRANCH   3  14
ATOM     14  O   UNL     1       4.849   4.746  18.288  0.00  0.00    +0.000 OA
BRANCH  14  15
ATOM     15  C   UNL     1       5.507   4.783  17.069  0.00  0.00    +0.000 A 
ATOM     16  C   UNL     1       4.884   4.336  15.888  0.00  0.00    +0.000 A 
ATOM     17  C   UNL     1       5.535   4.390  14.652  0.00  0.00    +0.000 A 
ATOM     18  C   UNL     1       6.835   4.894  14.577  0.00  0.00    +0.000 A 
ATOM     19  C   UNL     1       7.491   5.324  15.736  0.00  0.00    +0.000 A 
ATOM     20  C   UNL     1       6.833   5.253  16.984  0.00  0.00    +0.000 A 
BRANCH  18  21
ATOM     21  N   UNL     1       7.506   4.963  13.266  0.00  0.00    +0.000 N 
ATOM     22  O   UNL     1       7.100   4.212  12.374  0.00  0.00    +0.000 OA
ATOM     23  O   UNL     1       8.435   5.772  13.150  0.00  0.00    +0.000 OA
ENDBRANCH  18  21
BRANCH  20  24
ATOM     24  N   UNL     1       7.591   5.665  18.179  0.00  0.00    +0.000 N 
ATOM     25  O   UNL     1       7.774   6.871  18.379  0.00  0.00    +0.000 OA
ATOM     26  O   UNL     1       7.980   4.770  18.938  0.00  0.00    +0.000 OA
ENDBRANCH  20  24
ENDBRANCH  14  15
ENDBRANCH   3  14
TORSDOF 6
ENDMDL
MODEL 9
REMARK VINA RESULT:      -6.9      1.715      2.368
REMARK  Name = 
REMARK  7 active torsions:
REMARK  status: ('A' for Active; 'I' for Inactive)
REMARK    1  A    between atoms: C_1  and  O_2
REMARK    2  A    between atoms: O_2  and  C_3
REMARK    3  A    between atoms: N_8  and  N_9
REMARK    4  A    between atoms: N_11  and  O_12
REMARK    5  A    between atoms: O_12  and  C_13
REMARK    6  A    between atoms: C_16  and  N_17
REMARK    7  A    between atoms: C_21  and  N_22
REMARK                            x       y       z     vdW  Elec       q    Type
REMARK                         _______ _______ _______ _____ _____    ______ ____
ROOT
ATOM      1  N   UNL     1       2.537   5.795  19.131  0.00  0.00    +0.000 N 
ATOM      2  O   UNL     1       2.143   4.628  18.809  0.00  0.00    +0.000 OA
ATOM      3  N   UNL     1       1.723   6.591  19.706  0.00  0.00    +0.000 NA
ENDROOT
BRANCH   1   9
ATOM      4  C   UNL     1       7.116   4.818  16.650  0.00  0.00    +0.000 C 
ATOM      5  O   UNL     1       8.033   4.212  17.189  0.00  0.00    +0.000 OA
ATOM      6  N   UNL     1       5.824   4.854  17.136  0.00  0.00    +0.000 N 
ATOM      7  C   UNL     1       5.488   4.213  18.409  0.00  0.00    +0.000 C 
ATOM      8  C   UNL     1       4.920   5.244  19.403  0.00  0.00    +0.000 C 
ATOM      9  N   UNL     1       3.871   6.100  18.824  0.00  0.00    +0.000 N 
ATOM     10  C   UNL     1       4.190   6.670  17.511  0.00  0.00    +0.000 C 
ATOM     11  C   UNL     1       4.733   5.613  16.528  0.00  0.00    +0.000 C 
BRANCH   4  13
ATOM     12  C   UNL     1       7.162   4.785  14.295  0.00  0.00    +0.000 C 
ATOM     13  O   UNL     1       7.260   5.541  15.506  0.00  0.00    +0.000 OA
ENDBRANCH   4  13
ENDBRANCH   1   9
BRANCH   3  14
ATOM     14  O   UNL     1       2.330   7.760  20.193  0.00  0.00    +0.000 OA
BRANCH  14  15
ATOM     15  C   UNL     1       1.379   8.738  20.438  0.00  0.00    +0.000 A 
ATOM     16  C   UNL     1       0.713   8.814  21.677  0.00  0.00    +0.000 A 
ATOM     17  C   UNL     1      -0.233   9.811  21.938  0.00  0.00    +0.000 A 
ATOM     18  C   UNL     1      -0.532  10.754  20.954  0.00  0.00    +0.000 A 
ATOM     19  C   UNL     1       0.096  10.692  19.705  0.00  0.00    +0.000 A 
ATOM     20  C   UNL     1       1.039   9.674  19.442  0.00  0.00    +0.000 A 
BRANCH  18  21
ATOM     21  N   UNL     1      -1.517  11.811  21.246  0.00  0.00    +0.000 N 
ATOM     22  O   UNL     1      -2.356  12.069  20.378  0.00  0.00    +0.000 OA
ATOM     23  O   UNL     1      -1.435  12.371  22.347  0.00  0.00    +0.000 OA
ENDBRANCH  18  21
BRANCH  20  24
ATOM     24  N   UNL     1       1.626   9.621  18.091  0.00  0.00    +0.000 N 
ATOM     25  O   UNL     1       2.499  10.443  17.791  0.00  0.00    +0.000 OA
ATOM     26  O   UNL     1       1.227   8.727  17.335  0.00  0.00    +0.000 OA
ENDBRANCH  20  24
ENDBRANCH  14  15
ENDBRANCH   3  14
TORSDOF 6
ENDMDL
