MODEL 1
REMARK VINA RESULT:      -7.6      0.000      0.000
REMARK  Name = 
REMARK  10 active torsions:
REMARK  status: ('A' for Active; 'I' for Inactive)
REMARK    1  A    between atoms: C_1  and  C_2
REMARK    2  A    between atoms: C_2  and  C_3
REMARK    3  A    between atoms: C_3  and  C_4
REMARK    4  A    between atoms: C_4  and  N_5
REMARK    5  A    between atoms: C_4  and  C_6
REMARK    6  A    between atoms: N_8  and  C_9
REMARK    7  A    between atoms: C_9  and  C_10
REMARK    8  A    between atoms: C_10  and  C_11
REMARK    9  A    between atoms: C_14  and  O_15
REMARK   10  A    between atoms: O_15  and  C_16
REMARK                            x       y       z     vdW  Elec       q    Type
REMARK                         _______ _______ _______ _____ _____    ______ ____
ROOT
ATOM      1  C   UNL     1       7.510   7.751  17.817  0.00  0.00    +0.000 A 
ATOM      2  C   UNL     1       6.340   7.246  17.211  0.00  0.00    +0.000 A 
ATOM      3  C   UNL     1       5.857   5.980  17.537  0.00  0.00    +0.000 A 
ATOM      4  C   UNL     1       6.545   5.179  18.445  0.00  0.00    +0.000 A 
ATOM      5  C   UNL     1       7.709   5.671  19.060  0.00  0.00    +0.000 A 
ATOM      6  C   UNL     1       8.186   6.946  18.750  0.00  0.00    +0.000 A 
ENDROOT
BRANCH   1   7
ATOM      7  C   UNL     1       8.081   9.113  17.471  0.00  0.00    +0.000 C 
BRANCH   7   8
ATOM      8  C   UNL     1       8.875   9.752  18.618  0.00  0.00    +0.000 C 
BRANCH   8  11
ATOM      9  C   UNL     1      10.051  11.849  18.071  0.00  0.00    +0.000 C 
ATOM     10  O   UNL     1      11.085  11.233  17.844  0.00  0.00    +0.000 OA
ATOM     11  N   UNL     1       8.923  11.193  18.465  0.00  0.00    +0.000 N 
ATOM     12  H   UNL     1       8.063  11.730  18.658  0.00  0.00    +0.000 HD
BRANCH   9  13
ATOM     13  C   UNL     1      10.050  13.349  17.899  0.00  0.00    +0.000 C 
BRANCH  13  14
ATOM     14  N   UNL     1       8.731  13.801  17.446  0.00  0.00    +0.000 NA
ATOM     15  H   UNL     1       8.182  14.184  18.250  0.00  0.00    +0.000 HD
ATOM     16  H   UNL     1       8.851  14.558  16.736  0.00  0.00    +0.000 HD
ENDBRANCH  13  14
BRANCH  13  17
ATOM     17  C   UNL     1      11.142  13.753  16.890  0.00  0.00    +0.000 C 
BRANCH  17  19
ATOM     18  C   UNL     1      11.505  16.244  16.970  0.00  0.00    +0.000 C 
ATOM     19  C   UNL     1      12.028  14.884  17.424  0.00  0.00    +0.000 C 
ENDBRANCH  17  19
ENDBRANCH  13  17
ENDBRANCH   9  13
ENDBRANCH   8  11
ENDBRANCH   7   8
ENDBRANCH   1   7
BRANCH   4  20
ATOM     20  O   UNL     1       6.062   3.938  18.711  0.00  0.00    +0.000 OA
BRANCH  20  21
ATOM     21  C   UNL     1       4.752   3.590  18.761  0.00  0.00    +0.000 A 
ATOM     22  C   UNL     1       4.100   3.256  17.570  0.00  0.00    +0.000 A 
ATOM     23  C   UNL     1       2.746   2.895  17.581  0.00  0.00    +0.000 A 
ATOM     24  C   UNL     1       2.040   2.856  18.788  0.00  0.00    +0.000 A 
ATOM     25 CL   UNL     1       0.342   2.401  18.765  0.00  0.00    +0.000 Cl
ATOM     26  C   UNL     1       2.688   3.175  19.993  0.00  0.00    +0.000 A 
ATOM     27 CL   UNL     1       1.845   3.126  21.531  0.00  0.00    +0.000 Cl
ATOM     28  C   UNL     1       4.039   3.537  19.975  0.00  0.00    +0.000 A 
ENDBRANCH  20  21
ENDBRANCH   4  20
TORSDOF 9
ENDMDL
MODEL 2
REMARK VINA RESULT:      -7.6      5.396      8.010
REMARK  Name = 
REMARK  10 active torsions:
REMARK  status: ('A' for Active; 'I' for Inactive)
REMARK    1  A    between atoms: C_1  and  C_2
REMARK    2  A    between atoms: C_2  and  C_3
REMARK    3  A    between atoms: C_3  and  C_4
REMARK    4  A    between atoms: C_4  and  N_5
REMARK    5  A    between atoms: C_4  and  C_6
REMARK    6  A    between atoms: N_8  and  C_9
REMARK    7  A    between atoms: C_9  and  C_10
REMARK    8  A    between atoms: C_10  and  C_11
REMARK    9  A    between atoms: C_14  and  O_15
REMARK   10  A    between atoms: O_15  and  C_16
REMARK                            x       y       z     vdW  Elec       q    Type
REMARK                         _______ _______ _______ _____ _____    ______ ____
ROOT
ATOM      1  C   UNL     1       2.176   4.560  18.563  0.00  0.00    +0.000 A 
ATOM      2  C   UNL     1       1.742   4.351  19.889  0.00  0.00    +0.000 A 
ATOM      3  C   UNL     1       1.609   5.420  20.774  0.00  0.00    +0.000 A 
ATOM      4  C   UNL     1       1.935   6.711  20.368  0.00  0.00    +0.000 A 
ATOM      5  C   UNL     1       2.364   6.935  19.048  0.00  0.00    +0.000 A 
ATOM      6  C   UNL     1       2.482   5.870  18.154  0.00  0.00    +0.000 A 
ENDROOT
BRANCH   1   7
ATOM      7  C   UNL     1       2.358   3.421  17.579  0.00  0.00    +0.000 C 
BRANCH   7   8
ATOM      8  C   UNL     1       3.689   2.676  17.745  0.00  0.00    +0.000 C 
BRANCH   8  11
ATOM      9  C   UNL     1       5.708   4.063  18.026  0.00  0.00    +0.000 C 
ATOM     10  O   UNL     1       5.631   3.963  19.244  0.00  0.00    +0.000 OA
ATOM     11  N   UNL     1       4.785   3.466  17.220  0.00  0.00    +0.000 N 
ATOM     12  H   UNL     1       4.863   3.567  16.196  0.00  0.00    +0.000 HD
BRANCH   9  13
ATOM     13  C   UNL     1       6.850   4.857  17.436  0.00  0.00    +0.000 C 
BRANCH  13  14
ATOM     14  N   UNL     1       8.121   4.174  17.697  0.00  0.00    +0.000 NA
ATOM     15  H   UNL     1       8.510   4.473  18.621  0.00  0.00    +0.000 HD
ATOM     16  H   UNL     1       7.959   3.142  17.723  0.00  0.00    +0.000 HD
ENDBRANCH  13  14
BRANCH  13  17
ATOM     17  C   UNL     1       6.857   6.275  18.036  0.00  0.00    +0.000 C 
BRANCH  17  19
ATOM     18  C   UNL     1       7.959   8.539  18.048  0.00  0.00    +0.000 C 
ATOM     19  C   UNL     1       7.875   7.188  17.343  0.00  0.00    +0.000 C 
ENDBRANCH  17  19
ENDBRANCH  13  17
ENDBRANCH   9  13
ENDBRANCH   8  11
ENDBRANCH   7   8
ENDBRANCH   1   7
BRANCH   4  20
ATOM     20  O   UNL     1       1.824   7.722  21.268  0.00  0.00    +0.000 OA
BRANCH  20  21
ATOM     21  C   UNL     1       0.972   8.773  21.181  0.00  0.00    +0.000 A 
ATOM     22  C   UNL     1       0.485   9.342  22.362  0.00  0.00    +0.000 A 
ATOM     23  C   UNL     1      -0.400  10.427  22.312  0.00  0.00    +0.000 A 
ATOM     24  C   UNL     1      -0.795  10.955  21.077  0.00  0.00    +0.000 A 
ATOM     25 CL   UNL     1      -1.908  12.315  21.052  0.00  0.00    +0.000 Cl
ATOM     26  C   UNL     1      -0.300  10.401  19.885  0.00  0.00    +0.000 A 
ATOM     27 CL   UNL     1      -0.757  11.040  18.316  0.00  0.00    +0.000 Cl
ATOM     28  C   UNL     1       0.582   9.317  19.941  0.00  0.00    +0.000 A 
ENDBRANCH  20  21
ENDBRANCH   4  20
TORSDOF 9
ENDMDL
MODEL 3
REMARK VINA RESULT:      -7.4      6.874      8.895
REMARK  Name = 
REMARK  10 active torsions:
REMARK  status: ('A' for Active; 'I' for Inactive)
REMARK    1  A    between atoms: C_1  and  C_2
REMARK    2  A    between atoms: C_2  and  C_3
REMARK    3  A    between atoms: C_3  and  C_4
REMARK    4  A    between atoms: C_4  and  N_5
REMARK    5  A    between atoms: C_4  and  C_6
REMARK    6  A    between atoms: N_8  and  C_9
REMARK    7  A    between atoms: C_9  and  C_10
REMARK    8  A    between atoms: C_10  and  C_11
REMARK    9  A    between atoms: C_14  and  O_15
REMARK   10  A    between atoms: O_15  and  C_16
REMARK                            x       y       z     vdW  Elec       q    Type
REMARK                         _______ _______ _______ _____ _____    ______ ____
ROOT
ATOM      1  C   UNL     1       2.286   7.363  19.409  0.00  0.00    +0.000 A 
ATOM      2  C   UNL     1       1.600   7.969  20.482  0.00  0.00    +0.000 A 
ATOM      3  C   UNL     1       0.861   9.135  20.289  0.00  0.00    +0.000 A 
ATOM      4  C   UNL     1       0.817   9.738  19.035  0.00  0.00    +0.000 A 
ATOM      5  C   UNL     1       1.492   9.142  17.955  0.00  0.00    +0.000 A 
ATOM      6  C   UNL     1       2.219   7.965  18.141  0.00  0.00    +0.000 A 
ENDROOT
BRANCH   1   7
ATOM      7  C   UNL     1       3.121   6.109  19.584  0.00  0.00    +0.000 C 
BRANCH   7   8
ATOM      8  C   UNL     1       3.309   5.314  18.285  0.00  0.00    +0.000 C 
BRANCH   8  11
ATOM      9  C   UNL     1       5.508   5.926  17.352  0.00  0.00    +0.000 C 
ATOM     10  O   UNL     1       5.045   6.963  16.892  0.00  0.00    +0.000 OA
ATOM     11  N   UNL     1       4.715   5.058  18.042  0.00  0.00    +0.000 N 
ATOM     12  H   UNL     1       5.121   4.186  18.417  0.00  0.00    +0.000 HD
BRANCH   9  13
ATOM     13  C   UNL     1       6.974   5.633  17.144  0.00  0.00    +0.000 C 
BRANCH  13  14
ATOM     14  N   UNL     1       7.642   6.803  16.566  0.00  0.00    +0.000 NA
ATOM     15  H   UNL     1       7.673   6.725  15.523  0.00  0.00    +0.000 HD
ATOM     16  H   UNL     1       7.105   7.665  16.818  0.00  0.00    +0.000 HD
ENDBRANCH  13  14
BRANCH  13  17
ATOM     17  C   UNL     1       7.129   4.406  16.226  0.00  0.00    +0.000 C 
BRANCH  17  19
ATOM     18  C   UNL     1       5.755   4.144  14.132  0.00  0.00    +0.000 C 
ATOM     19  C   UNL     1       7.002   4.777  14.744  0.00  0.00    +0.000 C 
ENDBRANCH  17  19
ENDBRANCH  13  17
ENDBRANCH   9  13
ENDBRANCH   8  11
ENDBRANCH   7   8
ENDBRANCH   1   7
BRANCH   4  20
ATOM     20  O   UNL     1       0.114  10.892  18.894  0.00  0.00    +0.000 OA
BRANCH  20  21
ATOM     21  C   UNL     1      -1.215  10.986  18.645  0.00  0.00    +0.000 A 
ATOM     22  C   UNL     1      -1.771  10.175  17.650  0.00  0.00    +0.000 A 
ATOM     23  C   UNL     1      -3.141  10.246  17.362  0.00  0.00    +0.000 A 
ATOM     24  C   UNL     1      -3.964  11.125  18.075  0.00  0.00    +0.000 A 
ATOM     25 CL   UNL     1      -5.676  11.191  17.685  0.00  0.00    +0.000 Cl
ATOM     26  C   UNL     1      -3.419  11.935  19.086  0.00  0.00    +0.000 A 
ATOM     27 CL   UNL     1      -4.416  13.040  20.014  0.00  0.00    +0.000 Cl
ATOM     28  C   UNL     1      -2.051  11.860  19.368  0.00  0.00    +0.000 A 
ENDBRANCH  20  21
ENDBRANCH   4  20
TORSDOF 9
ENDMDL
MODEL 4
REMARK VINA RESULT:      -7.4      6.702     10.141
REMARK  Name = 
REMARK  10 active torsions:
REMARK  status: ('A' for Active; 'I' for Inactive)
REMARK    1  A    between atoms: C_1  and  C_2
REMARK    2  A    between atoms: C_2  and  C_3
REMARK    3  A    between atoms: C_3  and  C_4
REMARK    4  A    between atoms: C_4  and  N_5
REMARK    5  A    between atoms: C_4  and  C_6
REMARK    6  A    between atoms: N_8  and  C_9
REMARK    7  A    between atoms: C_9  and  C_10
REMARK    8  A    between atoms: C_10  and  C_11
REMARK    9  A    between atoms: C_14  and  O_15
REMARK   10  A    between atoms: O_15  and  C_16
REMARK                            x       y       z     vdW  Elec       q    Type
REMARK                         _______ _______ _______ _____ _____    ______ ____
ROOT
ATOM      1  C   UNL     1       2.963   7.283  18.316  0.00  0.00    +0.000 A 
ATOM      2  C   UNL     1       2.724   8.437  17.540  0.00  0.00    +0.000 A 
ATOM      3  C   UNL     1       1.900   9.456  18.013  0.00  0.00    +0.000 A 
ATOM      4  C   UNL     1       1.271   9.334  19.249  0.00  0.00    +0.000 A 
ATOM      5  C   UNL     1       1.504   8.191  20.035  0.00  0.00    +0.000 A 
ATOM      6  C   UNL     1       2.343   7.176  19.572  0.00  0.00    +0.000 A 
ENDROOT
BRANCH   1   7
ATOM      7  C   UNL     1       3.833   6.141  17.826  0.00  0.00    +0.000 C 
BRANCH   7   8
ATOM      8  C   UNL     1       4.740   5.553  18.916  0.00  0.00    +0.000 C 
BRANCH   8  11
ATOM      9  C   UNL     1       3.883   3.261  18.610  0.00  0.00    +0.000 C 
ATOM     10  O   UNL     1       4.052   3.339  17.399  0.00  0.00    +0.000 OA
ATOM     11  N   UNL     1       4.188   4.312  19.423  0.00  0.00    +0.000 N 
ATOM     12  H   UNL     1       4.033   4.230  20.440  0.00  0.00    +0.000 HD
BRANCH   9  13
ATOM     13  C   UNL     1       3.334   1.976  19.183  0.00  0.00    +0.000 C 
BRANCH  13  14
ATOM     14  N   UNL     1       3.922   0.827  18.488  0.00  0.00    +0.000 NA
ATOM     15  H   UNL     1       3.780   0.917  17.454  0.00  0.00    +0.000 HD
ATOM     16  H   UNL     1       4.949   0.797  18.680  0.00  0.00    +0.000 HD
ENDBRANCH  13  14
BRANCH  13  17
ATOM     17  C   UNL     1       1.800   1.968  19.053  0.00  0.00    +0.000 C 
BRANCH  17  19
ATOM     18  C   UNL     1       1.518   2.690  21.449  0.00  0.00    +0.000 C 
ATOM     19  C   UNL     1       1.136   2.975  19.999  0.00  0.00    +0.000 C 
ENDBRANCH  17  19
ENDBRANCH  13  17
ENDBRANCH   9  13
ENDBRANCH   8  11
ENDBRANCH   7   8
ENDBRANCH   1   7
BRANCH   4  20
ATOM     20  O   UNL     1       0.448  10.333  19.661  0.00  0.00    +0.000 OA
BRANCH  20  21
ATOM     21  C   UNL     1      -0.741  10.663  19.099  0.00  0.00    +0.000 A 
ATOM     22  C   UNL     1      -1.546  11.610  19.740  0.00  0.00    +0.000 A 
ATOM     23  C   UNL     1      -2.783  11.974  19.192  0.00  0.00    +0.000 A 
ATOM     24  C   UNL     1      -3.217  11.399  17.992  0.00  0.00    +0.000 A 
ATOM     25 CL   UNL     1      -4.775  11.877  17.335  0.00  0.00    +0.000 Cl
ATOM     26  C   UNL     1      -2.409  10.458  17.332  0.00  0.00    +0.000 A 
ATOM     27 CL   UNL     1      -2.907   9.722  15.818  0.00  0.00    +0.000 Cl
ATOM     28  C   UNL     1      -1.177  10.097  17.884  0.00  0.00    +0.000 A 
ENDBRANCH  20  21
ENDBRANCH   4  20
TORSDOF 9
ENDMDL
MODEL 5
REMARK VINA RESULT:      -7.4      1.453      1.774
REMARK  Name = 
REMARK  10 active torsions:
REMARK  status: ('A' for Active; 'I' for Inactive)
REMARK    1  A    between atoms: C_1  and  C_2
REMARK    2  A    between atoms: C_2  and  C_3
REMARK    3  A    between atoms: C_3  and  C_4
REMARK    4  A    between atoms: C_4  and  N_5
REMARK    5  A    between atoms: C_4  and  C_6
REMARK    6  A    between atoms: N_8  and  C_9
REMARK    7  A    between atoms: C_9  and  C_10
REMARK    8  A    between atoms: C_10  and  C_11
REMARK    9  A    between atoms: C_14  and  O_15
REMARK   10  A    between atoms: O_15  and  C_16
REMARK                            x       y       z     vdW  Elec       q    Type
REMARK                         _______ _______ _______ _____ _____    ______ ____
ROOT
ATOM      1  C   UNL     1       8.082   7.561  18.458  0.00  0.00    +0.000 A 
ATOM      2  C   UNL     1       7.219   7.594  17.343  0.00  0.00    +0.000 A 
ATOM      3  C   UNL     1       6.479   6.470  16.980  0.00  0.00    +0.000 A 
ATOM      4  C   UNL     1       6.607   5.284  17.698  0.00  0.00    +0.000 A 
ATOM      5  C   UNL     1       7.460   5.238  18.814  0.00  0.00    +0.000 A 
ATOM      6  C   UNL     1       8.190   6.367  19.192  0.00  0.00    +0.000 A 
ENDROOT
BRANCH   1   7
ATOM      7  C   UNL     1       8.922   8.755  18.870  0.00  0.00    +0.000 C 
BRANCH   7   8
ATOM      8  C   UNL     1       8.520  10.058  18.165  0.00  0.00    +0.000 C 
BRANCH   8  11
ATOM      9  C   UNL     1       9.564  12.237  17.677  0.00  0.00    +0.000 C 
ATOM     10  O   UNL     1       8.463  12.758  17.551  0.00  0.00    +0.000 OA
ATOM     11  N   UNL     1       9.676  10.910  17.969  0.00  0.00    +0.000 N 
ATOM     12  H   UNL     1      10.612  10.487  18.065  0.00  0.00    +0.000 HD
BRANCH   9  13
ATOM     13  C   UNL     1      10.795  13.095  17.506  0.00  0.00    +0.000 C 
BRANCH  13  14
ATOM     14  N   UNL     1      11.985  12.246  17.391  0.00  0.00    +0.000 NA
ATOM     15  H   UNL     1      11.708  11.240  17.320  0.00  0.00    +0.000 HD
ATOM     16  H   UNL     1      12.512  12.506  16.526  0.00  0.00    +0.000 HD
ENDBRANCH  13  14
BRANCH  13  17
ATOM     17  C   UNL     1      10.923  14.057  18.702  0.00  0.00    +0.000 C 
BRANCH  17  19
ATOM     18  C   UNL     1      10.262  13.556  21.080  0.00  0.00    +0.000 C 
ATOM     19  C   UNL     1      11.307  13.323  19.992  0.00  0.00    +0.000 C 
ENDBRANCH  17  19
ENDBRANCH  13  17
ENDBRANCH   9  13
ENDBRANCH   8  11
ENDBRANCH   7   8
ENDBRANCH   1   7
BRANCH   4  20
ATOM     20  O   UNL     1       5.895   4.200  17.293  0.00  0.00    +0.000 OA
BRANCH  20  21
ATOM     21  C   UNL     1       4.685   3.821  17.774  0.00  0.00    +0.000 A 
ATOM     22  C   UNL     1       3.595   3.788  16.898  0.00  0.00    +0.000 A 
ATOM     23  C   UNL     1       2.329   3.405  17.359  0.00  0.00    +0.000 A 
ATOM     24  C   UNL     1       2.149   3.042  18.699  0.00  0.00    +0.000 A 
ATOM     25 CL   UNL     1       0.546   2.569  19.243  0.00  0.00    +0.000 Cl
ATOM     26  C   UNL     1       3.240   3.056  19.584  0.00  0.00    +0.000 A 
ATOM     27 CL   UNL     1       3.063   2.595  21.268  0.00  0.00    +0.000 Cl
ATOM     28  C   UNL     1       4.501   3.442  19.118  0.00  0.00    +0.000 A 
ENDBRANCH  20  21
ENDBRANCH   4  20
TORSDOF 9
ENDMDL
MODEL 6
REMARK VINA RESULT:      -7.4      6.531      8.946
REMARK  Name = 
REMARK  10 active torsions:
REMARK  status: ('A' for Active; 'I' for Inactive)
REMARK    1  A    between atoms: C_1  and  C_2
REMARK    2  A    between atoms: C_2  and  C_3
REMARK    3  A    between atoms: C_3  and  C_4
REMARK    4  A    between atoms: C_4  and  N_5
REMARK    5  A    between atoms: C_4  and  C_6
REMARK    6  A    between atoms: N_8  and  C_9
REMARK    7  A    between atoms: C_9  and  C_10
REMARK    8  A    between atoms: C_10  and  C_11
REMARK    9  A    between atoms: C_14  and  O_15
REMARK   10  A    between atoms: O_15  and  C_16
REMARK                            x       y       z     vdW  Elec       q    Type
REMARK                         _______ _______ _______ _____ _____    ______ ____
ROOT
ATOM      1  C   UNL     1       2.363   7.316  19.310  0.00  0.00    +0.000 A 
ATOM      2  C   UNL     1       1.692   8.015  20.336  0.00  0.00    +0.000 A 
ATOM      3  C   UNL     1       1.028   9.211  20.069  0.00  0.00    +0.000 A 
ATOM      4  C   UNL     1       1.047   9.753  18.787  0.00  0.00    +0.000 A 
ATOM      5  C   UNL     1       1.708   9.066  17.754  0.00  0.00    +0.000 A 
ATOM      6  C   UNL     1       2.359   7.858  18.013  0.00  0.00    +0.000 A 
ENDROOT
BRANCH   1   7
ATOM      7  C   UNL     1       3.117   6.026  19.565  0.00  0.00    +0.000 C 
BRANCH   7   8
ATOM      8  C   UNL     1       3.429   5.237  18.286  0.00  0.00    +0.000 C 
BRANCH   8  11
ATOM      9  C   UNL     1       5.870   4.909  18.167  0.00  0.00    +0.000 C 
ATOM     10  O   UNL     1       5.805   3.990  18.975  0.00  0.00    +0.000 OA
ATOM     11  N   UNL     1       4.746   5.579  17.785  0.00  0.00    +0.000 N 
ATOM     12  H   UNL     1       4.821   6.354  17.108  0.00  0.00    +0.000 HD
BRANCH   9  13
ATOM     13  C   UNL     1       7.220   5.280  17.601  0.00  0.00    +0.000 C 
BRANCH  13  14
ATOM     14  N   UNL     1       8.146   4.152  17.734  0.00  0.00    +0.000 NA
ATOM     15  H   UNL     1       8.069   3.518  16.905  0.00  0.00    +0.000 HD
ATOM     16  H   UNL     1       9.126   4.514  17.783  0.00  0.00    +0.000 HD
ENDBRANCH  13  14
BRANCH  13  17
ATOM     17  C   UNL     1       7.762   6.522  18.332  0.00  0.00    +0.000 C 
BRANCH  17  19
ATOM     18  C   UNL     1       8.341   8.963  18.111  0.00  0.00    +0.000 C 
ATOM     19  C   UNL     1       7.525   7.810  17.534  0.00  0.00    +0.000 C 
ENDBRANCH  17  19
ENDBRANCH  13  17
ENDBRANCH   9  13
ENDBRANCH   8  11
ENDBRANCH   7   8
ENDBRANCH   1   7
BRANCH   4  20
ATOM     20  O   UNL     1       0.418  10.937  18.574  0.00  0.00    +0.000 OA
BRANCH  20  21
ATOM     21  C   UNL     1       0.928  12.165  18.839  0.00  0.00    +0.000 A 
ATOM     22  C   UNL     1       0.163  13.061  19.593  0.00  0.00    +0.000 A 
ATOM     23  C   UNL     1       0.654  14.341  19.885  0.00  0.00    +0.000 A 
ATOM     24  C   UNL     1       1.920  14.727  19.430  0.00  0.00    +0.000 A 
ATOM     25 CL   UNL     1       2.504  16.341  19.812  0.00  0.00    +0.000 Cl
ATOM     26  C   UNL     1       2.703  13.830  18.684  0.00  0.00    +0.000 A 
ATOM     27 CL   UNL     1       4.302  14.268  18.107  0.00  0.00    +0.000 Cl
ATOM     28  C   UNL     1       2.207  12.555  18.395  0.00  0.00    +0.000 A 
ENDBRANCH  20  21
ENDBRANCH   4  20
TORSDOF 9
ENDMDL
MODEL 7
REMARK VINA RESULT:      -7.3      0.767      1.232
REMARK  Name = 
REMARK  10 active torsions:
REMARK  status: ('A' for Active; 'I' for Inactive)
REMARK    1  A    between atoms: C_1  and  C_2
REMARK    2  A    between atoms: C_2  and  C_3
REMARK    3  A    between atoms: C_3  and  C_4
REMARK    4  A    between atoms: C_4  and  N_5
REMARK    5  A    between atoms: C_4  and  C_6
REMARK    6  A    between atoms: N_8  and  C_9
REMARK    7  A    between atoms: C_9  and  C_10
REMARK    8  A    between atoms: C_10  and  C_11
REMARK    9  A    between atoms: C_14  and  O_15
REMARK   10  A    between atoms: O_15  and  C_16
REMARK                            x       y       z     vdW  Elec       q    Type
REMARK                         _______ _______ _______ _____ _____    ______ ____
ROOT
ATOM      1  C   UNL     1       7.716   7.855  17.878  0.00  0.00    +0.000 A 
ATOM      2  C   UNL     1       8.252   7.003  18.867  0.00  0.00    +0.000 A 
ATOM      3  C   UNL     1       7.720   5.732  19.078  0.00  0.00    +0.000 A 
ATOM      4  C   UNL     1       6.626   5.297  18.335  0.00  0.00    +0.000 A 
ATOM      5  C   UNL     1       6.085   6.134  17.343  0.00  0.00    +0.000 A 
ATOM      6  C   UNL     1       6.626   7.400  17.116  0.00  0.00    +0.000 A 
ENDROOT
BRANCH   1   7
ATOM      7  C   UNL     1       8.251   9.253  17.635  0.00  0.00    +0.000 C 
BRANCH   7   8
ATOM      8  C   UNL     1       9.031   9.824  18.827  0.00  0.00    +0.000 C 
BRANCH   8  11
ATOM      9  C   UNL     1      10.430  11.855  18.845  0.00  0.00    +0.000 C 
ATOM     10  O   UNL     1      11.416  11.196  19.151  0.00  0.00    +0.000 OA
ATOM     11  N   UNL     1       9.218  11.254  18.677  0.00  0.00    +0.000 N 
ATOM     12  H   UNL     1       8.397  11.826  18.425  0.00  0.00    +0.000 HD
BRANCH   9  13
ATOM     13  C   UNL     1      10.586  13.345  18.654  0.00  0.00    +0.000 C 
BRANCH  13  14
ATOM     14  N   UNL     1       9.310  14.019  18.915  0.00  0.00    +0.000 NA
ATOM     15  H   UNL     1       9.018  14.579  18.081  0.00  0.00    +0.000 HD
ATOM     16  H   UNL     1       8.574  13.302  19.107  0.00  0.00    +0.000 HD
ENDBRANCH  13  14
BRANCH  13  17
ATOM     17  C   UNL     1      11.072  13.632  17.221  0.00  0.00    +0.000 C 
BRANCH  17  19
ATOM     18  C   UNL     1      12.322  15.817  17.319  0.00  0.00    +0.000 C 
ATOM     19  C   UNL     1      11.030  15.128  16.888  0.00  0.00    +0.000 C 
ENDBRANCH  17  19
ENDBRANCH  13  17
ENDBRANCH   9  13
ENDBRANCH   8  11
ENDBRANCH   7   8
ENDBRANCH   1   7
BRANCH   4  20
ATOM     20  O   UNL     1       6.114   4.066  18.593  0.00  0.00    +0.000 OA
BRANCH  20  21
ATOM     21  C   UNL     1       4.797   3.752  18.660  0.00  0.00    +0.000 A 
ATOM     22  C   UNL     1       4.290   2.791  17.779  0.00  0.00    +0.000 A 
ATOM     23  C   UNL     1       2.933   2.444  17.815  0.00  0.00    +0.000 A 
ATOM     24  C   UNL     1       2.077   3.050  18.741  0.00  0.00    +0.000 A 
ATOM     25 CL   UNL     1       0.380   2.591  18.757  0.00  0.00    +0.000 Cl
ATOM     26  C   UNL     1       2.578   4.005  19.641  0.00  0.00    +0.000 A 
ATOM     27 CL   UNL     1       1.544   4.780  20.829  0.00  0.00    +0.000 Cl
ATOM     28  C   UNL     1       3.933   4.350  19.599  0.00  0.00    +0.000 A 
ENDBRANCH  20  21
ENDBRANCH   4  20
TORSDOF 9
ENDMDL
MODEL 8
REMARK VINA RESULT:      -7.3      6.503      8.729
REMARK  Name = 
REMARK  10 active torsions:
REMARK  status: ('A' for Active; 'I' for Inactive)
REMARK    1  A    between atoms: C_1  and  C_2
REMARK    2  A    between atoms: C_2  and  C_3
REMARK    3  A    between atoms: C_3  and  C_4
REMARK    4  A    between atoms: C_4  and  N_5
REMARK    5  A    between atoms: C_4  and  C_6
REMARK    6  A    between atoms: N_8  and  C_9
REMARK    7  A    between atoms: C_9  and  C_10
REMARK    8  A    between atoms: C_10  and  C_11
REMARK    9  A    between atoms: C_14  and  O_15
REMARK   10  A    between atoms: O_15  and  C_16
REMARK                            x       y       z     vdW  Elec       q    Type
REMARK                         _______ _______ _______ _____ _____    ______ ____
ROOT
ATOM      1  C   UNL     1       2.626   6.631  19.342  0.00  0.00    +0.000 A 
ATOM      2  C   UNL     1       1.957   7.327  20.370  0.00  0.00    +0.000 A 
ATOM      3  C   UNL     1       1.381   8.574  20.131  0.00  0.00    +0.000 A 
ATOM      4  C   UNL     1       1.489   9.167  18.876  0.00  0.00    +0.000 A 
ATOM      5  C   UNL     1       2.149   8.483  17.840  0.00  0.00    +0.000 A 
ATOM      6  C   UNL     1       2.711   7.226  18.071  0.00  0.00    +0.000 A 
ENDROOT
BRANCH   1   7
ATOM      7  C   UNL     1       3.286   5.285  19.569  0.00  0.00    +0.000 C 
BRANCH   7   8
ATOM      8  C   UNL     1       4.820   5.345  19.551  0.00  0.00    +0.000 C 
BRANCH   8  11
ATOM      9  C   UNL     1       6.285   5.367  17.568  0.00  0.00    +0.000 C 
ATOM     10  O   UNL     1       6.723   6.468  17.880  0.00  0.00    +0.000 OA
ATOM     11  N   UNL     1       5.340   4.752  18.334  0.00  0.00    +0.000 N 
ATOM     12  H   UNL     1       4.979   3.828  18.053  0.00  0.00    +0.000 HD
BRANCH   9  13
ATOM     13  C   UNL     1       6.819   4.702  16.322  0.00  0.00    +0.000 C 
BRANCH  13  14
ATOM     14  N   UNL     1       7.565   5.674  15.517  0.00  0.00    +0.000 NA
ATOM     15  H   UNL     1       8.172   5.181  14.821  0.00  0.00    +0.000 HD
ATOM     16  H   UNL     1       6.891   6.280  14.996  0.00  0.00    +0.000 HD
ENDBRANCH  13  14
BRANCH  13  17
ATOM     17  C   UNL     1       5.651   4.106  15.515  0.00  0.00    +0.000 C 
BRANCH  17  19
ATOM     18  C   UNL     1       5.995   3.497  13.096  0.00  0.00    +0.000 C 
ATOM     19  C   UNL     1       5.631   4.615  14.069  0.00  0.00    +0.000 C 
ENDBRANCH  17  19
ENDBRANCH  13  17
ENDBRANCH   9  13
ENDBRANCH   8  11
ENDBRANCH   7   8
ENDBRANCH   1   7
BRANCH   4  20
ATOM     20  O   UNL     1       0.945  10.397  18.691  0.00  0.00    +0.000 OA
BRANCH  20  21
ATOM     21  C   UNL     1      -0.376  10.668  18.548  0.00  0.00    +0.000 A 
ATOM     22  C   UNL     1      -1.098   9.990  17.560  0.00  0.00    +0.000 A 
ATOM     23  C   UNL     1      -2.464  10.246  17.381  0.00  0.00    +0.000 A 
ATOM     24  C   UNL     1      -3.118  11.176  18.197  0.00  0.00    +0.000 A 
ATOM     25 CL   UNL     1      -4.831  11.473  17.942  0.00  0.00    +0.000 Cl
ATOM     26  C   UNL     1      -2.406  11.851  19.202  0.00  0.00    +0.000 A 
ATOM     27 CL   UNL     1      -3.189  13.014  20.258  0.00  0.00    +0.000 Cl
ATOM     28  C   UNL     1      -1.043  11.593  19.376  0.00  0.00    +0.000 A 
ENDBRANCH  20  21
ENDBRANCH   4  20
TORSDOF 9
ENDMDL
MODEL 9
REMARK VINA RESULT:      -7.3      6.828      8.975
REMARK  Name = 
REMARK  10 active torsions:
REMARK  status: ('A' for Active; 'I' for Inactive)
REMARK    1  A    between atoms: C_1  and  C_2
REMARK    2  A    between atoms: C_2  and  C_3
REMARK    3  A    between atoms: C_3  and  C_4
REMARK    4  A    between atoms: C_4  and  N_5
REMARK    5  A    between atoms: C_4  and  C_6
REMARK    6  A    between atoms: N_8  and  C_9
REMARK    7  A    between atoms: C_9  and  C_10
REMARK    8  A    between atoms: C_10  and  C_11
REMARK    9  A    between atoms: C_14  and  O_15
REMARK   10  A    between atoms: O_15  and  C_16
REMARK                            x       y       z     vdW  Elec       q    Type
REMARK                         _______ _______ _______ _____ _____    ______ ____
ROOT
ATOM      1  C   UNL     1       2.254   7.294  19.323  0.00  0.00    +0.000 A 
ATOM      2  C   UNL     1       2.273   8.002  18.103  0.00  0.00    +0.000 A 
ATOM      3  C   UNL     1       1.707   9.272  18.005  0.00  0.00    +0.000 A 
ATOM      4  C   UNL     1       1.083   9.848  19.108  0.00  0.00    +0.000 A 
ATOM      5  C   UNL     1       1.060   9.156  20.332  0.00  0.00    +0.000 A 
ATOM      6  C   UNL     1       1.642   7.891  20.438  0.00  0.00    +0.000 A 
ENDROOT
BRANCH   1   7
ATOM      7  C   UNL     1       2.836   5.901  19.462  0.00  0.00    +0.000 C 
BRANCH   7   8
ATOM      8  C   UNL     1       3.158   5.235  18.117  0.00  0.00    +0.000 C 
BRANCH   8  11
ATOM      9  C   UNL     1       5.360   5.832  17.181  0.00  0.00    +0.000 C 
ATOM     10  O   UNL     1       4.860   6.747  16.538  0.00  0.00    +0.000 OA
ATOM     11  N   UNL     1       4.587   5.037  17.974  0.00  0.00    +0.000 N 
ATOM     12  H   UNL     1       5.024   4.266  18.503  0.00  0.00    +0.000 HD
BRANCH   9  13
ATOM     13  C   UNL     1       6.849   5.606  17.081  0.00  0.00    +0.000 C 
BRANCH  13  14
ATOM     14  N   UNL     1       7.508   6.821  16.592  0.00  0.00    +0.000 NA
ATOM     15  H   UNL     1       7.160   7.658  17.115  0.00  0.00    +0.000 HD
ATOM     16  H   UNL     1       8.539   6.739  16.745  0.00  0.00    +0.000 HD
ENDBRANCH  13  14
BRANCH  13  17
ATOM     17  C   UNL     1       7.129   4.417  16.142  0.00  0.00    +0.000 C 
BRANCH  17  19
ATOM     18  C   UNL     1       6.003   3.939  13.941  0.00  0.00    +0.000 C 
ATOM     19  C   UNL     1       7.022   4.813  14.665  0.00  0.00    +0.000 C 
ENDBRANCH  17  19
ENDBRANCH  13  17
ENDBRANCH   9  13
ENDBRANCH   8  11
ENDBRANCH   7   8
ENDBRANCH   1   7
BRANCH   4  20
ATOM     20  O   UNL     1       0.513  11.073  18.966  0.00  0.00    +0.000 OA
BRANCH  20  21
ATOM     21  C   UNL     1      -0.817  11.324  18.883  0.00  0.00    +0.000 A 
ATOM     22  C   UNL     1      -1.423  12.074  19.896  0.00  0.00    +0.000 A 
ATOM     23  C   UNL     1      -2.795  12.352  19.846  0.00  0.00    +0.000 A 
ATOM     24  C   UNL     1      -3.568  11.887  18.776  0.00  0.00    +0.000 A 
ATOM     25 CL   UNL     1      -5.287  12.251  18.748  0.00  0.00    +0.000 Cl
ATOM     26  C   UNL     1      -2.967  11.145  17.746  0.00  0.00    +0.000 A 
ATOM     27 CL   UNL     1      -3.895  10.555  16.378  0.00  0.00    +0.000 Cl
ATOM     28  C   UNL     1      -1.597  10.870  17.801  0.00  0.00    +0.000 A 
ENDBRANCH  20  21
ENDBRANCH   4  20
TORSDOF 9
ENDMDL
