MODEL 1
REMARK VINA RESULT:      -7.6      0.000      0.000
REMARK  Name = 
REMARK  3 active torsions:
REMARK  status: ('A' for Active; 'I' for Inactive)
REMARK    1  A    between atoms: C_1  and  C_2
REMARK    2  A    between atoms: N_4  and  C_5
REMARK    3  A    between atoms: N_9  and  C_10
REMARK                            x       y       z     vdW  Elec       q    Type
REMARK                         _______ _______ _______ _____ _____    ______ ____
ROOT
ATOM      1  C   UNL     1       5.207   4.176  17.861  0.00  0.00    +0.000 C 
ATOM      2  C   UNL     1       3.940   3.333  17.903  0.00  0.00    +0.000 C 
ATOM      3  C   UNL     1       2.842   4.360  18.042  0.00  0.00    +0.000 C 
ATOM      4  O   UNL     1       1.666   4.100  17.836  0.00  0.00    +0.000 OA
ATOM      5  N   UNL     1       3.416   5.553  18.496  0.00  0.00    +0.000 N 
ATOM      6  C   UNL     1       4.835   5.389  18.718  0.00  0.00    +0.000 C 
ENDROOT
BRANCH   5   7
ATOM      7  C   UNL     1       2.729   6.764  18.761  0.00  0.00    +0.000 A 
ATOM      8  C   UNL     1       2.604   7.753  17.774  0.00  0.00    +0.000 A 
ATOM      9  C   UNL     1       1.975   8.971  18.046  0.00  0.00    +0.000 A 
ATOM     10  C   UNL     1       1.446   9.213  19.306  0.00  0.00    +0.000 A 
ATOM     11  C   UNL     1       1.521   8.226  20.290  0.00  0.00    +0.000 A 
ATOM     12  C   UNL     1       2.179   7.020  20.028  0.00  0.00    +0.000 A 
ATOM     13  O   UNL     1       0.979   8.376  21.543  0.00  0.00    +0.000 OA
ATOM     14  C   UNL     1       0.078   9.490  21.596  0.00  0.00    +0.000 C 
ATOM     15  C   UNL     1       0.681  10.701  20.902  0.00  0.00    +0.000 C 
ATOM     16  O   UNL     1       0.866  10.438  19.508  0.00  0.00    +0.000 OA
ENDBRANCH   5   7
BRANCH   1  20
ATOM     17  C   UNL     1       7.064   4.898  14.629  0.00  0.00    +0.000 C 
ATOM     18  C   UNL     1       6.887   4.599  16.091  0.00  0.00    +0.000 C 
ATOM     19  O   UNL     1       7.827   4.433  16.862  0.00  0.00    +0.000 OA
ATOM     20  N   UNL     1       5.569   4.525  16.485  0.00  0.00    +0.000 N 
ATOM     21  H   UNL     1       4.843   4.684  15.796  0.00  0.00    +0.000 HD
ENDBRANCH   1  20
TORSDOF 2
ENDMDL
MODEL 2
REMARK VINA RESULT:      -7.6      0.930      1.810
REMARK  Name = 
REMARK  3 active torsions:
REMARK  status: ('A' for Active; 'I' for Inactive)
REMARK    1  A    between atoms: C_1  and  C_2
REMARK    2  A    between atoms: N_4  and  C_5
REMARK    3  A    between atoms: N_9  and  C_10
REMARK                            x       y       z     vdW  Elec       q    Type
REMARK                         _______ _______ _______ _____ _____    ______ ____
ROOT
ATOM      1  C   UNL     1       5.061   3.819  17.537  0.00  0.00    +0.000 C 
ATOM      2  C   UNL     1       3.736   3.076  17.437  0.00  0.00    +0.000 C 
ATOM      3  C   UNL     1       2.713   4.148  17.727  0.00  0.00    +0.000 C 
ATOM      4  O   UNL     1       1.525   4.011  17.475  0.00  0.00    +0.000 OA
ATOM      5  N   UNL     1       3.363   5.210  18.366  0.00  0.00    +0.000 N 
ATOM      6  C   UNL     1       4.763   4.908  18.570  0.00  0.00    +0.000 C 
ENDROOT
BRANCH   5   7
ATOM      7  C   UNL     1       2.761   6.413  18.813  0.00  0.00    +0.000 A 
ATOM      8  C   UNL     1       2.197   6.503  20.094  0.00  0.00    +0.000 A 
ATOM      9  C   UNL     1       1.555   7.670  20.521  0.00  0.00    +0.000 A 
ATOM     10  C   UNL     1       1.482   8.770  19.678  0.00  0.00    +0.000 A 
ATOM     11  C   UNL     1       2.076   8.716  18.416  0.00  0.00    +0.000 A 
ATOM     12  C   UNL     1       2.689   7.538  17.976  0.00  0.00    +0.000 A 
ATOM     13  O   UNL     1       2.085   9.780  17.547  0.00  0.00    +0.000 OA
ATOM     14  C   UNL     1       1.718  10.999  18.207  0.00  0.00    +0.000 C 
ATOM     15  C   UNL     1       0.506  10.784  19.098  0.00  0.00    +0.000 C 
ATOM     16  O   UNL     1       0.817   9.869  20.153  0.00  0.00    +0.000 OA
ENDBRANCH   5   7
BRANCH   1  20
ATOM     17  C   UNL     1       7.038   5.005  14.519  0.00  0.00    +0.000 C 
ATOM     18  C   UNL     1       6.804   4.520  15.922  0.00  0.00    +0.000 C 
ATOM     19  O   UNL     1       7.713   4.294  16.715  0.00  0.00    +0.000 OA
ATOM     20  N   UNL     1       5.474   4.350  16.235  0.00  0.00    +0.000 N 
ATOM     21  H   UNL     1       4.775   4.567  15.533  0.00  0.00    +0.000 HD
ENDBRANCH   1  20
TORSDOF 2
ENDMDL
MODEL 3
REMARK VINA RESULT:      -7.4      2.961      4.726
REMARK  Name = 
REMARK  3 active torsions:
REMARK  status: ('A' for Active; 'I' for Inactive)
REMARK    1  A    between atoms: C_1  and  C_2
REMARK    2  A    between atoms: N_4  and  C_5
REMARK    3  A    between atoms: N_9  and  C_10
REMARK                            x       y       z     vdW  Elec       q    Type
REMARK                         _______ _______ _______ _____ _____    ______ ____
ROOT
ATOM      1  C   UNL     1       6.409   5.160  14.415  0.00  0.00    +0.000 C 
ATOM      2  C   UNL     1       7.530   4.935  15.421  0.00  0.00    +0.000 C 
ATOM      3  C   UNL     1       6.791   4.609  16.698  0.00  0.00    +0.000 C 
ATOM      4  O   UNL     1       7.339   4.100  17.664  0.00  0.00    +0.000 OA
ATOM      5  N   UNL     1       5.471   5.052  16.563  0.00  0.00    +0.000 N 
ATOM      6  C   UNL     1       5.274   5.703  15.287  0.00  0.00    +0.000 C 
ENDROOT
BRANCH   5   7
ATOM      7  C   UNL     1       4.448   4.943  17.538  0.00  0.00    +0.000 A 
ATOM      8  C   UNL     1       4.221   5.973  18.463  0.00  0.00    +0.000 A 
ATOM      9  C   UNL     1       3.249   5.849  19.460  0.00  0.00    +0.000 A 
ATOM     10  C   UNL     1       2.477   4.698  19.538  0.00  0.00    +0.000 A 
ATOM     11  C   UNL     1       2.657   3.679  18.600  0.00  0.00    +0.000 A 
ATOM     12  C   UNL     1       3.651   3.789  17.623  0.00  0.00    +0.000 A 
ATOM     13  O   UNL     1       1.898   2.533  18.585  0.00  0.00    +0.000 OA
ATOM     14  C   UNL     1       0.733   2.665  19.410  0.00  0.00    +0.000 C 
ATOM     15  C   UNL     1       1.089   3.298  20.745  0.00  0.00    +0.000 C 
ATOM     16  O   UNL     1       1.562   4.635  20.555  0.00  0.00    +0.000 OA
ENDBRANCH   5   7
BRANCH   1  20
ATOM     17  C   UNL     1       6.153   2.299  11.932  0.00  0.00    +0.000 C 
ATOM     18  C   UNL     1       6.555   3.648  12.459  0.00  0.00    +0.000 C 
ATOM     19  O   UNL     1       7.256   4.433  11.830  0.00  0.00    +0.000 OA
ATOM     20  N   UNL     1       6.064   3.919  13.717  0.00  0.00    +0.000 N 
ATOM     21  H   UNL     1       5.480   3.228  14.174  0.00  0.00    +0.000 HD
ENDBRANCH   1  20
TORSDOF 2
ENDMDL
MODEL 4
REMARK VINA RESULT:      -7.2      3.348      5.245
REMARK  Name = 
REMARK  3 active torsions:
REMARK  status: ('A' for Active; 'I' for Inactive)
REMARK    1  A    between atoms: C_1  and  C_2
REMARK    2  A    between atoms: N_4  and  C_5
REMARK    3  A    between atoms: N_9  and  C_10
REMARK                            x       y       z     vdW  Elec       q    Type
REMARK                         _______ _______ _______ _____ _____    ______ ____
ROOT
ATOM      1  C   UNL     1       6.173   4.658  13.843  0.00  0.00    +0.000 C 
ATOM      2  C   UNL     1       7.332   4.984  14.775  0.00  0.00    +0.000 C 
ATOM      3  C   UNL     1       6.860   4.464  16.112  0.00  0.00    +0.000 C 
ATOM      4  O   UNL     1       7.616   4.293  17.057  0.00  0.00    +0.000 OA
ATOM      5  N   UNL     1       5.470   4.309  16.055  0.00  0.00    +0.000 N 
ATOM      6  C   UNL     1       4.958   4.736  14.771  0.00  0.00    +0.000 C 
ENDROOT
BRANCH   5   7
ATOM      7  C   UNL     1       4.635   3.848  17.103  0.00  0.00    +0.000 A 
ATOM      8  C   UNL     1       4.325   2.486  17.230  0.00  0.00    +0.000 A 
ATOM      9  C   UNL     1       3.459   2.033  18.230  0.00  0.00    +0.000 A 
ATOM     10  C   UNL     1       2.903   2.934  19.128  0.00  0.00    +0.000 A 
ATOM     11  C   UNL     1       3.233   4.287  19.046  0.00  0.00    +0.000 A 
ATOM     12  C   UNL     1       4.073   4.746  18.026  0.00  0.00    +0.000 A 
ATOM     13  O   UNL     1       2.760   5.228  19.928  0.00  0.00    +0.000 OA
ATOM     14  C   UNL     1       2.180   4.616  21.087  0.00  0.00    +0.000 C 
ATOM     15  C   UNL     1       1.280   3.458  20.690  0.00  0.00    +0.000 C 
ATOM     16  O   UNL     1       2.044   2.422  20.065  0.00  0.00    +0.000 OA
ENDBRANCH   5   7
BRANCH   1  20
ATOM     17  C   UNL     1       5.971   1.622  11.571  0.00  0.00    +0.000 C 
ATOM     18  C   UNL     1       5.608   2.974  12.116  0.00  0.00    +0.000 C 
ATOM     19  O   UNL     1       4.738   3.686  11.623  0.00  0.00    +0.000 OA
ATOM     20  N   UNL     1       6.346   3.343  13.219  0.00  0.00    +0.000 N 
ATOM     21  H   UNL     1       7.041   2.700  13.580  0.00  0.00    +0.000 HD
ENDBRANCH   1  20
TORSDOF 2
ENDMDL
MODEL 5
REMARK VINA RESULT:      -7.2      4.363      5.667
REMARK  Name = 
REMARK  3 active torsions:
REMARK  status: ('A' for Active; 'I' for Inactive)
REMARK    1  A    between atoms: C_1  and  C_2
REMARK    2  A    between atoms: N_4  and  C_5
REMARK    3  A    between atoms: N_9  and  C_10
REMARK                            x       y       z     vdW  Elec       q    Type
REMARK                         _______ _______ _______ _____ _____    ______ ____
ROOT
ATOM      1  C   UNL     1       6.239   4.596  13.566  0.00  0.00    +0.000 C 
ATOM      2  C   UNL     1       7.475   4.961  14.375  0.00  0.00    +0.000 C 
ATOM      3  C   UNL     1       7.097   4.571  15.784  0.00  0.00    +0.000 C 
ATOM      4  O   UNL     1       7.921   4.455  16.680  0.00  0.00    +0.000 OA
ATOM      5  N   UNL     1       5.704   4.458  15.846  0.00  0.00    +0.000 N 
ATOM      6  C   UNL     1       5.103   4.791  14.573  0.00  0.00    +0.000 C 
ENDROOT
BRANCH   5   7
ATOM      7  C   UNL     1       4.942   4.114  16.991  0.00  0.00    +0.000 A 
ATOM      8  C   UNL     1       5.469   4.272  18.281  0.00  0.00    +0.000 A 
ATOM      9  C   UNL     1       4.742   3.886  19.411  0.00  0.00    +0.000 A 
ATOM     10  C   UNL     1       3.470   3.349  19.269  0.00  0.00    +0.000 A 
ATOM     11  C   UNL     1       2.910   3.224  17.997  0.00  0.00    +0.000 A 
ATOM     12  C   UNL     1       3.649   3.580  16.864  0.00  0.00    +0.000 A 
ATOM     13  O   UNL     1       1.639   2.747  17.782  0.00  0.00    +0.000 OA
ATOM     14  C   UNL     1       0.880   2.713  18.998  0.00  0.00    +0.000 C 
ATOM     15  C   UNL     1       1.706   2.129  20.132  0.00  0.00    +0.000 C 
ATOM     16  O   UNL     1       2.828   2.969  20.418  0.00  0.00    +0.000 OA
ENDBRANCH   5   7
BRANCH   1  20
ATOM     17  C   UNL     1       5.854   1.415  11.528  0.00  0.00    +0.000 C 
ATOM     18  C   UNL     1       5.578   2.827  11.962  0.00  0.00    +0.000 C 
ATOM     19  O   UNL     1       4.766   3.557  11.402  0.00  0.00    +0.000 OA
ATOM     20  N   UNL     1       6.327   3.229  13.047  0.00  0.00    +0.000 N 
ATOM     21  H   UNL     1       6.972   2.569  13.467  0.00  0.00    +0.000 HD
ENDBRANCH   1  20
TORSDOF 2
ENDMDL
MODEL 6
REMARK VINA RESULT:      -7.1      1.397      2.145
REMARK  Name = 
REMARK  3 active torsions:
REMARK  status: ('A' for Active; 'I' for Inactive)
REMARK    1  A    between atoms: C_1  and  C_2
REMARK    2  A    between atoms: N_4  and  C_5
REMARK    3  A    between atoms: N_9  and  C_10
REMARK                            x       y       z     vdW  Elec       q    Type
REMARK                         _______ _______ _______ _____ _____    ______ ____
ROOT
ATOM      1  C   UNL     1       4.344   3.315  18.742  0.00  0.00    +0.000 C 
ATOM      2  C   UNL     1       3.029   2.893  18.100  0.00  0.00    +0.000 C 
ATOM      3  C   UNL     1       2.225   4.172  18.081  0.00  0.00    +0.000 C 
ATOM      4  O   UNL     1       1.221   4.308  17.399  0.00  0.00    +0.000 OA
ATOM      5  N   UNL     1       2.796   5.060  19.000  0.00  0.00    +0.000 N 
ATOM      6  C   UNL     1       3.917   4.448  19.679  0.00  0.00    +0.000 C 
ENDROOT
BRANCH   5   7
ATOM      7  C   UNL     1       2.341   6.370  19.291  0.00  0.00    +0.000 A 
ATOM      8  C   UNL     1       1.761   6.672  20.532  0.00  0.00    +0.000 A 
ATOM      9  C   UNL     1       1.262   7.949  20.806  0.00  0.00    +0.000 A 
ATOM     10  C   UNL     1       1.350   8.949  19.848  0.00  0.00    +0.000 A 
ATOM     11  C   UNL     1       1.963   8.682  18.622  0.00  0.00    +0.000 A 
ATOM     12  C   UNL     1       2.433   7.396  18.336  0.00  0.00    +0.000 A 
ATOM     13  O   UNL     1       2.129   9.633  17.646  0.00  0.00    +0.000 OA
ATOM     14  C   UNL     1       1.903  10.954  18.156  0.00  0.00    +0.000 C 
ATOM     15  C   UNL     1       0.652  10.991  19.017  0.00  0.00    +0.000 C 
ATOM     16  O   UNL     1       0.817  10.168  20.176  0.00  0.00    +0.000 OA
ENDBRANCH   5   7
BRANCH   1  20
ATOM     17  C   UNL     1       7.362   4.730  16.923  0.00  0.00    +0.000 C 
ATOM     18  C   UNL     1       6.441   4.454  18.078  0.00  0.00    +0.000 C 
ATOM     19  O   UNL     1       6.667   4.833  19.222  0.00  0.00    +0.000 OA
ATOM     20  N   UNL     1       5.320   3.733  17.732  0.00  0.00    +0.000 N 
ATOM     21  H   UNL     1       5.191   3.462  16.763  0.00  0.00    +0.000 HD
ENDBRANCH   1  20
TORSDOF 2
ENDMDL
MODEL 7
REMARK VINA RESULT:      -7.0      1.569      2.854
REMARK  Name = 
REMARK  3 active torsions:
REMARK  status: ('A' for Active; 'I' for Inactive)
REMARK    1  A    between atoms: C_1  and  C_2
REMARK    2  A    between atoms: N_4  and  C_5
REMARK    3  A    between atoms: N_9  and  C_10
REMARK                            x       y       z     vdW  Elec       q    Type
REMARK                         _______ _______ _______ _____ _____    ______ ____
ROOT
ATOM      1  C   UNL     1       4.207   3.824  17.451  0.00  0.00    +0.000 C 
ATOM      2  C   UNL     1       5.231   4.750  16.811  0.00  0.00    +0.000 C 
ATOM      3  C   UNL     1       4.833   6.115  17.320  0.00  0.00    +0.000 C 
ATOM      4  O   UNL     1       5.572   7.086  17.250  0.00  0.00    +0.000 OA
ATOM      5  N   UNL     1       3.513   6.042  17.778  0.00  0.00    +0.000 N 
ATOM      6  C   UNL     1       2.969   4.717  17.571  0.00  0.00    +0.000 C 
ENDROOT
BRANCH   5   7
ATOM      7  C   UNL     1       2.757   7.107  18.330  0.00  0.00    +0.000 A 
ATOM      8  C   UNL     1       2.434   8.234  17.561  0.00  0.00    +0.000 A 
ATOM      9  C   UNL     1       1.735   9.311  18.115  0.00  0.00    +0.000 A 
ATOM     10  C   UNL     1       1.335   9.270  19.443  0.00  0.00    +0.000 A 
ATOM     11  C   UNL     1       1.609   8.138  20.214  0.00  0.00    +0.000 A 
ATOM     12  C   UNL     1       2.336   7.075  19.669  0.00  0.00    +0.000 A 
ATOM     13  O   UNL     1       1.203   8.006  21.520  0.00  0.00    +0.000 OA
ATOM     14  C   UNL     1       0.220   8.991  21.866  0.00  0.00    +0.000 C 
ATOM     15  C   UNL     1       0.631  10.362  21.356  0.00  0.00    +0.000 C 
ATOM     16  O   UNL     1       0.678  10.370  19.926  0.00  0.00    +0.000 OA
ENDBRANCH   5   7
BRANCH   1  20
ATOM     17  C   UNL     1       4.741   1.812  20.628  0.00  0.00    +0.000 C 
ATOM     18  C   UNL     1       4.072   2.240  19.351  0.00  0.00    +0.000 C 
ATOM     19  O   UNL     1       3.079   1.684  18.894  0.00  0.00    +0.000 OA
ATOM     20  N   UNL     1       4.682   3.313  18.740  0.00  0.00    +0.000 N 
ATOM     21  H   UNL     1       5.494   3.731  19.181  0.00  0.00    +0.000 HD
ENDBRANCH   1  20
TORSDOF 2
ENDMDL
MODEL 8
REMARK VINA RESULT:      -6.9      2.513      6.719
REMARK  Name = 
REMARK  3 active torsions:
REMARK  status: ('A' for Active; 'I' for Inactive)
REMARK    1  A    between atoms: C_1  and  C_2
REMARK    2  A    between atoms: N_4  and  C_5
REMARK    3  A    between atoms: N_9  and  C_10
REMARK                            x       y       z     vdW  Elec       q    Type
REMARK                         _______ _______ _______ _____ _____    ______ ____
ROOT
ATOM      1  C   UNL     1       2.485   5.199  20.191  0.00  0.00    +0.000 C 
ATOM      2  C   UNL     1       2.224   6.654  19.827  0.00  0.00    +0.000 C 
ATOM      3  C   UNL     1       3.062   6.858  18.587  0.00  0.00    +0.000 C 
ATOM      4  O   UNL     1       2.911   7.812  17.839  0.00  0.00    +0.000 OA
ATOM      5  N   UNL     1       4.019   5.838  18.535  0.00  0.00    +0.000 N 
ATOM      6  C   UNL     1       3.914   4.974  19.690  0.00  0.00    +0.000 C 
ENDROOT
BRANCH   5   7
ATOM      7  C   UNL     1       5.007   5.666  17.532  0.00  0.00    +0.000 A 
ATOM      8  C   UNL     1       6.313   6.141  17.719  0.00  0.00    +0.000 A 
ATOM      9  C   UNL     1       7.277   6.022  16.714  0.00  0.00    +0.000 A 
ATOM     10  C   UNL     1       6.952   5.412  15.510  0.00  0.00    +0.000 A 
ATOM     11  C   UNL     1       5.670   4.893  15.320  0.00  0.00    +0.000 A 
ATOM     12  C   UNL     1       4.697   5.041  16.314  0.00  0.00    +0.000 A 
ATOM     13  O   UNL     1       5.291   4.235  14.175  0.00  0.00    +0.000 OA
ATOM     14  C   UNL     1       6.426   3.873  13.378  0.00  0.00    +0.000 C 
ATOM     15  C   UNL     1       7.402   5.033  13.273  0.00  0.00    +0.000 C 
ATOM     16  O   UNL     1       7.938   5.353  14.561  0.00  0.00    +0.000 OA
ENDBRANCH   5   7
BRANCH   1  20
ATOM     17  C   UNL     1       0.480   2.193  19.024  0.00  0.00    +0.000 C 
ATOM     18  C   UNL     1       1.617   2.940  19.663  0.00  0.00    +0.000 C 
ATOM     19  O   UNL     1       2.558   2.384  20.221  0.00  0.00    +0.000 OA
ATOM     20  N   UNL     1       1.502   4.309  19.567  0.00  0.00    +0.000 N 
ATOM     21  H   UNL     1       0.703   4.701  19.082  0.00  0.00    +0.000 HD
ENDBRANCH   1  20
TORSDOF 2
ENDMDL
MODEL 9
REMARK VINA RESULT:      -6.9      4.108      4.862
REMARK  Name = 
REMARK  3 active torsions:
REMARK  status: ('A' for Active; 'I' for Inactive)
REMARK    1  A    between atoms: C_1  and  C_2
REMARK    2  A    between atoms: N_4  and  C_5
REMARK    3  A    between atoms: N_9  and  C_10
REMARK                            x       y       z     vdW  Elec       q    Type
REMARK                         _______ _______ _______ _____ _____    ______ ____
ROOT
ATOM      1  C   UNL     1       7.621   5.220  16.507  0.00  0.00    +0.000 C 
ATOM      2  C   UNL     1       7.066   4.704  15.187  0.00  0.00    +0.000 C 
ATOM      3  C   UNL     1       5.634   4.359  15.523  0.00  0.00    +0.000 C 
ATOM      4  O   UNL     1       4.783   4.171  14.666  0.00  0.00    +0.000 OA
ATOM      5  N   UNL     1       5.529   4.238  16.913  0.00  0.00    +0.000 N 
ATOM      6  C   UNL     1       6.815   4.436  17.546  0.00  0.00    +0.000 C 
ENDROOT
BRANCH   5   7
ATOM      7  C   UNL     1       4.354   3.919  17.640  0.00  0.00    +0.000 A 
ATOM      8  C   UNL     1       3.087   4.047  17.052  0.00  0.00    +0.000 A 
ATOM      9  C   UNL     1       1.923   3.784  17.780  0.00  0.00    +0.000 A 
ATOM     10  C   UNL     1       2.009   3.373  19.103  0.00  0.00    +0.000 A 
ATOM     11  C   UNL     1       3.262   3.197  19.693  0.00  0.00    +0.000 A 
ATOM     12  C   UNL     1       4.426   3.491  18.975  0.00  0.00    +0.000 A 
ATOM     13  O   UNL     1       3.425   2.747  20.981  0.00  0.00    +0.000 OA
ATOM     14  C   UNL     1       2.211   2.190  21.501  0.00  0.00    +0.000 C 
ATOM     15  C   UNL     1       1.027   3.086  21.177  0.00  0.00    +0.000 C 
ATOM     16  O   UNL     1       0.827   3.159  19.761  0.00  0.00    +0.000 OA
ENDBRANCH   5   7
BRANCH   1  20
ATOM     17  C   UNL     1       7.653   8.833  17.677  0.00  0.00    +0.000 C 
ATOM     18  C   UNL     1       7.822   7.342  17.769  0.00  0.00    +0.000 C 
ATOM     19  O   UNL     1       8.245   6.775  18.771  0.00  0.00    +0.000 OA
ATOM     20  N   UNL     1       7.460   6.672  16.621  0.00  0.00    +0.000 N 
ATOM     21  H   UNL     1       7.107   7.204  15.834  0.00  0.00    +0.000 HD
ENDBRANCH   1  20
TORSDOF 2
ENDMDL
