MODEL 1
REMARK VINA RESULT:      -7.0      0.000      0.000
REMARK  Name = 
REMARK  11 active torsions:
REMARK  status: ('A' for Active; 'I' for Inactive)
REMARK    1  A    between atoms: C_1  and  O_2
REMARK    2  A    between atoms: O_2  and  C_3
REMARK    3  A    between atoms: C_3  and  C_4
REMARK    4  A    between atoms: C_4  and  O_5
REMARK    5  A    between atoms: C_4  and  C_6
REMARK    6  A    between atoms: C_6  and  N_7
REMARK    7  A    between atoms: C_8  and  C_10
REMARK    8  A    between atoms: C_13  and  C_14
REMARK    9  A    between atoms: C_14  and  O_15
REMARK   10  A    between atoms: O_15  and  C_16
REMARK   11  A    between atoms: C_21  and  C_22
REMARK                            x       y       z     vdW  Elec       q    Type
REMARK                         _______ _______ _______ _____ _____    ______ ____
ROOT
ATOM      1  C   UNL     1       6.465   5.585  17.921  0.00  0.00    +0.000 A 
ATOM      2  C   UNL     1       6.872   5.584  16.607  0.00  0.00    +0.000 A 
ATOM      3  O   UNL     1       7.508   6.754  16.350  0.00  0.00    +0.000 OA
ATOM      4  C   UNL     1       7.457   7.434  17.542  0.00  0.00    +0.000 A 
ATOM      5  N   UNL     1       6.861   6.773  18.520  0.00  0.00    +0.000 NA
ENDROOT
BRANCH   1   7
ATOM      6  N   UNL     1       4.881   3.809  17.763  0.00  0.00    +0.000 N 
ATOM      7  C   UNL     1       5.754   4.490  18.574  0.00  0.00    +0.000 C 
ATOM      8  O   UNL     1       5.921   4.221  19.760  0.00  0.00    +0.000 OA
ATOM      9  H   UNL     1       4.839   4.069  16.783  0.00  0.00    +0.000 HD
BRANCH   6  10
ATOM     10  C   UNL     1       4.082   2.700  18.251  0.00  0.00    +0.000 C 
BRANCH  10  11
ATOM     11  C   UNL     1       2.575   2.973  18.159  0.00  0.00    +0.000 C 
BRANCH  11  12
ATOM     12  O   UNL     1       1.998   2.020  17.250  0.00  0.00    +0.000 OA
ATOM     13  H   UNL     1       1.785   2.482  16.424  0.00  0.00    +0.000 HD
ENDBRANCH  11  12
BRANCH  11  14
ATOM     14  C   UNL     1       2.335   4.418  17.685  0.00  0.00    +0.000 C 
BRANCH  14  16
ATOM     15  C   UNL     1       2.698   6.652  18.359  0.00  0.00    +0.000 C 
ATOM     16  O   UNL     1       2.409   5.327  18.786  0.00  0.00    +0.000 OA
ENDBRANCH  14  16
ENDBRANCH  11  14
ENDBRANCH  10  11
ENDBRANCH   6  10
ENDBRANCH   1   7
BRANCH   4  17
ATOM     17  C   UNL     1       8.136   8.757  17.561  0.00  0.00    +0.000 C 
BRANCH  17  18
ATOM     18  O   UNL     1       8.741   8.918  18.844  0.00  0.00    +0.000 OA
BRANCH  18  19
ATOM     19  C   UNL     1       9.212  10.169  19.150  0.00  0.00    +0.000 A 
ATOM     20  C   UNL     1       9.420  10.666  20.435  0.00  0.00    +0.000 A 
ATOM     21  C   UNL     1       9.915  11.961  20.638  0.00  0.00    +0.000 A 
ATOM     22  C   UNL     1      10.198  12.750  19.513  0.00  0.00    +0.000 A 
ATOM     23  S   UNL     1      10.817  14.354  19.442  0.00  0.00    +0.000 S 
ATOM     24  C   UNL     1      10.767  14.297  17.729  0.00  0.00    +0.000 A 
ATOM     25  C   UNL     1      11.211  15.466  16.921  0.00  0.00    +0.000 C 
ATOM     26  N   UNL     1      10.320  13.175  17.208  0.00  0.00    +0.000 NA
ATOM     27  C   UNL     1       9.994  12.281  18.216  0.00  0.00    +0.000 A 
ATOM     28  C   UNL     1       9.492  10.976  18.039  0.00  0.00    +0.000 A 
ENDBRANCH  18  19
ENDBRANCH  17  18
ENDBRANCH   4  17
TORSDOF 9
ENDMDL
MODEL 2
REMARK VINA RESULT:      -6.9      1.663      2.218
REMARK  Name = 
REMARK  11 active torsions:
REMARK  status: ('A' for Active; 'I' for Inactive)
REMARK    1  A    between atoms: C_1  and  O_2
REMARK    2  A    between atoms: O_2  and  C_3
REMARK    3  A    between atoms: C_3  and  C_4
REMARK    4  A    between atoms: C_4  and  O_5
REMARK    5  A    between atoms: C_4  and  C_6
REMARK    6  A    between atoms: C_6  and  N_7
REMARK    7  A    between atoms: C_8  and  C_10
REMARK    8  A    between atoms: C_13  and  C_14
REMARK    9  A    between atoms: C_14  and  O_15
REMARK   10  A    between atoms: O_15  and  C_16
REMARK   11  A    between atoms: C_21  and  C_22
REMARK                            x       y       z     vdW  Elec       q    Type
REMARK                         _______ _______ _______ _____ _____    ______ ____
ROOT
ATOM      1  C   UNL     1       6.956   5.931  17.582  0.00  0.00    +0.000 A 
ATOM      2  C   UNL     1       7.783   5.917  18.679  0.00  0.00    +0.000 A 
ATOM      3  O   UNL     1       8.329   7.150  18.826  0.00  0.00    +0.000 OA
ATOM      4  C   UNL     1       7.803   7.877  17.786  0.00  0.00    +0.000 A 
ATOM      5  N   UNL     1       6.961   7.201  17.022  0.00  0.00    +0.000 NA
ENDROOT
BRANCH   1   7
ATOM      6  N   UNL     1       5.145   4.419  17.930  0.00  0.00    +0.000 N 
ATOM      7  C   UNL     1       6.180   4.789  17.107  0.00  0.00    +0.000 C 
ATOM      8  O   UNL     1       6.452   4.204  16.063  0.00  0.00    +0.000 OA
ATOM      9  H   UNL     1       4.962   4.986  18.751  0.00  0.00    +0.000 HD
BRANCH   6  10
ATOM     10  C   UNL     1       4.278   3.297  17.619  0.00  0.00    +0.000 C 
BRANCH  10  11
ATOM     11  C   UNL     1       2.826   3.534  18.053  0.00  0.00    +0.000 C 
BRANCH  11  12
ATOM     12  O   UNL     1       1.970   2.731  17.224  0.00  0.00    +0.000 OA
ATOM     13  H   UNL     1       1.192   2.479  17.748  0.00  0.00    +0.000 HD
ENDBRANCH  11  12
BRANCH  11  14
ATOM     14  C   UNL     1       2.484   5.031  17.930  0.00  0.00    +0.000 C 
BRANCH  14  16
ATOM     15  C   UNL     1       2.513   7.091  19.086  0.00  0.00    +0.000 C 
ATOM     16  O   UNL     1       2.580   5.675  19.202  0.00  0.00    +0.000 OA
ENDBRANCH  14  16
ENDBRANCH  11  14
ENDBRANCH  10  11
ENDBRANCH   6  10
ENDBRANCH   1   7
BRANCH   4  17
ATOM     17  C   UNL     1       8.203   9.309  17.731  0.00  0.00    +0.000 C 
BRANCH  17  18
ATOM     18  O   UNL     1       8.996   9.585  18.886  0.00  0.00    +0.000 OA
BRANCH  18  19
ATOM     19  C   UNL     1       9.557  10.833  18.963  0.00  0.00    +0.000 A 
ATOM     20  C   UNL     1      10.262  11.471  17.943  0.00  0.00    +0.000 A 
ATOM     21  C   UNL     1      10.790  12.756  18.125  0.00  0.00    +0.000 A 
ATOM     22  C   UNL     1      10.593  13.389  19.361  0.00  0.00    +0.000 A 
ATOM     23  S   UNL     1      11.106  14.950  19.873  0.00  0.00    +0.000 S 
ATOM     24  C   UNL     1      10.377  14.687  21.403  0.00  0.00    +0.000 A 
ATOM     25  C   UNL     1      10.434  15.737  22.457  0.00  0.00    +0.000 C 
ATOM     26  N   UNL     1       9.784  13.524  21.560  0.00  0.00    +0.000 NA
ATOM     27  C   UNL     1       9.898  12.773  20.400  0.00  0.00    +0.000 A 
ATOM     28  C   UNL     1       9.380  11.478  20.193  0.00  0.00    +0.000 A 
ENDBRANCH  18  19
ENDBRANCH  17  18
ENDBRANCH   4  17
TORSDOF 9
ENDMDL
MODEL 3
REMARK VINA RESULT:      -6.8      1.468      1.683
REMARK  Name = 
REMARK  11 active torsions:
REMARK  status: ('A' for Active; 'I' for Inactive)
REMARK    1  A    between atoms: C_1  and  O_2
REMARK    2  A    between atoms: O_2  and  C_3
REMARK    3  A    between atoms: C_3  and  C_4
REMARK    4  A    between atoms: C_4  and  O_5
REMARK    5  A    between atoms: C_4  and  C_6
REMARK    6  A    between atoms: C_6  and  N_7
REMARK    7  A    between atoms: C_8  and  C_10
REMARK    8  A    between atoms: C_13  and  C_14
REMARK    9  A    between atoms: C_14  and  O_15
REMARK   10  A    between atoms: O_15  and  C_16
REMARK   11  A    between atoms: C_21  and  C_22
REMARK                            x       y       z     vdW  Elec       q    Type
REMARK                         _______ _______ _______ _____ _____    ______ ____
ROOT
ATOM      1  C   UNL     1       6.034   5.172  17.142  0.00  0.00    +0.000 A 
ATOM      2  C   UNL     1       6.800   5.512  16.052  0.00  0.00    +0.000 A 
ATOM      3  O   UNL     1       7.667   6.488  16.420  0.00  0.00    +0.000 OA
ATOM      4  C   UNL     1       7.383   6.709  17.745  0.00  0.00    +0.000 A 
ATOM      5  N   UNL     1       6.427   5.936  18.233  0.00  0.00    +0.000 NA
ENDROOT
BRANCH   1   7
ATOM      6  N   UNL     1       4.779   3.551  18.361  0.00  0.00    +0.000 N 
ATOM      7  C   UNL     1       4.993   4.147  17.144  0.00  0.00    +0.000 C 
ATOM      8  O   UNL     1       4.378   3.842  16.127  0.00  0.00    +0.000 OA
ATOM      9  H   UNL     1       5.300   3.896  19.160  0.00  0.00    +0.000 HD
BRANCH   6  10
ATOM     10  C   UNL     1       3.790   2.504  18.542  0.00  0.00    +0.000 C 
BRANCH  10  11
ATOM     11  C   UNL     1       2.385   3.058  18.809  0.00  0.00    +0.000 C 
BRANCH  11  12
ATOM     12  O   UNL     1       1.716   3.220  17.547  0.00  0.00    +0.000 OA
ATOM     13  H   UNL     1       2.390   3.373  16.865  0.00  0.00    +0.000 HD
ENDBRANCH  11  12
BRANCH  11  14
ATOM     14  C   UNL     1       2.488   4.395  19.567  0.00  0.00    +0.000 C 
BRANCH  14  16
ATOM     15  C   UNL     1       1.809   3.207  21.491  0.00  0.00    +0.000 C 
ATOM     16  O   UNL     1       2.713   4.167  20.959  0.00  0.00    +0.000 OA
ENDBRANCH  14  16
ENDBRANCH  11  14
ENDBRANCH  10  11
ENDBRANCH   6  10
ENDBRANCH   1   7
BRANCH   4  17
ATOM     17  C   UNL     1       8.235   7.719  18.429  0.00  0.00    +0.000 C 
BRANCH  17  18
ATOM     18  O   UNL     1       7.969   8.989  17.834  0.00  0.00    +0.000 OA
BRANCH  18  19
ATOM     19  C   UNL     1       8.580  10.076  18.403  0.00  0.00    +0.000 A 
ATOM     20  C   UNL     1       9.327  10.063  19.580  0.00  0.00    +0.000 A 
ATOM     21  C   UNL     1       9.918  11.233  20.073  0.00  0.00    +0.000 A 
ATOM     22  C   UNL     1       9.741  12.424  19.353  0.00  0.00    +0.000 A 
ATOM     23  S   UNL     1      10.344  13.999  19.697  0.00  0.00    +0.000 S 
ATOM     24  C   UNL     1       9.582  14.599  18.283  0.00  0.00    +0.000 A 
ATOM     25  C   UNL     1       9.699  16.036  17.914  0.00  0.00    +0.000 C 
ATOM     26  N   UNL     1       8.909  13.716  17.579  0.00  0.00    +0.000 NA
ATOM     27  C   UNL     1       8.994  12.467  18.177  0.00  0.00    +0.000 A 
ATOM     28  C   UNL     1       8.406  11.276  17.704  0.00  0.00    +0.000 A 
ENDBRANCH  18  19
ENDBRANCH  17  18
ENDBRANCH   4  17
TORSDOF 9
ENDMDL
MODEL 4
REMARK VINA RESULT:      -6.8      1.036      1.058
REMARK  Name = 
REMARK  11 active torsions:
REMARK  status: ('A' for Active; 'I' for Inactive)
REMARK    1  A    between atoms: C_1  and  O_2
REMARK    2  A    between atoms: O_2  and  C_3
REMARK    3  A    between atoms: C_3  and  C_4
REMARK    4  A    between atoms: C_4  and  O_5
REMARK    5  A    between atoms: C_4  and  C_6
REMARK    6  A    between atoms: C_6  and  N_7
REMARK    7  A    between atoms: C_8  and  C_10
REMARK    8  A    between atoms: C_13  and  C_14
REMARK    9  A    between atoms: C_14  and  O_15
REMARK   10  A    between atoms: O_15  and  C_16
REMARK   11  A    between atoms: C_21  and  C_22
REMARK                            x       y       z     vdW  Elec       q    Type
REMARK                         _______ _______ _______ _____ _____    ______ ____
ROOT
ATOM      1  C   UNL     1       6.223   5.642  17.461  0.00  0.00    +0.000 A 
ATOM      2  C   UNL     1       7.184   5.584  16.479  0.00  0.00    +0.000 A 
ATOM      3  O   UNL     1       7.814   6.784  16.419  0.00  0.00    +0.000 OA
ATOM      4  C   UNL     1       7.193   7.539  17.384  0.00  0.00    +0.000 A 
ATOM      5  N   UNL     1       6.246   6.898  18.050  0.00  0.00    +0.000 NA
ENDROOT
BRANCH   1   7
ATOM      6  N   UNL     1       4.987   4.508  19.156  0.00  0.00    +0.000 N 
ATOM      7  C   UNL     1       5.342   4.537  17.831  0.00  0.00    +0.000 C 
ATOM      8  O   UNL     1       4.969   3.700  17.015  0.00  0.00    +0.000 OA
ATOM      9  H   UNL     1       5.303   5.266  19.752  0.00  0.00    +0.000 HD
BRANCH   6  10
ATOM     10  C   UNL     1       4.127   3.473  19.700  0.00  0.00    +0.000 C 
BRANCH  10  11
ATOM     11  C   UNL     1       2.640   3.842  19.626  0.00  0.00    +0.000 C 
BRANCH  11  12
ATOM     12  O   UNL     1       2.125   3.392  18.361  0.00  0.00    +0.000 OA
ATOM     13  H   UNL     1       1.394   2.778  18.535  0.00  0.00    +0.000 HD
ENDBRANCH  11  12
BRANCH  11  14
ATOM     14  C   UNL     1       2.472   5.364  19.793  0.00  0.00    +0.000 C 
BRANCH  14  16
ATOM     15  C   UNL     1       2.510   7.406  18.606  0.00  0.00    +0.000 C 
ATOM     16  O   UNL     1       2.338   5.997  18.518  0.00  0.00    +0.000 OA
ENDBRANCH  14  16
ENDBRANCH  11  14
ENDBRANCH  10  11
ENDBRANCH   6  10
ENDBRANCH   1   7
BRANCH   4  17
ATOM     17  C   UNL     1       7.728   8.914  17.573  0.00  0.00    +0.000 C 
BRANCH  17  18
ATOM     18  O   UNL     1       8.605   8.889  18.699  0.00  0.00    +0.000 OA
BRANCH  18  19
ATOM     19  C   UNL     1       9.180  10.081  19.059  0.00  0.00    +0.000 A 
ATOM     20  C   UNL     1       9.507  10.465  20.358  0.00  0.00    +0.000 A 
ATOM     21  C   UNL     1      10.101  11.707  20.615  0.00  0.00    +0.000 A 
ATOM     22  C   UNL     1      10.360  12.561  19.533  0.00  0.00    +0.000 A 
ATOM     23  S   UNL     1      11.079  14.124  19.531  0.00  0.00    +0.000 S 
ATOM     24  C   UNL     1      10.909  14.200  17.826  0.00  0.00    +0.000 A 
ATOM     25  C   UNL     1      11.374  15.398  17.074  0.00  0.00    +0.000 C 
ATOM     26  N   UNL     1      10.353  13.151  17.261  0.00  0.00    +0.000 NA
ATOM     27  C   UNL     1      10.037  12.205  18.224  0.00  0.00    +0.000 A 
ATOM     28  C   UNL     1       9.437  10.951  17.991  0.00  0.00    +0.000 A 
ENDBRANCH  18  19
ENDBRANCH  17  18
ENDBRANCH   4  17
TORSDOF 9
ENDMDL
MODEL 5
REMARK VINA RESULT:      -6.7      1.490      1.890
REMARK  Name = 
REMARK  11 active torsions:
REMARK  status: ('A' for Active; 'I' for Inactive)
REMARK    1  A    between atoms: C_1  and  O_2
REMARK    2  A    between atoms: O_2  and  C_3
REMARK    3  A    between atoms: C_3  and  C_4
REMARK    4  A    between atoms: C_4  and  O_5
REMARK    5  A    between atoms: C_4  and  C_6
REMARK    6  A    between atoms: C_6  and  N_7
REMARK    7  A    between atoms: C_8  and  C_10
REMARK    8  A    between atoms: C_13  and  C_14
REMARK    9  A    between atoms: C_14  and  O_15
REMARK   10  A    between atoms: O_15  and  C_16
REMARK   11  A    between atoms: C_21  and  C_22
REMARK                            x       y       z     vdW  Elec       q    Type
REMARK                         _______ _______ _______ _____ _____    ______ ____
ROOT
ATOM      1  C   UNL     1       6.783   6.531  17.288  0.00  0.00    +0.000 A 
ATOM      2  C   UNL     1       7.606   6.225  18.346  0.00  0.00    +0.000 A 
ATOM      3  O   UNL     1       8.308   7.335  18.685  0.00  0.00    +0.000 OA
ATOM      4  C   UNL     1       7.878   8.290  17.796  0.00  0.00    +0.000 A 
ATOM      5  N   UNL     1       6.952   7.867  16.950  0.00  0.00    +0.000 NA
ENDROOT
BRANCH   1   7
ATOM      6  N   UNL     1       5.445   4.564  17.452  0.00  0.00    +0.000 N 
ATOM      7  C   UNL     1       5.863   5.595  16.648  0.00  0.00    +0.000 C 
ATOM      8  O   UNL     1       5.514   5.722  15.478  0.00  0.00    +0.000 OA
ATOM      9  H   UNL     1       5.747   4.561  18.420  0.00  0.00    +0.000 HD
BRANCH   6  10
ATOM     10  C   UNL     1       4.539   3.536  16.975  0.00  0.00    +0.000 C 
BRANCH  10  11
ATOM     11  C   UNL     1       3.303   3.376  17.869  0.00  0.00    +0.000 C 
BRANCH  11  12
ATOM     12  O   UNL     1       2.142   3.295  17.025  0.00  0.00    +0.000 OA
ATOM     13  H   UNL     1       1.406   3.732  17.483  0.00  0.00    +0.000 HD
ENDBRANCH  11  12
BRANCH  11  14
ATOM     14  C   UNL     1       3.208   4.565  18.844  0.00  0.00    +0.000 C 
BRANCH  14  16
ATOM     15  C   UNL     1       3.421   2.747  20.336  0.00  0.00    +0.000 C 
ATOM     16  O   UNL     1       3.020   4.103  20.183  0.00  0.00    +0.000 OA
ENDBRANCH  14  16
ENDBRANCH  11  14
ENDBRANCH  10  11
ENDBRANCH   6  10
ENDBRANCH   1   7
BRANCH   4  17
ATOM     17  C   UNL     1       8.460   9.647  17.973  0.00  0.00    +0.000 C 
BRANCH  17  18
ATOM     18  O   UNL     1       9.121   9.676  19.238  0.00  0.00    +0.000 OA
BRANCH  18  19
ATOM     19  C   UNL     1       9.510  10.907  19.701  0.00  0.00    +0.000 A 
ATOM     20  C   UNL     1       9.348  11.372  21.005  0.00  0.00    +0.000 A 
ATOM     21  C   UNL     1       9.791  12.648  21.376  0.00  0.00    +0.000 A 
ATOM     22  C   UNL     1      10.404  13.451  20.403  0.00  0.00    +0.000 A 
ATOM     23  S   UNL     1      11.051  15.038  20.557  0.00  0.00    +0.000 S 
ATOM     24  C   UNL     1      11.498  15.016  18.902  0.00  0.00    +0.000 A 
ATOM     25  C   UNL     1      12.181  16.188  18.289  0.00  0.00    +0.000 C 
ATOM     26  N   UNL     1      11.197  13.918  18.244  0.00  0.00    +0.000 NA
ATOM     27  C   UNL     1      10.574  13.013  19.090  0.00  0.00    +0.000 A 
ATOM     28  C   UNL     1      10.116  11.726  18.741  0.00  0.00    +0.000 A 
ENDBRANCH  18  19
ENDBRANCH  17  18
ENDBRANCH   4  17
TORSDOF 9
ENDMDL
MODEL 6
REMARK VINA RESULT:      -6.6      6.675      9.483
REMARK  Name = 
REMARK  11 active torsions:
REMARK  status: ('A' for Active; 'I' for Inactive)
REMARK    1  A    between atoms: C_1  and  O_2
REMARK    2  A    between atoms: O_2  and  C_3
REMARK    3  A    between atoms: C_3  and  C_4
REMARK    4  A    between atoms: C_4  and  O_5
REMARK    5  A    between atoms: C_4  and  C_6
REMARK    6  A    between atoms: C_6  and  N_7
REMARK    7  A    between atoms: C_8  and  C_10
REMARK    8  A    between atoms: C_13  and  C_14
REMARK    9  A    between atoms: C_14  and  O_15
REMARK   10  A    between atoms: O_15  and  C_16
REMARK   11  A    between atoms: C_21  and  C_22
REMARK                            x       y       z     vdW  Elec       q    Type
REMARK                         _______ _______ _______ _____ _____    ______ ____
ROOT
ATOM      1  C   UNL     1       2.754   7.231  18.600  0.00  0.00    +0.000 A 
ATOM      2  C   UNL     1       2.233   7.381  19.864  0.00  0.00    +0.000 A 
ATOM      3  O   UNL     1       1.424   8.470  19.871  0.00  0.00    +0.000 OA
ATOM      4  C   UNL     1       1.492   8.950  18.587  0.00  0.00    +0.000 A 
ATOM      5  N   UNL     1       2.260   8.235  17.779  0.00  0.00    +0.000 NA
ENDROOT
BRANCH   1   7
ATOM      6  N   UNL     1       3.653   5.061  19.014  0.00  0.00    +0.000 N 
ATOM      7  C   UNL     1       3.664   6.163  18.195  0.00  0.00    +0.000 C 
ATOM      8  O   UNL     1       4.386   6.261  17.208  0.00  0.00    +0.000 OA
ATOM      9  H   UNL     1       2.991   5.044  19.782  0.00  0.00    +0.000 HD
BRANCH   6  10
ATOM     10  C   UNL     1       4.503   3.911  18.767  0.00  0.00    +0.000 C 
BRANCH  10  11
ATOM     11  C   UNL     1       3.971   2.631  19.425  0.00  0.00    +0.000 C 
BRANCH  11  12
ATOM     12  O   UNL     1       5.086   1.911  19.979  0.00  0.00    +0.000 OA
ATOM     13  H   UNL     1       4.904   1.752  20.919  0.00  0.00    +0.000 HD
ENDBRANCH  11  12
BRANCH  11  14
ATOM     14  C   UNL     1       3.217   1.784  18.382  0.00  0.00    +0.000 C 
BRANCH  14  16
ATOM     15  C   UNL     1       0.984   2.454  18.757  0.00  0.00    +0.000 C 
ATOM     16  O   UNL     1       2.094   2.502  17.869  0.00  0.00    +0.000 OA
ENDBRANCH  14  16
ENDBRANCH  11  14
ENDBRANCH  10  11
ENDBRANCH   6  10
ENDBRANCH   1   7
BRANCH   4  17
ATOM     17  C   UNL     1       0.646  10.137  18.294  0.00  0.00    +0.000 C 
BRANCH  17  18
ATOM     18  O   UNL     1      -0.477   9.695  17.531  0.00  0.00    +0.000 OA
BRANCH  18  19
ATOM     19  C   UNL     1      -1.682  10.284  17.811  0.00  0.00    +0.000 A 
ATOM     20  C   UNL     1      -2.876  10.055  17.129  0.00  0.00    +0.000 A 
ATOM     21  C   UNL     1      -4.058  10.706  17.502  0.00  0.00    +0.000 A 
ATOM     22  C   UNL     1      -4.015  11.599  18.583  0.00  0.00    +0.000 A 
ATOM     23  S   UNL     1      -5.287  12.529  19.274  0.00  0.00    +0.000 S 
ATOM     24  C   UNL     1      -4.190  13.179  20.420  0.00  0.00    +0.000 A 
ATOM     25  C   UNL     1      -4.656  14.155  21.442  0.00  0.00    +0.000 C 
ATOM     26  N   UNL     1      -2.948  12.759  20.323  0.00  0.00    +0.000 NA
ATOM     27  C   UNL     1      -2.834  11.853  19.280  0.00  0.00    +0.000 A 
ATOM     28  C   UNL     1      -1.656  11.187  18.881  0.00  0.00    +0.000 A 
ENDBRANCH  18  19
ENDBRANCH  17  18
ENDBRANCH   4  17
TORSDOF 9
ENDMDL
MODEL 7
REMARK VINA RESULT:      -6.6      7.044     10.065
REMARK  Name = 
REMARK  11 active torsions:
REMARK  status: ('A' for Active; 'I' for Inactive)
REMARK    1  A    between atoms: C_1  and  O_2
REMARK    2  A    between atoms: O_2  and  C_3
REMARK    3  A    between atoms: C_3  and  C_4
REMARK    4  A    between atoms: C_4  and  O_5
REMARK    5  A    between atoms: C_4  and  C_6
REMARK    6  A    between atoms: C_6  and  N_7
REMARK    7  A    between atoms: C_8  and  C_10
REMARK    8  A    between atoms: C_13  and  C_14
REMARK    9  A    between atoms: C_14  and  O_15
REMARK   10  A    between atoms: O_15  and  C_16
REMARK   11  A    between atoms: C_21  and  C_22
REMARK                            x       y       z     vdW  Elec       q    Type
REMARK                         _______ _______ _______ _____ _____    ______ ____
ROOT
ATOM      1  C   UNL     1       2.146   7.853  19.168  0.00  0.00    +0.000 A 
ATOM      2  C   UNL     1       2.328   8.497  17.967  0.00  0.00    +0.000 A 
ATOM      3  O   UNL     1       1.686   9.692  18.016  0.00  0.00    +0.000 OA
ATOM      4  C   UNL     1       1.125   9.722  19.268  0.00  0.00    +0.000 A 
ATOM      5  N   UNL     1       1.384   8.655  20.007  0.00  0.00    +0.000 NA
ENDROOT
BRANCH   1   7
ATOM      6  N   UNL     1       2.049   5.894  20.525  0.00  0.00    +0.000 N 
ATOM      7  C   UNL     1       2.697   6.543  19.504  0.00  0.00    +0.000 C 
ATOM      8  O   UNL     1       3.672   6.077  18.921  0.00  0.00    +0.000 OA
ATOM      9  H   UNL     1       1.223   6.331  20.920  0.00  0.00    +0.000 HD
BRANCH   6  10
ATOM     10  C   UNL     1       2.470   4.588  20.997  0.00  0.00    +0.000 C 
BRANCH  10  11
ATOM     11  C   UNL     1       1.313   3.582  21.062  0.00  0.00    +0.000 C 
BRANCH  11  12
ATOM     12  O   UNL     1       1.664   2.550  21.999  0.00  0.00    +0.000 OA
ATOM     13  H   UNL     1       1.435   2.860  22.890  0.00  0.00    +0.000 HD
ENDBRANCH  11  12
BRANCH  11  14
ATOM     14  C   UNL     1       1.047   3.002  19.660  0.00  0.00    +0.000 C 
BRANCH  14  16
ATOM     15  C   UNL     1       2.781   1.958  18.442  0.00  0.00    +0.000 C 
ATOM     16  O   UNL     1       2.183   3.194  18.814  0.00  0.00    +0.000 OA
ENDBRANCH  14  16
ENDBRANCH  11  14
ENDBRANCH  10  11
ENDBRANCH   6  10
ENDBRANCH   1   7
BRANCH   4  17
ATOM     17  C   UNL     1       0.386  10.966  19.616  0.00  0.00    +0.000 C 
BRANCH  17  18
ATOM     18  O   UNL     1      -0.179  11.487  18.413  0.00  0.00    +0.000 OA
BRANCH  18  19
ATOM     19  C   UNL     1      -1.523  11.287  18.228  0.00  0.00    +0.000 A 
ATOM     20  C   UNL     1      -2.095  10.437  17.281  0.00  0.00    +0.000 A 
ATOM     21  C   UNL     1      -3.485  10.300  17.181  0.00  0.00    +0.000 A 
ATOM     22  C   UNL     1      -4.294  11.039  18.056  0.00  0.00    +0.000 A 
ATOM     23  S   UNL     1      -6.009  11.074  18.179  0.00  0.00    +0.000 S 
ATOM     24  C   UNL     1      -5.895  12.207  19.461  0.00  0.00    +0.000 A 
ATOM     25  C   UNL     1      -7.123  12.728  20.121  0.00  0.00    +0.000 C 
ATOM     26  N   UNL     1      -4.675  12.563  19.801  0.00  0.00    +0.000 NA
ATOM     27  C   UNL     1      -3.750  11.901  19.008  0.00  0.00    +0.000 A 
ATOM     28  C   UNL     1      -2.347  12.024  19.086  0.00  0.00    +0.000 A 
ENDBRANCH  18  19
ENDBRANCH  17  18
ENDBRANCH   4  17
TORSDOF 9
ENDMDL
MODEL 8
REMARK VINA RESULT:      -6.6      1.175      1.526
REMARK  Name = 
REMARK  11 active torsions:
REMARK  status: ('A' for Active; 'I' for Inactive)
REMARK    1  A    between atoms: C_1  and  O_2
REMARK    2  A    between atoms: O_2  and  C_3
REMARK    3  A    between atoms: C_3  and  C_4
REMARK    4  A    between atoms: C_4  and  O_5
REMARK    5  A    between atoms: C_4  and  C_6
REMARK    6  A    between atoms: C_6  and  N_7
REMARK    7  A    between atoms: C_8  and  C_10
REMARK    8  A    between atoms: C_13  and  C_14
REMARK    9  A    between atoms: C_14  and  O_15
REMARK   10  A    between atoms: O_15  and  C_16
REMARK   11  A    between atoms: C_21  and  C_22
REMARK                            x       y       z     vdW  Elec       q    Type
REMARK                         _______ _______ _______ _____ _____    ______ ____
ROOT
ATOM      1  C   UNL     1       6.081   5.632  18.020  0.00  0.00    +0.000 A 
ATOM      2  C   UNL     1       5.771   6.532  17.027  0.00  0.00    +0.000 A 
ATOM      3  O   UNL     1       6.675   7.543  17.062  0.00  0.00    +0.000 OA
ATOM      4  C   UNL     1       7.512   7.212  18.100  0.00  0.00    +0.000 A 
ATOM      5  N   UNL     1       7.213   6.069  18.695  0.00  0.00    +0.000 NA
ENDROOT
BRANCH   1   7
ATOM      6  N   UNL     1       4.444   4.047  17.316  0.00  0.00    +0.000 N 
ATOM      7  C   UNL     1       5.342   4.403  18.291  0.00  0.00    +0.000 C 
ATOM      8  O   UNL     1       5.508   3.756  19.321  0.00  0.00    +0.000 OA
ATOM      9  H   UNL     1       4.404   4.614  16.475  0.00  0.00    +0.000 HD
BRANCH   6  10
ATOM     10  C   UNL     1       3.616   2.861  17.427  0.00  0.00    +0.000 C 
BRANCH  10  11
ATOM     11  C   UNL     1       2.209   3.170  17.956  0.00  0.00    +0.000 C 
BRANCH  11  12
ATOM     12  O   UNL     1       2.079   4.596  18.087  0.00  0.00    +0.000 OA
ATOM     13  H   UNL     1       2.472   5.008  17.301  0.00  0.00    +0.000 HD
ENDBRANCH  11  12
BRANCH  11  14
ATOM     14  C   UNL     1       1.993   2.460  19.306  0.00  0.00    +0.000 C 
BRANCH  14  16
ATOM     15  C   UNL     1       1.530   2.816  21.595  0.00  0.00    +0.000 C 
ATOM     16  O   UNL     1       1.946   3.411  20.372  0.00  0.00    +0.000 OA
ENDBRANCH  14  16
ENDBRANCH  11  14
ENDBRANCH  10  11
ENDBRANCH   6  10
ENDBRANCH   1   7
BRANCH   4  17
ATOM     17  C   UNL     1       8.648   8.142  18.336  0.00  0.00    +0.000 C 
BRANCH  17  18
ATOM     18  O   UNL     1       8.131   9.473  18.325  0.00  0.00    +0.000 OA
BRANCH  18  19
ATOM     19  C   UNL     1       8.969  10.462  18.770  0.00  0.00    +0.000 A 
ATOM     20  C   UNL     1       9.487  10.568  20.061  0.00  0.00    +0.000 A 
ATOM     21  C   UNL     1      10.345  11.619  20.410  0.00  0.00    +0.000 A 
ATOM     22  C   UNL     1      10.673  12.567  19.430  0.00  0.00    +0.000 A 
ATOM     23  S   UNL     1      11.695  13.945  19.553  0.00  0.00    +0.000 S 
ATOM     24  C   UNL     1      11.389  14.320  17.908  0.00  0.00    +0.000 A 
ATOM     25  C   UNL     1      12.019  15.510  17.274  0.00  0.00    +0.000 C 
ATOM     26  N   UNL     1      10.580  13.497  17.276  0.00  0.00    +0.000 NA
ATOM     27  C   UNL     1      10.165  12.489  18.133  0.00  0.00    +0.000 A 
ATOM     28  C   UNL     1       9.301  11.424  17.808  0.00  0.00    +0.000 A 
ENDBRANCH  18  19
ENDBRANCH  17  18
ENDBRANCH   4  17
TORSDOF 9
ENDMDL
MODEL 9
REMARK VINA RESULT:      -6.6      1.393      2.071
REMARK  Name = 
REMARK  11 active torsions:
REMARK  status: ('A' for Active; 'I' for Inactive)
REMARK    1  A    between atoms: C_1  and  O_2
REMARK    2  A    between atoms: O_2  and  C_3
REMARK    3  A    between atoms: C_3  and  C_4
REMARK    4  A    between atoms: C_4  and  O_5
REMARK    5  A    between atoms: C_4  and  C_6
REMARK    6  A    between atoms: C_6  and  N_7
REMARK    7  A    between atoms: C_8  and  C_10
REMARK    8  A    between atoms: C_13  and  C_14
REMARK    9  A    between atoms: C_14  and  O_15
REMARK   10  A    between atoms: O_15  and  C_16
REMARK   11  A    between atoms: C_21  and  C_22
REMARK                            x       y       z     vdW  Elec       q    Type
REMARK                         _______ _______ _______ _____ _____    ______ ____
ROOT
ATOM      1  C   UNL     1       6.237   6.414  17.510  0.00  0.00    +0.000 A 
ATOM      2  C   UNL     1       7.168   5.963  18.415  0.00  0.00    +0.000 A 
ATOM      3  O   UNL     1       8.123   6.915  18.564  0.00  0.00    +0.000 OA
ATOM      4  C   UNL     1       7.727   7.924  17.721  0.00  0.00    +0.000 A 
ATOM      5  N   UNL     1       6.595   7.684  17.079  0.00  0.00    +0.000 NA
ENDROOT
BRANCH   1   7
ATOM      6  N   UNL     1       4.050   5.621  18.035  0.00  0.00    +0.000 N 
ATOM      7  C   UNL     1       5.049   5.672  17.095  0.00  0.00    +0.000 C 
ATOM      8  O   UNL     1       4.970   5.129  15.998  0.00  0.00    +0.000 OA
ATOM      9  H   UNL     1       4.180   6.137  18.898  0.00  0.00    +0.000 HD
BRANCH   6  10
ATOM     10  C   UNL     1       2.804   4.915  17.796  0.00  0.00    +0.000 C 
BRANCH  10  11
ATOM     11  C   UNL     1       2.411   4.000  18.962  0.00  0.00    +0.000 C 
BRANCH  11  12
ATOM     12  O   UNL     1       1.496   4.715  19.809  0.00  0.00    +0.000 OA
ATOM     13  H   UNL     1       1.936   4.878  20.659  0.00  0.00    +0.000 HD
ENDBRANCH  11  12
BRANCH  11  14
ATOM     14  C   UNL     1       3.672   3.569  19.734  0.00  0.00    +0.000 C 
BRANCH  14  16
ATOM     15  C   UNL     1       3.500   1.515  18.582  0.00  0.00    +0.000 C 
ATOM     16  O   UNL     1       4.373   2.548  19.022  0.00  0.00    +0.000 OA
ENDBRANCH  14  16
ENDBRANCH  11  14
ENDBRANCH  10  11
ENDBRANCH   6  10
ENDBRANCH   1   7
BRANCH   4  17
ATOM     17  C   UNL     1       8.585   9.139  17.720  0.00  0.00    +0.000 C 
BRANCH  17  18
ATOM     18  O   UNL     1       8.627   9.644  19.055  0.00  0.00    +0.000 OA
BRANCH  18  19
ATOM     19  C   UNL     1       9.390  10.763  19.266  0.00  0.00    +0.000 A 
ATOM     20  C   UNL     1      10.125  11.039  20.418  0.00  0.00    +0.000 A 
ATOM     21  C   UNL     1      10.880  12.213  20.529  0.00  0.00    +0.000 A 
ATOM     22  C   UNL     1      10.882  13.110  19.450  0.00  0.00    +0.000 A 
ATOM     23  S   UNL     1      11.709  14.610  19.287  0.00  0.00    +0.000 S 
ATOM     24  C   UNL     1      11.046  14.806  17.718  0.00  0.00    +0.000 A 
ATOM     25  C   UNL     1      11.374  16.008  16.904  0.00  0.00    +0.000 C 
ATOM     26  N   UNL     1      10.252  13.840  17.310  0.00  0.00    +0.000 NA
ATOM     27  C   UNL     1      10.152  12.863  18.288  0.00  0.00    +0.000 A 
ATOM     28  C   UNL     1       9.396  11.675  18.203  0.00  0.00    +0.000 A 
ENDBRANCH  18  19
ENDBRANCH  17  18
ENDBRANCH   4  17
TORSDOF 9
ENDMDL
