MODEL 1
REMARK VINA RESULT:      -9.1      0.000      0.000
REMARK  Name = 
REMARK  12 active torsions:
REMARK  status: ('A' for Active; 'I' for Inactive)
REMARK    1  A    between atoms: C_1  and  C_2
REMARK    2  A    between atoms: C_2  and  C_3
REMARK    3  A    between atoms: C_3  and  O_4
REMARK    4  A    between atoms: O_4  and  C_5
REMARK    5  A    between atoms: C_5  and  C_7
REMARK    6  A    between atoms: N_14  and  C_15
REMARK    7  A    between atoms: C_15  and  C_16
REMARK    8  A    between atoms: C_16  and  C_18
REMARK    9  A    between atoms: C_24  and  N_25
REMARK   10  A    between atoms: N_25  and  C_26
REMARK   11  A    between atoms: C_26  and  C_27
REMARK   12  A    between atoms: C_27  and  C_28
REMARK                            x       y       z     vdW  Elec       q    Type
REMARK                         _______ _______ _______ _____ _____    ______ ____
ROOT
ATOM      1  C   UNL     1       6.362   4.951  15.487  0.00  0.00    +0.000 A 
ATOM      2  C   UNL     1       5.273   4.076  15.539  0.00  0.00    +0.000 A 
ATOM      3  N   UNL     1       4.608   3.685  16.656  0.00  0.00    +0.000 NA
ATOM      4  C   UNL     1       5.132   4.221  17.773  0.00  0.00    +0.000 A 
ATOM      5  C   UNL     1       6.187   5.129  17.851  0.00  0.00    +0.000 A 
ATOM      6  C   UNL     1       6.288   5.392  19.243  0.00  0.00    +0.000 A 
ATOM      7  N   UNL     1       5.401   4.708  19.978  0.00  0.00    +0.000 NA
ATOM      8  N   UNL     1       4.726   3.979  19.061  0.00  0.00    +0.000 N 
ATOM      9  C   UNL     1       6.841   5.572  16.665  0.00  0.00    +0.000 A 
ENDROOT
BRANCH   1  10
ATOM     10  C   UNL     1       7.019   5.008  14.165  0.00  0.00    +0.000 C 
ATOM     11  O   UNL     1       8.096   5.551  13.965  0.00  0.00    +0.000 OA
BRANCH  10  12
ATOM     12  O   UNL     1       6.165   4.544  13.209  0.00  0.00    +0.000 OA
BRANCH  12  13
ATOM     13  C   UNL     1       6.679   3.635  12.229  0.00  0.00    +0.000 C 
BRANCH  13  15
ATOM     14  C   UNL     1       4.324   3.172  11.356  0.00  0.00    +0.000 C 
ATOM     15  C   UNL     1       5.661   2.588  11.782  0.00  0.00    +0.000 C 
ENDBRANCH  13  15
ENDBRANCH  12  13
ENDBRANCH  10  12
ENDBRANCH   1  10
BRANCH   9  16
ATOM     16  N   UNL     1       7.833   6.543  16.732  0.00  0.00    +0.000 N 
ATOM     17  H   UNL     1       8.790   6.273  16.531  0.00  0.00    +0.000 HD
BRANCH  16  18
ATOM     18  C   UNL     1       7.603   7.882  17.273  0.00  0.00    +0.000 C 
BRANCH  18  19
ATOM     19  C   UNL     1       8.445   8.198  18.519  0.00  0.00    +0.000 C 
BRANCH  19  20
ATOM     20  C   UNL     1       8.753   9.685  18.599  0.00  0.00    +0.000 A 
ATOM     21  C   UNL     1       9.492  10.197  19.679  0.00  0.00    +0.000 A 
ATOM     22  C   UNL     1       9.730  11.566  19.794  0.00  0.00    +0.000 A 
ATOM     23  C   UNL     1       9.260  12.440  18.818  0.00  0.00    +0.000 A 
ATOM     24  C   UNL     1       8.549  11.943  17.728  0.00  0.00    +0.000 A 
ATOM     25  C   UNL     1       8.294  10.571  17.620  0.00  0.00    +0.000 A 
ENDBRANCH  19  20
ENDBRANCH  18  19
ENDBRANCH  16  18
ENDBRANCH   9  16
BRANCH   8  26
ATOM     26  C   UNL     1       3.659   3.090  19.490  0.00  0.00    +0.000 C 
BRANCH  26  27
ATOM     27  C   UNL     1       2.248   3.667  19.313  0.00  0.00    +0.000 C 
ATOM     28 CL   UNL     1       1.095   2.985  20.519  0.00  0.00    +0.000 Cl
BRANCH  27  29
ATOM     29  C   UNL     1       2.186   5.186  19.402  0.00  0.00    +0.000 A 
ATOM     30  C   UNL     1       2.351   5.965  18.245  0.00  0.00    +0.000 A 
ATOM     31  C   UNL     1       2.208   7.353  18.286  0.00  0.00    +0.000 A 
ATOM     32  C   UNL     1       1.900   7.989  19.487  0.00  0.00    +0.000 A 
ATOM     33  C   UNL     1       1.754   7.238  20.650  0.00  0.00    +0.000 A 
ATOM     34  C   UNL     1       1.901   5.848  20.612  0.00  0.00    +0.000 A 
ENDBRANCH  27  29
ENDBRANCH  26  27
ENDBRANCH   8  26
TORSDOF 11
ENDMDL
MODEL 2
REMARK VINA RESULT:      -8.5      4.476      8.065
REMARK  Name = 
REMARK  12 active torsions:
REMARK  status: ('A' for Active; 'I' for Inactive)
REMARK    1  A    between atoms: C_1  and  C_2
REMARK    2  A    between atoms: C_2  and  C_3
REMARK    3  A    between atoms: C_3  and  O_4
REMARK    4  A    between atoms: O_4  and  C_5
REMARK    5  A    between atoms: C_5  and  C_7
REMARK    6  A    between atoms: N_14  and  C_15
REMARK    7  A    between atoms: C_15  and  C_16
REMARK    8  A    between atoms: C_16  and  C_18
REMARK    9  A    between atoms: C_24  and  N_25
REMARK   10  A    between atoms: N_25  and  C_26
REMARK   11  A    between atoms: C_26  and  C_27
REMARK   12  A    between atoms: C_27  and  C_28
REMARK                            x       y       z     vdW  Elec       q    Type
REMARK                         _______ _______ _______ _____ _____    ______ ____
ROOT
ATOM      1  C   UNL     1       2.811   7.360  18.454  0.00  0.00    +0.000 A 
ATOM      2  C   UNL     1       2.559   8.526  17.726  0.00  0.00    +0.000 A 
ATOM      3  N   UNL     1       1.764   9.557  18.108  0.00  0.00    +0.000 NA
ATOM      4  C   UNL     1       1.186   9.337  19.303  0.00  0.00    +0.000 A 
ATOM      5  C   UNL     1       1.383   8.238  20.138  0.00  0.00    +0.000 A 
ATOM      6  C   UNL     1       0.579   8.541  21.269  0.00  0.00    +0.000 A 
ATOM      7  N   UNL     1      -0.077   9.704  21.158  0.00  0.00    +0.000 NA
ATOM      8  N   UNL     1       0.287  10.157  19.937  0.00  0.00    +0.000 N 
ATOM      9  C   UNL     1       2.263   7.188  19.747  0.00  0.00    +0.000 A 
ENDROOT
BRANCH   1  10
ATOM     10  C   UNL     1       3.529   6.321  17.687  0.00  0.00    +0.000 C 
ATOM     11  O   UNL     1       3.093   5.195  17.496  0.00  0.00    +0.000 OA
BRANCH  10  12
ATOM     12  O   UNL     1       4.792   6.749  17.407  0.00  0.00    +0.000 OA
BRANCH  12  13
ATOM     13  C   UNL     1       5.857   5.793  17.461  0.00  0.00    +0.000 C 
BRANCH  13  15
ATOM     14  C   UNL     1       7.718   5.772  19.211  0.00  0.00    +0.000 C 
ATOM     15  C   UNL     1       6.273   5.430  18.886  0.00  0.00    +0.000 C 
ENDBRANCH  13  15
ENDBRANCH  12  13
ENDBRANCH  10  12
ENDBRANCH   1  10
BRANCH   9  16
ATOM     16  N   UNL     1       2.529   6.136  20.615  0.00  0.00    +0.000 N 
ATOM     17  H   UNL     1       3.492   5.948  20.868  0.00  0.00    +0.000 HD
BRANCH  16  18
ATOM     18  C   UNL     1       1.515   5.163  21.022  0.00  0.00    +0.000 C 
BRANCH  18  19
ATOM     19  C   UNL     1       2.097   3.808  21.453  0.00  0.00    +0.000 C 
BRANCH  19  20
ATOM     20  C   UNL     1       2.605   3.031  20.249  0.00  0.00    +0.000 A 
ATOM     21  C   UNL     1       1.715   2.631  19.238  0.00  0.00    +0.000 A 
ATOM     22  C   UNL     1       2.158   1.868  18.159  0.00  0.00    +0.000 A 
ATOM     23  C   UNL     1       3.501   1.518  18.056  0.00  0.00    +0.000 A 
ATOM     24  C   UNL     1       4.400   1.929  19.037  0.00  0.00    +0.000 A 
ATOM     25  C   UNL     1       3.954   2.681  20.131  0.00  0.00    +0.000 A 
ENDBRANCH  19  20
ENDBRANCH  18  19
ENDBRANCH  16  18
ENDBRANCH   9  16
BRANCH   8  26
ATOM     26  C   UNL     1      -0.236  11.423  19.452  0.00  0.00    +0.000 C 
BRANCH  26  27
ATOM     27  C   UNL     1      -1.761  11.555  19.550  0.00  0.00    +0.000 C 
ATOM     28 CL   UNL     1      -2.254  13.225  20.018  0.00  0.00    +0.000 Cl
BRANCH  27  29
ATOM     29  C   UNL     1      -2.498  11.184  18.269  0.00  0.00    +0.000 A 
ATOM     30  C   UNL     1      -3.793  11.675  18.037  0.00  0.00    +0.000 A 
ATOM     31  C   UNL     1      -4.452  11.423  16.832  0.00  0.00    +0.000 A 
ATOM     32  C   UNL     1      -3.827  10.672  15.837  0.00  0.00    +0.000 A 
ATOM     33  C   UNL     1      -2.553  10.156  16.057  0.00  0.00    +0.000 A 
ATOM     34  C   UNL     1      -1.893  10.404  17.264  0.00  0.00    +0.000 A 
ENDBRANCH  27  29
ENDBRANCH  26  27
ENDBRANCH   8  26
TORSDOF 11
ENDMDL
MODEL 3
REMARK VINA RESULT:      -8.2      0.379      1.247
REMARK  Name = 
REMARK  12 active torsions:
REMARK  status: ('A' for Active; 'I' for Inactive)
REMARK    1  A    between atoms: C_1  and  C_2
REMARK    2  A    between atoms: C_2  and  C_3
REMARK    3  A    between atoms: C_3  and  O_4
REMARK    4  A    between atoms: O_4  and  C_5
REMARK    5  A    between atoms: C_5  and  C_7
REMARK    6  A    between atoms: N_14  and  C_15
REMARK    7  A    between atoms: C_15  and  C_16
REMARK    8  A    between atoms: C_16  and  C_18
REMARK    9  A    between atoms: C_24  and  N_25
REMARK   10  A    between atoms: N_25  and  C_26
REMARK   11  A    between atoms: C_26  and  C_27
REMARK   12  A    between atoms: C_27  and  C_28
REMARK                            x       y       z     vdW  Elec       q    Type
REMARK                         _______ _______ _______ _____ _____    ______ ____
ROOT
ATOM      1  C   UNL     1       6.405   4.980  15.567  0.00  0.00    +0.000 A 
ATOM      2  C   UNL     1       5.347   4.068  15.623  0.00  0.00    +0.000 A 
ATOM      3  N   UNL     1       4.695   3.660  16.742  0.00  0.00    +0.000 NA
ATOM      4  C   UNL     1       5.199   4.220  17.856  0.00  0.00    +0.000 A 
ATOM      5  C   UNL     1       6.222   5.165  17.929  0.00  0.00    +0.000 A 
ATOM      6  C   UNL     1       6.313   5.440  19.319  0.00  0.00    +0.000 A 
ATOM      7  N   UNL     1       5.450   4.729  20.058  0.00  0.00    +0.000 NA
ATOM      8  N   UNL     1       4.801   3.972  19.145  0.00  0.00    +0.000 N 
ATOM      9  C   UNL     1       6.861   5.624  16.741  0.00  0.00    +0.000 A 
ENDROOT
BRANCH   1  10
ATOM     10  C   UNL     1       7.060   5.053  14.245  0.00  0.00    +0.000 C 
ATOM     11  O   UNL     1       8.102   5.657  14.036  0.00  0.00    +0.000 OA
BRANCH  10  12
ATOM     12  O   UNL     1       6.240   4.519  13.296  0.00  0.00    +0.000 OA
BRANCH  12  13
ATOM     13  C   UNL     1       6.798   3.575  12.374  0.00  0.00    +0.000 C 
BRANCH  13  15
ATOM     14  C   UNL     1       4.372   3.307  11.623  0.00  0.00    +0.000 C 
ATOM     15  C   UNL     1       5.751   2.676  11.720  0.00  0.00    +0.000 C 
ENDBRANCH  13  15
ENDBRANCH  12  13
ENDBRANCH  10  12
ENDBRANCH   1  10
BRANCH   9  16
ATOM     16  N   UNL     1       7.819   6.630  16.804  0.00  0.00    +0.000 N 
ATOM     17  H   UNL     1       8.709   6.480  16.343  0.00  0.00    +0.000 HD
BRANCH  16  18
ATOM     18  C   UNL     1       7.686   7.804  17.665  0.00  0.00    +0.000 C 
BRANCH  18  19
ATOM     19  C   UNL     1       8.244   9.093  17.042  0.00  0.00    +0.000 C 
BRANCH  19  20
ATOM     20  C   UNL     1       8.668  10.075  18.123  0.00  0.00    +0.000 A 
ATOM     21  C   UNL     1       8.645  11.457  17.872  0.00  0.00    +0.000 A 
ATOM     22  C   UNL     1       9.086  12.364  18.834  0.00  0.00    +0.000 A 
ATOM     23  C   UNL     1       9.530  11.907  20.072  0.00  0.00    +0.000 A 
ATOM     24  C   UNL     1       9.535  10.542  20.344  0.00  0.00    +0.000 A 
ATOM     25  C   UNL     1       9.107   9.628  19.373  0.00  0.00    +0.000 A 
ENDBRANCH  19  20
ENDBRANCH  18  19
ENDBRANCH  16  18
ENDBRANCH   9  16
BRANCH   8  26
ATOM     26  C   UNL     1       3.765   3.049  19.578  0.00  0.00    +0.000 C 
BRANCH  26  27
ATOM     27  C   UNL     1       2.335   3.519  19.279  0.00  0.00    +0.000 C 
ATOM     28 CL   UNL     1       1.142   2.774  20.407  0.00  0.00    +0.000 Cl
BRANCH  27  29
ATOM     29  C   UNL     1       2.159   5.031  19.331  0.00  0.00    +0.000 A 
ATOM     30  C   UNL     1       1.883   5.664  20.554  0.00  0.00    +0.000 A 
ATOM     31  C   UNL     1       1.807   7.055  20.643  0.00  0.00    +0.000 A 
ATOM     32  C   UNL     1       2.003   7.840  19.508  0.00  0.00    +0.000 A 
ATOM     33  C   UNL     1       2.254   7.231  18.281  0.00  0.00    +0.000 A 
ATOM     34  C   UNL     1       2.327   5.838  18.189  0.00  0.00    +0.000 A 
ENDBRANCH  27  29
ENDBRANCH  26  27
ENDBRANCH   8  26
TORSDOF 11
ENDMDL
MODEL 4
REMARK VINA RESULT:      -8.1      4.412      7.972
REMARK  Name = 
REMARK  12 active torsions:
REMARK  status: ('A' for Active; 'I' for Inactive)
REMARK    1  A    between atoms: C_1  and  C_2
REMARK    2  A    between atoms: C_2  and  C_3
REMARK    3  A    between atoms: C_3  and  O_4
REMARK    4  A    between atoms: O_4  and  C_5
REMARK    5  A    between atoms: C_5  and  C_7
REMARK    6  A    between atoms: N_14  and  C_15
REMARK    7  A    between atoms: C_15  and  C_16
REMARK    8  A    between atoms: C_16  and  C_18
REMARK    9  A    between atoms: C_24  and  N_25
REMARK   10  A    between atoms: N_25  and  C_26
REMARK   11  A    between atoms: C_26  and  C_27
REMARK   12  A    between atoms: C_27  and  C_28
REMARK                            x       y       z     vdW  Elec       q    Type
REMARK                         _______ _______ _______ _____ _____    ______ ____
ROOT
ATOM      1  C   UNL     1       2.998   7.193  18.301  0.00  0.00    +0.000 A 
ATOM      2  C   UNL     1       2.831   8.295  17.458  0.00  0.00    +0.000 A 
ATOM      3  N   UNL     1       2.070   9.391  17.707  0.00  0.00    +0.000 NA
ATOM      4  C   UNL     1       1.435   9.310  18.890  0.00  0.00    +0.000 A 
ATOM      5  C   UNL     1       1.545   8.287  19.832  0.00  0.00    +0.000 A 
ATOM      6  C   UNL     1       0.712   8.730  20.893  0.00  0.00    +0.000 A 
ATOM      7  N   UNL     1       0.117   9.904  20.645  0.00  0.00    +0.000 NA
ATOM      8  N   UNL     1       0.551  10.224  19.405  0.00  0.00    +0.000 N 
ATOM      9  C   UNL     1       2.390   7.168  19.579  0.00  0.00    +0.000 A 
ENDROOT
BRANCH   1  10
ATOM     10  C   UNL     1       3.696   6.056  17.667  0.00  0.00    +0.000 C 
ATOM     11  O   UNL     1       3.167   4.980  17.431  0.00  0.00    +0.000 OA
BRANCH  10  12
ATOM     12  O   UNL     1       5.028   6.332  17.572  0.00  0.00    +0.000 OA
BRANCH  12  13
ATOM     13  C   UNL     1       5.944   5.488  18.279  0.00  0.00    +0.000 C 
BRANCH  13  15
ATOM     14  C   UNL     1       7.541   7.358  17.587  0.00  0.00    +0.000 C 
ATOM     15  C   UNL     1       7.354   6.069  18.370  0.00  0.00    +0.000 C 
ENDBRANCH  13  15
ENDBRANCH  12  13
ENDBRANCH  10  12
ENDBRANCH   1  10
BRANCH   9  16
ATOM     16  N   UNL     1       2.570   6.192  20.552  0.00  0.00    +0.000 N 
ATOM     17  H   UNL     1       3.507   6.023  20.901  0.00  0.00    +0.000 HD
BRANCH  16  18
ATOM     18  C   UNL     1       1.516   5.259  20.950  0.00  0.00    +0.000 C 
BRANCH  18  19
ATOM     19  C   UNL     1       2.046   3.910  21.461  0.00  0.00    +0.000 C 
BRANCH  19  20
ATOM     20  C   UNL     1       2.480   3.027  20.302  0.00  0.00    +0.000 A 
ATOM     21  C   UNL     1       3.816   2.603  20.197  0.00  0.00    +0.000 A 
ATOM     22  C   UNL     1       4.238   1.842  19.108  0.00  0.00    +0.000 A 
ATOM     23  C   UNL     1       3.329   1.469  18.122  0.00  0.00    +0.000 A 
ATOM     24  C   UNL     1       1.997   1.862  18.226  0.00  0.00    +0.000 A 
ATOM     25  C   UNL     1       1.574   2.639  19.310  0.00  0.00    +0.000 A 
ENDBRANCH  19  20
ENDBRANCH  18  19
ENDBRANCH  16  18
ENDBRANCH   9  16
BRANCH   8  26
ATOM     26  C   UNL     1       0.108  11.460  18.782  0.00  0.00    +0.000 C 
BRANCH  26  27
ATOM     27  C   UNL     1      -1.217  11.343  18.017  0.00  0.00    +0.000 C 
ATOM     28 CL   UNL     1      -1.550   9.641  17.524  0.00  0.00    +0.000 Cl
BRANCH  27  29
ATOM     29  C   UNL     1      -2.424  11.859  18.790  0.00  0.00    +0.000 A 
ATOM     30  C   UNL     1      -3.721  11.611  18.312  0.00  0.00    +0.000 A 
ATOM     31  C   UNL     1      -4.844  11.994  19.049  0.00  0.00    +0.000 A 
ATOM     32  C   UNL     1      -4.690  12.635  20.276  0.00  0.00    +0.000 A 
ATOM     33  C   UNL     1      -3.412  12.912  20.757  0.00  0.00    +0.000 A 
ATOM     34  C   UNL     1      -2.287  12.532  20.019  0.00  0.00    +0.000 A 
ENDBRANCH  27  29
ENDBRANCH  26  27
ENDBRANCH   8  26
TORSDOF 11
ENDMDL
MODEL 5
REMARK VINA RESULT:      -8.1      3.842      7.668
REMARK  Name = 
REMARK  12 active torsions:
REMARK  status: ('A' for Active; 'I' for Inactive)
REMARK    1  A    between atoms: C_1  and  C_2
REMARK    2  A    between atoms: C_2  and  C_3
REMARK    3  A    between atoms: C_3  and  O_4
REMARK    4  A    between atoms: O_4  and  C_5
REMARK    5  A    between atoms: C_5  and  C_7
REMARK    6  A    between atoms: N_14  and  C_15
REMARK    7  A    between atoms: C_15  and  C_16
REMARK    8  A    between atoms: C_16  and  C_18
REMARK    9  A    between atoms: C_24  and  N_25
REMARK   10  A    between atoms: N_25  and  C_26
REMARK   11  A    between atoms: C_26  and  C_27
REMARK   12  A    between atoms: C_27  and  C_28
REMARK                            x       y       z     vdW  Elec       q    Type
REMARK                         _______ _______ _______ _____ _____    ______ ____
ROOT
ATOM      1  C   UNL     1       3.101   4.471  17.871  0.00  0.00    +0.000 A 
ATOM      2  C   UNL     1       3.646   3.565  16.956  0.00  0.00    +0.000 A 
ATOM      3  N   UNL     1       4.805   3.718  16.266  0.00  0.00    +0.000 NA
ATOM      4  C   UNL     1       5.405   4.892  16.533  0.00  0.00    +0.000 A 
ATOM      5  C   UNL     1       4.984   5.858  17.447  0.00  0.00    +0.000 A 
ATOM      6  C   UNL     1       5.997   6.850  17.361  0.00  0.00    +0.000 A 
ATOM      7  N   UNL     1       6.954   6.555  16.471  0.00  0.00    +0.000 NA
ATOM      8  N   UNL     1       6.555   5.369  15.958  0.00  0.00    +0.000 N 
ATOM      9  C   UNL     1       3.793   5.659  18.203  0.00  0.00    +0.000 A 
ENDROOT
BRANCH   1  10
ATOM     10  C   UNL     1       1.723   4.142  18.289  0.00  0.00    +0.000 C 
ATOM     11  O   UNL     1       0.821   3.875  17.508  0.00  0.00    +0.000 OA
BRANCH  10  12
ATOM     12  O   UNL     1       1.584   4.367  19.626  0.00  0.00    +0.000 OA
BRANCH  12  13
ATOM     13  C   UNL     1       0.683   3.531  20.361  0.00  0.00    +0.000 C 
BRANCH  13  15
ATOM     14  C   UNL     1       2.891   2.727  21.365  0.00  0.00    +0.000 C 
ATOM     15  C   UNL     1       1.372   2.704  21.445  0.00  0.00    +0.000 C 
ENDBRANCH  13  15
ENDBRANCH  12  13
ENDBRANCH  10  12
ENDBRANCH   1  10
BRANCH   9  16
ATOM     16  N   UNL     1       3.420   6.579  19.177  0.00  0.00    +0.000 N 
ATOM     17  H   UNL     1       3.778   6.460  20.118  0.00  0.00    +0.000 HD
BRANCH  16  18
ATOM     18  C   UNL     1       2.381   7.587  18.965  0.00  0.00    +0.000 C 
BRANCH  18  19
ATOM     19  C   UNL     1       1.643   7.992  20.250  0.00  0.00    +0.000 C 
BRANCH  19  20
ATOM     20  C   UNL     1       0.857   9.276  20.038  0.00  0.00    +0.000 A 
ATOM     21  C   UNL     1       0.267   9.933  21.131  0.00  0.00    +0.000 A 
ATOM     22  C   UNL     1      -0.505  11.078  20.942  0.00  0.00    +0.000 A 
ATOM     23  C   UNL     1      -0.677  11.601  19.663  0.00  0.00    +0.000 A 
ATOM     24  C   UNL     1      -0.077  10.975  18.574  0.00  0.00    +0.000 A 
ATOM     25  C   UNL     1       0.685   9.816  18.759  0.00  0.00    +0.000 A 
ENDBRANCH  19  20
ENDBRANCH  18  19
ENDBRANCH  16  18
ENDBRANCH   9  16
BRANCH   8  26
ATOM     26  C   UNL     1       7.359   4.717  14.938  0.00  0.00    +0.000 C 
BRANCH  26  27
ATOM     27  C   UNL     1       6.970   5.083  13.499  0.00  0.00    +0.000 C 
ATOM     28 CL   UNL     1       8.355   5.809  12.602  0.00  0.00    +0.000 Cl
BRANCH  27  29
ATOM     29  C   UNL     1       6.439   3.910  12.685  0.00  0.00    +0.000 A 
ATOM     30  C   UNL     1       5.058   3.776  12.468  0.00  0.00    +0.000 A 
ATOM     31  C   UNL     1       4.554   2.762  11.651  0.00  0.00    +0.000 A 
ATOM     32  C   UNL     1       5.423   1.861  11.037  0.00  0.00    +0.000 A 
ATOM     33  C   UNL     1       6.794   1.963  11.259  0.00  0.00    +0.000 A 
ATOM     34  C   UNL     1       7.300   2.975  12.079  0.00  0.00    +0.000 A 
ENDBRANCH  27  29
ENDBRANCH  26  27
ENDBRANCH   8  26
TORSDOF 11
ENDMDL
MODEL 6
REMARK VINA RESULT:      -8.1      4.519      7.966
REMARK  Name = 
REMARK  12 active torsions:
REMARK  status: ('A' for Active; 'I' for Inactive)
REMARK    1  A    between atoms: C_1  and  C_2
REMARK    2  A    between atoms: C_2  and  C_3
REMARK    3  A    between atoms: C_3  and  O_4
REMARK    4  A    between atoms: O_4  and  C_5
REMARK    5  A    between atoms: C_5  and  C_7
REMARK    6  A    between atoms: N_14  and  C_15
REMARK    7  A    between atoms: C_15  and  C_16
REMARK    8  A    between atoms: C_16  and  C_18
REMARK    9  A    between atoms: C_24  and  N_25
REMARK   10  A    between atoms: N_25  and  C_26
REMARK   11  A    between atoms: C_26  and  C_27
REMARK   12  A    between atoms: C_27  and  C_28
REMARK                            x       y       z     vdW  Elec       q    Type
REMARK                         _______ _______ _______ _____ _____    ______ ____
ROOT
ATOM      1  C   UNL     1       2.936   7.447  18.332  0.00  0.00    +0.000 A 
ATOM      2  C   UNL     1       2.785   8.610  17.572  0.00  0.00    +0.000 A 
ATOM      3  N   UNL     1       1.995   9.672  17.876  0.00  0.00    +0.000 NA
ATOM      4  C   UNL     1       1.313   9.487  19.021  0.00  0.00    +0.000 A 
ATOM      5  C   UNL     1       1.403   8.395  19.882  0.00  0.00    +0.000 A 
ATOM      6  C   UNL     1       0.519   8.739  20.938  0.00  0.00    +0.000 A 
ATOM      7  N   UNL     1      -0.087   9.921  20.759  0.00  0.00    +0.000 NA
ATOM      8  N   UNL     1       0.393  10.345  19.569  0.00  0.00    +0.000 N 
ATOM      9  C   UNL     1       2.277   7.312  19.577  0.00  0.00    +0.000 A 
ENDROOT
BRANCH   1  10
ATOM     10  C   UNL     1       3.680   6.374  17.640  0.00  0.00    +0.000 C 
ATOM     11  O   UNL     1       3.574   5.188  17.915  0.00  0.00    +0.000 OA
BRANCH  10  12
ATOM     12  O   UNL     1       4.610   6.925  16.809  0.00  0.00    +0.000 OA
BRANCH  12  13
ATOM     13  C   UNL     1       5.505   6.044  16.120  0.00  0.00    +0.000 C 
BRANCH  13  15
ATOM     14  C   UNL     1       7.132   4.743  17.597  0.00  0.00    +0.000 C 
ATOM     15  C   UNL     1       6.896   5.981  16.748  0.00  0.00    +0.000 C 
ENDBRANCH  13  15
ENDBRANCH  12  13
ENDBRANCH  10  12
ENDBRANCH   1  10
BRANCH   9  16
ATOM     16  N   UNL     1       2.434   6.263  20.476  0.00  0.00    +0.000 N 
ATOM     17  H   UNL     1       3.367   6.048  20.811  0.00  0.00    +0.000 HD
BRANCH  16  18
ATOM     18  C   UNL     1       1.358   5.330  20.809  0.00  0.00    +0.000 C 
BRANCH  18  19
ATOM     19  C   UNL     1       1.856   3.988  21.369  0.00  0.00    +0.000 C 
BRANCH  19  20
ATOM     20  C   UNL     1       2.404   3.109  20.257  0.00  0.00    +0.000 A 
ATOM     21  C   UNL     1       3.738   2.670  20.295  0.00  0.00    +0.000 A 
ATOM     22  C   UNL     1       4.269   1.912  19.252  0.00  0.00    +0.000 A 
ATOM     23  C   UNL     1       3.469   1.557  18.170  0.00  0.00    +0.000 A 
ATOM     24  C   UNL     1       2.138   1.964  18.131  0.00  0.00    +0.000 A 
ATOM     25  C   UNL     1       1.607   2.739  19.169  0.00  0.00    +0.000 A 
ENDBRANCH  19  20
ENDBRANCH  18  19
ENDBRANCH  16  18
ENDBRANCH   9  16
BRANCH   8  26
ATOM     26  C   UNL     1      -0.046  11.620  19.027  0.00  0.00    +0.000 C 
BRANCH  26  27
ATOM     27  C   UNL     1      -1.319  11.540  18.174  0.00  0.00    +0.000 C 
ATOM     28 CL   UNL     1      -1.525   9.906  17.441  0.00  0.00    +0.000 Cl
BRANCH  27  29
ATOM     29  C   UNL     1      -2.594  11.885  18.933  0.00  0.00    +0.000 A 
ATOM     30  C   UNL     1      -2.517  12.549  20.169  0.00  0.00    +0.000 A 
ATOM     31  C   UNL     1      -3.672  12.957  20.839  0.00  0.00    +0.000 A 
ATOM     32  C   UNL     1      -4.926  12.705  20.287  0.00  0.00    +0.000 A 
ATOM     33  C   UNL     1      -5.025  12.027  19.075  0.00  0.00    +0.000 A 
ATOM     34  C   UNL     1      -3.870  11.615  18.403  0.00  0.00    +0.000 A 
ENDBRANCH  27  29
ENDBRANCH  26  27
ENDBRANCH   8  26
TORSDOF 11
ENDMDL
MODEL 7
REMARK VINA RESULT:      -8.1      5.572      9.944
REMARK  Name = 
REMARK  12 active torsions:
REMARK  status: ('A' for Active; 'I' for Inactive)
REMARK    1  A    between atoms: C_1  and  C_2
REMARK    2  A    between atoms: C_2  and  C_3
REMARK    3  A    between atoms: C_3  and  O_4
REMARK    4  A    between atoms: O_4  and  C_5
REMARK    5  A    between atoms: C_5  and  C_7
REMARK    6  A    between atoms: N_14  and  C_15
REMARK    7  A    between atoms: C_15  and  C_16
REMARK    8  A    between atoms: C_16  and  C_18
REMARK    9  A    between atoms: C_24  and  N_25
REMARK   10  A    between atoms: N_25  and  C_26
REMARK   11  A    between atoms: C_26  and  C_27
REMARK   12  A    between atoms: C_27  and  C_28
REMARK                            x       y       z     vdW  Elec       q    Type
REMARK                         _______ _______ _______ _____ _____    ______ ____
ROOT
ATOM      1  C   UNL     1       0.729   9.709  21.478  0.00  0.00    +0.000 A 
ATOM      2  C   UNL     1       1.190   8.399  21.634  0.00  0.00    +0.000 A 
ATOM      3  N   UNL     1       1.728   7.615  20.665  0.00  0.00    +0.000 NA
ATOM      4  C   UNL     1       1.759   8.232  19.470  0.00  0.00    +0.000 A 
ATOM      5  C   UNL     1       1.365   9.541  19.194  0.00  0.00    +0.000 A 
ATOM      6  C   UNL     1       1.653   9.682  17.810  0.00  0.00    +0.000 A 
ATOM      7  N   UNL     1       2.160   8.571  17.258  0.00  0.00    +0.000 NA
ATOM      8  N   UNL     1       2.188   7.692  18.284  0.00  0.00    +0.000 N 
ATOM      9  C   UNL     1       0.852  10.370  20.233  0.00  0.00    +0.000 A 
ENDROOT
BRANCH   1  10
ATOM     10  C   UNL     1      -0.012  10.224  22.647  0.00  0.00    +0.000 C 
ATOM     11  O   UNL     1       0.176   9.843  23.793  0.00  0.00    +0.000 OA
BRANCH  10  12
ATOM     12  O   UNL     1      -1.033  11.024  22.226  0.00  0.00    +0.000 OA
BRANCH  12  13
ATOM     13  C   UNL     1      -1.938  11.538  23.210  0.00  0.00    +0.000 C 
BRANCH  13  15
ATOM     14  C   UNL     1      -1.333  13.994  23.567  0.00  0.00    +0.000 C 
ATOM     15  C   UNL     1      -2.319  12.998  22.978  0.00  0.00    +0.000 C 
ENDBRANCH  13  15
ENDBRANCH  12  13
ENDBRANCH  10  12
ENDBRANCH   1  10
BRANCH   9  16
ATOM     16  N   UNL     1       0.542  11.701  19.979  0.00  0.00    +0.000 N 
ATOM     17  H   UNL     1       1.033  12.420  20.498  0.00  0.00    +0.000 HD
BRANCH  16  18
ATOM     18  C   UNL     1      -0.592  12.112  19.152  0.00  0.00    +0.000 C 
BRANCH  18  19
ATOM     19  C   UNL     1      -1.842  11.238  19.339  0.00  0.00    +0.000 C 
BRANCH  19  20
ATOM     20  C   UNL     1      -2.510  10.958  18.003  0.00  0.00    +0.000 A 
ATOM     21  C   UNL     1      -1.929  10.057  17.095  0.00  0.00    +0.000 A 
ATOM     22  C   UNL     1      -2.501   9.837  15.844  0.00  0.00    +0.000 A 
ATOM     23  C   UNL     1      -3.678  10.491  15.489  0.00  0.00    +0.000 A 
ATOM     24  C   UNL     1      -4.279  11.368  16.389  0.00  0.00    +0.000 A 
ATOM     25  C   UNL     1      -3.698  11.603  17.640  0.00  0.00    +0.000 A 
ENDBRANCH  19  20
ENDBRANCH  18  19
ENDBRANCH  16  18
ENDBRANCH   9  16
BRANCH   8  26
ATOM     26  C   UNL     1       2.687   6.344  18.067  0.00  0.00    +0.000 C 
BRANCH  26  27
ATOM     27  C   UNL     1       4.207   6.201  18.218  0.00  0.00    +0.000 C 
ATOM     28 CL   UNL     1       4.643   5.274  19.701  0.00  0.00    +0.000 Cl
BRANCH  27  29
ATOM     29  C   UNL     1       4.886   5.539  17.026  0.00  0.00    +0.000 A 
ATOM     30  C   UNL     1       5.166   4.162  17.054  0.00  0.00    +0.000 A 
ATOM     31  C   UNL     1       5.705   3.516  15.939  0.00  0.00    +0.000 A 
ATOM     32  C   UNL     1       5.976   4.235  14.777  0.00  0.00    +0.000 A 
ATOM     33  C   UNL     1       5.728   5.605  14.737  0.00  0.00    +0.000 A 
ATOM     34  C   UNL     1       5.192   6.255  15.852  0.00  0.00    +0.000 A 
ENDBRANCH  27  29
ENDBRANCH  26  27
ENDBRANCH   8  26
TORSDOF 11
ENDMDL
MODEL 8
REMARK VINA RESULT:      -8.0      0.774      1.106
REMARK  Name = 
REMARK  12 active torsions:
REMARK  status: ('A' for Active; 'I' for Inactive)
REMARK    1  A    between atoms: C_1  and  C_2
REMARK    2  A    between atoms: C_2  and  C_3
REMARK    3  A    between atoms: C_3  and  O_4
REMARK    4  A    between atoms: O_4  and  C_5
REMARK    5  A    between atoms: C_5  and  C_7
REMARK    6  A    between atoms: N_14  and  C_15
REMARK    7  A    between atoms: C_15  and  C_16
REMARK    8  A    between atoms: C_16  and  C_18
REMARK    9  A    between atoms: C_24  and  N_25
REMARK   10  A    between atoms: N_25  and  C_26
REMARK   11  A    between atoms: C_26  and  C_27
REMARK   12  A    between atoms: C_27  and  C_28
REMARK                            x       y       z     vdW  Elec       q    Type
REMARK                         _______ _______ _______ _____ _____    ______ ____
ROOT
ATOM      1  C   UNL     1       6.437   4.810  15.597  0.00  0.00    +0.000 A 
ATOM      2  C   UNL     1       5.376   3.907  15.709  0.00  0.00    +0.000 A 
ATOM      3  N   UNL     1       4.673   3.629  16.836  0.00  0.00    +0.000 NA
ATOM      4  C   UNL     1       5.126   4.315  17.900  0.00  0.00    +0.000 A 
ATOM      5  C   UNL     1       6.146   5.265  17.911  0.00  0.00    +0.000 A 
ATOM      6  C   UNL     1       6.173   5.698  19.263  0.00  0.00    +0.000 A 
ATOM      7  N   UNL     1       5.276   5.075  20.038  0.00  0.00    +0.000 NA
ATOM      8  N   UNL     1       4.668   4.215  19.190  0.00  0.00    +0.000 N 
ATOM      9  C   UNL     1       6.840   5.586  16.709  0.00  0.00    +0.000 A 
ENDROOT
BRANCH   1  10
ATOM     10  C   UNL     1       7.154   4.732  14.307  0.00  0.00    +0.000 C 
ATOM     11  O   UNL     1       7.861   5.627  13.867  0.00  0.00    +0.000 OA
BRANCH  10  12
ATOM     12  O   UNL     1       6.754   3.620  13.627  0.00  0.00    +0.000 OA
BRANCH  12  13
ATOM     13  C   UNL     1       6.536   3.733  12.216  0.00  0.00    +0.000 C 
BRANCH  13  15
ATOM     14  C   UNL     1       6.062   1.432  11.215  0.00  0.00    +0.000 C 
ATOM     15  C   UNL     1       7.076   2.545  11.423  0.00  0.00    +0.000 C 
ENDBRANCH  13  15
ENDBRANCH  12  13
ENDBRANCH  10  12
ENDBRANCH   1  10
BRANCH   9  16
ATOM     16  N   UNL     1       7.796   6.595  16.699  0.00  0.00    +0.000 N 
ATOM     17  H   UNL     1       8.438   6.647  15.917  0.00  0.00    +0.000 HD
BRANCH  16  18
ATOM     18  C   UNL     1       8.055   7.459  17.851  0.00  0.00    +0.000 C 
BRANCH  18  19
ATOM     19  C   UNL     1       7.677   8.930  17.616  0.00  0.00    +0.000 C 
BRANCH  19  20
ATOM     20  C   UNL     1       8.685   9.858  18.276  0.00  0.00    +0.000 A 
ATOM     21  C   UNL     1       9.407  10.783  17.503  0.00  0.00    +0.000 A 
ATOM     22  C   UNL     1      10.375  11.598  18.087  0.00  0.00    +0.000 A 
ATOM     23  C   UNL     1      10.618  11.522  19.456  0.00  0.00    +0.000 A 
ATOM     24  C   UNL     1       9.893  10.627  20.238  0.00  0.00    +0.000 A 
ATOM     25  C   UNL     1       8.931   9.796  19.652  0.00  0.00    +0.000 A 
ENDBRANCH  19  20
ENDBRANCH  18  19
ENDBRANCH  16  18
ENDBRANCH   9  16
BRANCH   8  26
ATOM     26  C   UNL     1       3.611   3.345  19.678  0.00  0.00    +0.000 C 
BRANCH  26  27
ATOM     27  C   UNL     1       2.195   3.902  19.485  0.00  0.00    +0.000 C 
ATOM     28 CL   UNL     1       1.066   3.302  20.756  0.00  0.00    +0.000 Cl
BRANCH  27  29
ATOM     29  C   UNL     1       2.127   5.424  19.468  0.00  0.00    +0.000 A 
ATOM     30  C   UNL     1       2.249   6.118  18.253  0.00  0.00    +0.000 A 
ATOM     31  C   UNL     1       2.099   7.506  18.199  0.00  0.00    +0.000 A 
ATOM     32  C   UNL     1       1.827   8.225  19.362  0.00  0.00    +0.000 A 
ATOM     33  C   UNL     1       1.725   7.558  20.580  0.00  0.00    +0.000 A 
ATOM     34  C   UNL     1       1.878   6.170  20.636  0.00  0.00    +0.000 A 
ENDBRANCH  27  29
ENDBRANCH  26  27
ENDBRANCH   8  26
TORSDOF 11
ENDMDL
MODEL 9
REMARK VINA RESULT:      -7.9      4.013      6.932
REMARK  Name = 
REMARK  12 active torsions:
REMARK  status: ('A' for Active; 'I' for Inactive)
REMARK    1  A    between atoms: C_1  and  C_2
REMARK    2  A    between atoms: C_2  and  C_3
REMARK    3  A    between atoms: C_3  and  O_4
REMARK    4  A    between atoms: O_4  and  C_5
REMARK    5  A    between atoms: C_5  and  C_7
REMARK    6  A    between atoms: N_14  and  C_15
REMARK    7  A    between atoms: C_15  and  C_16
REMARK    8  A    between atoms: C_16  and  C_18
REMARK    9  A    between atoms: C_24  and  N_25
REMARK   10  A    between atoms: N_25  and  C_26
REMARK   11  A    between atoms: C_26  and  C_27
REMARK   12  A    between atoms: C_27  and  C_28
REMARK                            x       y       z     vdW  Elec       q    Type
REMARK                         _______ _______ _______ _____ _____    ______ ____
ROOT
ATOM      1  C   UNL     1       3.697   5.265  19.271  0.00  0.00    +0.000 A 
ATOM      2  C   UNL     1       2.747   5.491  20.272  0.00  0.00    +0.000 A 
ATOM      3  N   UNL     1       1.937   6.575  20.381  0.00  0.00    +0.000 NA
ATOM      4  C   UNL     1       2.157   7.474  19.404  0.00  0.00    +0.000 A 
ATOM      5  C   UNL     1       3.044   7.350  18.336  0.00  0.00    +0.000 A 
ATOM      6  C   UNL     1       2.836   8.546  17.600  0.00  0.00    +0.000 A 
ATOM      7  N   UNL     1       1.924   9.358  18.152  0.00  0.00    +0.000 NA
ATOM      8  N   UNL     1       1.545   8.695  19.267  0.00  0.00    +0.000 N 
ATOM      9  C   UNL     1       3.849   6.182  18.205  0.00  0.00    +0.000 A 
ENDROOT
BRANCH   1  10
ATOM     10  C   UNL     1       4.584   4.115  19.540  0.00  0.00    +0.000 C 
ATOM     11  O   UNL     1       5.789   4.122  19.331  0.00  0.00    +0.000 OA
BRANCH  10  12
ATOM     12  O   UNL     1       3.834   3.023  19.863  0.00  0.00    +0.000 OA
BRANCH  12  13
ATOM     13  C   UNL     1       3.430   2.145  18.807  0.00  0.00    +0.000 C 
BRANCH  13  15
ATOM     14  C   UNL     1       0.985   2.826  18.519  0.00  0.00    +0.000 C 
ATOM     15  C   UNL     1       1.964   1.725  18.896  0.00  0.00    +0.000 C 
ENDBRANCH  13  15
ENDBRANCH  12  13
ENDBRANCH  10  12
ENDBRANCH   1  10
BRANCH   9  16
ATOM     16  N   UNL     1       4.669   6.017  17.094  0.00  0.00    +0.000 N 
ATOM     17  H   UNL     1       5.266   6.786  16.814  0.00  0.00    +0.000 HD
BRANCH  16  18
ATOM     18  C   UNL     1       4.567   4.870  16.192  0.00  0.00    +0.000 C 
BRANCH  18  19
ATOM     19  C   UNL     1       5.900   4.139  15.969  0.00  0.00    +0.000 C 
BRANCH  19  20
ATOM     20  C   UNL     1       6.330   4.233  14.514  0.00  0.00    +0.000 A 
ATOM     21  C   UNL     1       5.675   3.472  13.531  0.00  0.00    +0.000 A 
ATOM     22  C   UNL     1       6.099   3.505  12.204  0.00  0.00    +0.000 A 
ATOM     23  C   UNL     1       7.164   4.321  11.831  0.00  0.00    +0.000 A 
ATOM     24  C   UNL     1       7.806   5.100  12.790  0.00  0.00    +0.000 A 
ATOM     25  C   UNL     1       7.393   5.056  14.127  0.00  0.00    +0.000 A 
ENDBRANCH  19  20
ENDBRANCH  18  19
ENDBRANCH  16  18
ENDBRANCH   9  16
BRANCH   8  26
ATOM     26  C   UNL     1       0.545   9.276  20.148  0.00  0.00    +0.000 C 
BRANCH  26  27
ATOM     27  C   UNL     1      -0.168  10.505  19.569  0.00  0.00    +0.000 C 
ATOM     28 CL   UNL     1      -1.298  10.053  18.240  0.00  0.00    +0.000 Cl
BRANCH  27  29
ATOM     29  C   UNL     1      -0.946  11.311  20.602  0.00  0.00    +0.000 A 
ATOM     30  C   UNL     1      -0.507  11.352  21.936  0.00  0.00    +0.000 A 
ATOM     31  C   UNL     1      -1.150  12.155  22.880  0.00  0.00    +0.000 A 
ATOM     32  C   UNL     1      -2.246  12.931  22.507  0.00  0.00    +0.000 A 
ATOM     33  C   UNL     1      -2.711  12.887  21.196  0.00  0.00    +0.000 A 
ATOM     34  C   UNL     1      -2.071  12.081  20.250  0.00  0.00    +0.000 A 
ENDBRANCH  27  29
ENDBRANCH  26  27
ENDBRANCH   8  26
TORSDOF 11
ENDMDL
