MODEL 1
REMARK VINA RESULT:      -8.7      0.000      0.000
REMARK  Name = 
REMARK  8 active torsions:
REMARK  status: ('A' for Active; 'I' for Inactive)
REMARK    1  A    between atoms: C_1  and  O_2
REMARK    2  A    between atoms: O_2  and  C_3
REMARK    3  A    between atoms: C_8  and  O_9
REMARK    4  A    between atoms: O_9  and  C_10
REMARK    5  A    between atoms: C_14  and  C_15
REMARK    6  A    between atoms: C_18  and  O_19
REMARK    7  A    between atoms: C_20  and  C_21
REMARK    8  A    between atoms: C_21  and  N_22
REMARK                            x       y       z     vdW  Elec       q    Type
REMARK                         _______ _______ _______ _____ _____    ______ ____
ROOT
ATOM      1  C   UNL     1      -0.662  11.289  22.271  0.00  0.00    +0.000 A 
ATOM      2  C   UNL     1      -0.335   9.927  22.262  0.00  0.00    +0.000 A 
ATOM      3  C   UNL     1       0.385   9.377  21.208  0.00  0.00    +0.000 A 
ATOM      4  C   UNL     1       0.770  10.183  20.144  0.00  0.00    +0.000 A 
ATOM      5  C   UNL     1       0.436  11.540  20.128  0.00  0.00    +0.000 A 
ATOM      6  C   UNL     1      -0.275  12.111  21.194  0.00  0.00    +0.000 A 
ATOM      7  C   UNL     1       1.511   9.589  19.014  0.00  0.00    +0.000 C 
ATOM      8  O   UNL     1       1.776  10.245  18.016  0.00  0.00    +0.000 OA
ATOM      9  C   UNL     1       1.888   8.164  19.177  0.00  0.00    +0.000 C 
ATOM     10  C   UNL     1       2.213   7.468  18.076  0.00  0.00    +0.000 C 
ATOM     11  C   UNL     1       1.854   7.675  20.593  0.00  0.00    +0.000 C 
ATOM     12  O   UNL     1       0.642   8.036  21.264  0.00  0.00    +0.000 OA
ENDROOT
BRANCH  10  13
ATOM     13  C   UNL     1       2.505   6.042  18.135  0.00  0.00    +0.000 A 
ATOM     14  C   UNL     1       1.510   5.137  17.758  0.00  0.00    +0.000 A 
ATOM     15  C   UNL     1       1.719   3.769  17.912  0.00  0.00    +0.000 A 
ATOM     16  C   UNL     1       2.931   3.309  18.433  0.00  0.00    +0.000 A 
ATOM     17  C   UNL     1       3.951   4.200  18.796  0.00  0.00    +0.000 A 
ATOM     18  C   UNL     1       3.720   5.576  18.642  0.00  0.00    +0.000 A 
BRANCH  16  19
ATOM     19  O   UNL     1       3.123   1.965  18.588  0.00  0.00    +0.000 OA
ATOM     20  H   UNL     1       4.061   1.805  18.790  0.00  0.00    +0.000 HD
ENDBRANCH  16  19
BRANCH  17  21
ATOM     21  C   UNL     1       5.302   3.722  19.278  0.00  0.00    +0.000 C 
BRANCH  21  22
ATOM     22  N   UNL     1       6.478   4.322  18.588  0.00  0.00    +0.000 NA
ATOM     23  C   UNL     1       6.144   4.595  17.178  0.00  0.00    +0.000 C 
ATOM     24  C   UNL     1       7.147   5.498  16.455  0.00  0.00    +0.000 C 
ATOM     25  C   UNL     1       7.386   6.785  17.229  0.00  0.00    +0.000 C 
ATOM     26  C   UNL     1       7.870   6.436  18.626  0.00  0.00    +0.000 C 
ATOM     27  C   UNL     1       6.867   5.531  19.340  0.00  0.00    +0.000 C 
ENDBRANCH  21  22
ENDBRANCH  17  21
ENDBRANCH  10  13
BRANCH   1  29
ATOM     28  C   UNL     1      -2.692  11.942  23.343  0.00  0.00    +0.000 C 
ATOM     29  O   UNL     1      -1.302  11.669  23.423  0.00  0.00    +0.000 OA
ENDBRANCH   1  29
BRANCH   6  30
ATOM     30  O   UNL     1      -0.591  13.441  21.250  0.00  0.00    +0.000 OA
ATOM     31  C   UNL     1      -1.306  14.007  20.157  0.00  0.00    +0.000 C 
ENDBRANCH   6  30
TORSDOF 6
ENDMDL
MODEL 2
REMARK VINA RESULT:      -7.9      1.516      1.980
REMARK  Name = 
REMARK  8 active torsions:
REMARK  status: ('A' for Active; 'I' for Inactive)
REMARK    1  A    between atoms: C_1  and  O_2
REMARK    2  A    between atoms: O_2  and  C_3
REMARK    3  A    between atoms: C_8  and  O_9
REMARK    4  A    between atoms: O_9  and  C_10
REMARK    5  A    between atoms: C_14  and  C_15
REMARK    6  A    between atoms: C_18  and  O_19
REMARK    7  A    between atoms: C_20  and  C_21
REMARK    8  A    between atoms: C_21  and  N_22
REMARK                            x       y       z     vdW  Elec       q    Type
REMARK                         _______ _______ _______ _____ _____    ______ ____
ROOT
ATOM      1  C   UNL     1      -1.632  12.066  22.897  0.00  0.00    +0.000 A 
ATOM      2  C   UNL     1      -1.193  10.748  23.074  0.00  0.00    +0.000 A 
ATOM      3  C   UNL     1      -0.363  10.146  22.136  0.00  0.00    +0.000 A 
ATOM      4  C   UNL     1       0.022  10.852  21.003  0.00  0.00    +0.000 A 
ATOM      5  C   UNL     1      -0.422  12.163  20.803  0.00  0.00    +0.000 A 
ATOM      6  C   UNL     1      -1.245  12.787  21.750  0.00  0.00    +0.000 A 
ATOM      7  C   UNL     1       0.881  10.199  19.996  0.00  0.00    +0.000 C 
ATOM      8  O   UNL     1       1.155  10.754  18.941  0.00  0.00    +0.000 OA
ATOM      9  C   UNL     1       1.364   8.843  20.353  0.00  0.00    +0.000 C 
ATOM     10  C   UNL     1       1.816   8.055  19.365  0.00  0.00    +0.000 C 
ATOM     11  C   UNL     1       1.279   8.523  21.814  0.00  0.00    +0.000 C 
ATOM     12  O   UNL     1       0.001   8.849  22.370  0.00  0.00    +0.000 OA
ENDROOT
BRANCH  10  13
ATOM     13  C   UNL     1       2.222   6.678  19.613  0.00  0.00    +0.000 A 
ATOM     14  C   UNL     1       1.387   5.860  20.379  0.00  0.00    +0.000 A 
ATOM     15  C   UNL     1       1.800   4.577  20.729  0.00  0.00    +0.000 A 
ATOM     16  C   UNL     1       3.046   4.112  20.303  0.00  0.00    +0.000 A 
ATOM     17  C   UNL     1       3.889   4.908  19.515  0.00  0.00    +0.000 A 
ATOM     18  C   UNL     1       3.461   6.202  19.178  0.00  0.00    +0.000 A 
BRANCH  16  19
ATOM     19  O   UNL     1       3.446   2.855  20.659  0.00  0.00    +0.000 OA
ATOM     20  H   UNL     1       3.961   2.912  21.481  0.00  0.00    +0.000 HD
ENDBRANCH  16  19
BRANCH  17  21
ATOM     21  C   UNL     1       5.202   4.394  18.968  0.00  0.00    +0.000 C 
BRANCH  21  22
ATOM     22  N   UNL     1       5.572   4.894  17.615  0.00  0.00    +0.000 NA
ATOM     23  C   UNL     1       6.974   4.546  17.319  0.00  0.00    +0.000 C 
ATOM     24  C   UNL     1       7.371   4.717  15.850  0.00  0.00    +0.000 C 
ATOM     25  C   UNL     1       6.410   3.979  14.932  0.00  0.00    +0.000 C 
ATOM     26  C   UNL     1       5.000   4.489  15.182  0.00  0.00    +0.000 C 
ATOM     27  C   UNL     1       4.613   4.321  16.650  0.00  0.00    +0.000 C 
ENDBRANCH  21  22
ENDBRANCH  17  21
ENDBRANCH  10  13
BRANCH   1  29
ATOM     28  C   UNL     1      -3.786  12.516  23.821  0.00  0.00    +0.000 C 
ATOM     29  O   UNL     1      -2.374  12.520  23.958  0.00  0.00    +0.000 OA
ENDBRANCH   1  29
BRANCH   6  30
ATOM     30  O   UNL     1      -1.674  14.081  21.625  0.00  0.00    +0.000 OA
ATOM     31  C   UNL     1      -2.766  14.344  20.752  0.00  0.00    +0.000 C 
ENDBRANCH   6  30
TORSDOF 6
ENDMDL
MODEL 3
REMARK VINA RESULT:      -7.8      1.189      1.423
REMARK  Name = 
REMARK  8 active torsions:
REMARK  status: ('A' for Active; 'I' for Inactive)
REMARK    1  A    between atoms: C_1  and  O_2
REMARK    2  A    between atoms: O_2  and  C_3
REMARK    3  A    between atoms: C_8  and  O_9
REMARK    4  A    between atoms: O_9  and  C_10
REMARK    5  A    between atoms: C_14  and  C_15
REMARK    6  A    between atoms: C_18  and  O_19
REMARK    7  A    between atoms: C_20  and  C_21
REMARK    8  A    between atoms: C_21  and  N_22
REMARK                            x       y       z     vdW  Elec       q    Type
REMARK                         _______ _______ _______ _____ _____    ______ ____
ROOT
ATOM      1  C   UNL     1      -1.481  12.155  22.715  0.00  0.00    +0.000 A 
ATOM      2  C   UNL     1      -1.087  10.822  22.880  0.00  0.00    +0.000 A 
ATOM      3  C   UNL     1      -0.270  10.203  21.941  0.00  0.00    +0.000 A 
ATOM      4  C   UNL     1       0.146  10.909  20.819  0.00  0.00    +0.000 A 
ATOM      5  C   UNL     1      -0.253  12.235  20.631  0.00  0.00    +0.000 A 
ATOM      6  C   UNL     1      -1.063  12.876  21.579  0.00  0.00    +0.000 A 
ATOM      7  C   UNL     1       0.991  10.239  19.811  0.00  0.00    +0.000 C 
ATOM      8  O   UNL     1       1.291  10.797  18.764  0.00  0.00    +0.000 OA
ATOM      9  C   UNL     1       1.427   8.865  20.156  0.00  0.00    +0.000 C 
ATOM     10  C   UNL     1       1.860   8.073  19.162  0.00  0.00    +0.000 C 
ATOM     11  C   UNL     1       1.320   8.531  21.612  0.00  0.00    +0.000 C 
ATOM     12  O   UNL     1       0.049   8.892  22.162  0.00  0.00    +0.000 OA
ENDROOT
BRANCH  10  13
ATOM     13  C   UNL     1       2.218   6.680  19.398  0.00  0.00    +0.000 A 
ATOM     14  C   UNL     1       1.736   6.048  20.546  0.00  0.00    +0.000 A 
ATOM     15  C   UNL     1       2.153   4.757  20.857  0.00  0.00    +0.000 A 
ATOM     16  C   UNL     1       3.046   4.096  20.010  0.00  0.00    +0.000 A 
ATOM     17  C   UNL     1       3.524   4.704  18.841  0.00  0.00    +0.000 A 
ATOM     18  C   UNL     1       3.100   6.009  18.547  0.00  0.00    +0.000 A 
BRANCH  16  19
ATOM     19  O   UNL     1       3.456   2.832  20.329  0.00  0.00    +0.000 OA
ATOM     20  H   UNL     1       2.786   2.422  20.901  0.00  0.00    +0.000 HD
ENDBRANCH  16  19
BRANCH  17  21
ATOM     21  C   UNL     1       4.420   3.976  17.864  0.00  0.00    +0.000 C 
BRANCH  21  22
ATOM     22  N   UNL     1       5.822   4.473  17.788  0.00  0.00    +0.000 NA
ATOM     23  C   UNL     1       5.937   5.484  16.721  0.00  0.00    +0.000 C 
ATOM     24  C   UNL     1       7.235   6.296  16.757  0.00  0.00    +0.000 C 
ATOM     25  C   UNL     1       7.462   6.909  18.130  0.00  0.00    +0.000 C 
ATOM     26  C   UNL     1       7.480   5.799  19.167  0.00  0.00    +0.000 C 
ATOM     27  C   UNL     1       6.185   4.990  19.122  0.00  0.00    +0.000 C 
ENDBRANCH  21  22
ENDBRANCH  17  21
ENDBRANCH  10  13
BRANCH   1  29
ATOM     28  C   UNL     1      -3.627  12.492  23.704  0.00  0.00    +0.000 C 
ATOM     29  O   UNL     1      -2.216  12.621  23.776  0.00  0.00    +0.000 OA
ENDBRANCH   1  29
BRANCH   6  30
ATOM     30  O   UNL     1      -1.448  14.185  21.466  0.00  0.00    +0.000 OA
ATOM     31  C   UNL     1      -1.171  14.862  20.246  0.00  0.00    +0.000 C 
ENDBRANCH   6  30
TORSDOF 6
ENDMDL
MODEL 4
REMARK VINA RESULT:      -7.7      3.362      9.066
REMARK  Name = 
REMARK  8 active torsions:
REMARK  status: ('A' for Active; 'I' for Inactive)
REMARK    1  A    between atoms: C_1  and  O_2
REMARK    2  A    between atoms: O_2  and  C_3
REMARK    3  A    between atoms: C_8  and  O_9
REMARK    4  A    between atoms: O_9  and  C_10
REMARK    5  A    between atoms: C_14  and  C_15
REMARK    6  A    between atoms: C_18  and  O_19
REMARK    7  A    between atoms: C_20  and  C_21
REMARK    8  A    between atoms: C_21  and  N_22
REMARK                            x       y       z     vdW  Elec       q    Type
REMARK                         _______ _______ _______ _____ _____    ______ ____
ROOT
ATOM      1  C   UNL     1       4.848   4.716  17.480  0.00  0.00    +0.000 A 
ATOM      2  C   UNL     1       4.325   5.953  17.079  0.00  0.00    +0.000 A 
ATOM      3  C   UNL     1       3.479   6.670  17.916  0.00  0.00    +0.000 A 
ATOM      4  C   UNL     1       3.133   6.148  19.156  0.00  0.00    +0.000 A 
ATOM      5  C   UNL     1       3.631   4.907  19.564  0.00  0.00    +0.000 A 
ATOM      6  C   UNL     1       4.500   4.182  18.736  0.00  0.00    +0.000 A 
ATOM      7  C   UNL     1       2.212   6.900  20.030  0.00  0.00    +0.000 C 
ATOM      8  O   UNL     1       1.806   6.425  21.082  0.00  0.00    +0.000 OA
ATOM      9  C   UNL     1       1.817   8.241  19.536  0.00  0.00    +0.000 C 
ATOM     10  C   UNL     1       0.721   8.810  20.064  0.00  0.00    +0.000 C 
ATOM     11  C   UNL     1       2.720   8.800  18.480  0.00  0.00    +0.000 C 
ATOM     12  O   UNL     1       2.992   7.856  17.440  0.00  0.00    +0.000 OA
ENDROOT
BRANCH  10  13
ATOM     13  C   UNL     1       0.210  10.082  19.571  0.00  0.00    +0.000 A 
ATOM     14  C   UNL     1      -0.823  10.073  18.630  0.00  0.00    +0.000 A 
ATOM     15  C   UNL     1      -1.253  11.266  18.057  0.00  0.00    +0.000 A 
ATOM     16  C   UNL     1      -0.654  12.470  18.434  0.00  0.00    +0.000 A 
ATOM     17  C   UNL     1       0.369  12.504  19.393  0.00  0.00    +0.000 A 
ATOM     18  C   UNL     1       0.796  11.291  19.955  0.00  0.00    +0.000 A 
BRANCH  16  19
ATOM     19  O   UNL     1      -1.077  13.635  17.860  0.00  0.00    +0.000 OA
ATOM     20  H   UNL     1      -1.734  13.424  17.174  0.00  0.00    +0.000 HD
ENDBRANCH  16  19
BRANCH  17  21
ATOM     21  C   UNL     1       0.970  13.803  19.882  0.00  0.00    +0.000 C 
BRANCH  21  22
ATOM     22  N   UNL     1       1.452  14.726  18.818  0.00  0.00    +0.000 NA
ATOM     23  C   UNL     1       1.432  16.114  19.313  0.00  0.00    +0.000 C 
ATOM     24  C   UNL     1       2.199  17.109  18.437  0.00  0.00    +0.000 C 
ATOM     25  C   UNL     1       3.620  16.632  18.180  0.00  0.00    +0.000 C 
ATOM     26  C   UNL     1       3.568  15.259  17.533  0.00  0.00    +0.000 C 
ATOM     27  C   UNL     1       2.796  14.273  18.409  0.00  0.00    +0.000 C 
ENDBRANCH  21  22
ENDBRANCH  17  21
ENDBRANCH  10  13
BRANCH   1  29
ATOM     28  C   UNL     1       7.096   4.529  16.702  0.00  0.00    +0.000 C 
ATOM     29  O   UNL     1       5.724   4.193  16.564  0.00  0.00    +0.000 OA
ENDBRANCH   1  29
BRANCH   6  30
ATOM     30  O   UNL     1       5.050   2.983  19.103  0.00  0.00    +0.000 OA
ATOM     31  C   UNL     1       4.362   2.198  20.070  0.00  0.00    +0.000 C 
ENDBRANCH   6  30
TORSDOF 6
ENDMDL
MODEL 5
REMARK VINA RESULT:      -7.6      1.710      3.198
REMARK  Name = 
REMARK  8 active torsions:
REMARK  status: ('A' for Active; 'I' for Inactive)
REMARK    1  A    between atoms: C_1  and  O_2
REMARK    2  A    between atoms: O_2  and  C_3
REMARK    3  A    between atoms: C_8  and  O_9
REMARK    4  A    between atoms: O_9  and  C_10
REMARK    5  A    between atoms: C_14  and  C_15
REMARK    6  A    between atoms: C_18  and  O_19
REMARK    7  A    between atoms: C_20  and  C_21
REMARK    8  A    between atoms: C_21  and  N_22
REMARK                            x       y       z     vdW  Elec       q    Type
REMARK                         _______ _______ _______ _____ _____    ______ ____
ROOT
ATOM      1  C   UNL     1      -0.025  14.249  19.518  0.00  0.00    +0.000 A 
ATOM      2  C   UNL     1       0.326  13.088  18.815  0.00  0.00    +0.000 A 
ATOM      3  C   UNL     1       0.483  11.878  19.479  0.00  0.00    +0.000 A 
ATOM      4  C   UNL     1       0.307  11.820  20.857  0.00  0.00    +0.000 A 
ATOM      5  C   UNL     1      -0.025  12.973  21.575  0.00  0.00    +0.000 A 
ATOM      6  C   UNL     1      -0.204  14.197  20.914  0.00  0.00    +0.000 A 
ATOM      7  C   UNL     1       0.502  10.539  21.562  0.00  0.00    +0.000 C 
ATOM      8  O   UNL     1       0.456  10.474  22.782  0.00  0.00    +0.000 OA
ATOM      9  C   UNL     1       0.764   9.366  20.692  0.00  0.00    +0.000 C 
ATOM     10  C   UNL     1       1.315   8.277  21.252  0.00  0.00    +0.000 C 
ATOM     11  C   UNL     1       0.370   9.560  19.260  0.00  0.00    +0.000 C 
ATOM     12  O   UNL     1       0.850  10.798  18.725  0.00  0.00    +0.000 OA
ENDROOT
BRANCH  10  13
ATOM     13  C   UNL     1       1.690   7.117  20.454  0.00  0.00    +0.000 A 
ATOM     14  C   UNL     1       1.228   5.857  20.841  0.00  0.00    +0.000 A 
ATOM     15  C   UNL     1       1.662   4.719  20.167  0.00  0.00    +0.000 A 
ATOM     16  C   UNL     1       2.552   4.847  19.098  0.00  0.00    +0.000 A 
ATOM     17  C   UNL     1       3.010   6.103  18.679  0.00  0.00    +0.000 A 
ATOM     18  C   UNL     1       2.569   7.240  19.375  0.00  0.00    +0.000 A 
BRANCH  16  19
ATOM     19  O   UNL     1       2.979   3.723  18.448  0.00  0.00    +0.000 OA
ATOM     20  H   UNL     1       3.511   3.990  17.680  0.00  0.00    +0.000 HD
ENDBRANCH  16  19
BRANCH  17  21
ATOM     21  C   UNL     1       3.903   6.273  17.470  0.00  0.00    +0.000 C 
BRANCH  21  22
ATOM     22  N   UNL     1       4.891   5.181  17.245  0.00  0.00    +0.000 NA
ATOM     23  C   UNL     1       5.056   4.945  15.800  0.00  0.00    +0.000 C 
ATOM     24  C   UNL     1       6.268   4.083  15.435  0.00  0.00    +0.000 C 
ATOM     25  C   UNL     1       7.542   4.634  16.056  0.00  0.00    +0.000 C 
ATOM     26  C   UNL     1       7.359   4.714  17.562  0.00  0.00    +0.000 C 
ATOM     27  C   UNL     1       6.146   5.571  17.919  0.00  0.00    +0.000 C 
ENDBRANCH  21  22
ENDBRANCH  17  21
ENDBRANCH  10  13
BRANCH   1  29
ATOM     28  C   UNL     1       0.828  16.287  18.615  0.00  0.00    +0.000 C 
ATOM     29  O   UNL     1      -0.214  15.327  18.691  0.00  0.00    +0.000 OA
ENDBRANCH   1  29
BRANCH   6  30
ATOM     30  O   UNL     1      -0.570  15.346  21.562  0.00  0.00    +0.000 OA
ATOM     31  C   UNL     1      -1.944  15.523  21.887  0.00  0.00    +0.000 C 
ENDBRANCH   6  30
TORSDOF 6
ENDMDL
MODEL 6
REMARK VINA RESULT:      -7.6      0.880      1.178
REMARK  Name = 
REMARK  8 active torsions:
REMARK  status: ('A' for Active; 'I' for Inactive)
REMARK    1  A    between atoms: C_1  and  O_2
REMARK    2  A    between atoms: O_2  and  C_3
REMARK    3  A    between atoms: C_8  and  O_9
REMARK    4  A    between atoms: O_9  and  C_10
REMARK    5  A    between atoms: C_14  and  C_15
REMARK    6  A    between atoms: C_18  and  O_19
REMARK    7  A    between atoms: C_20  and  C_21
REMARK    8  A    between atoms: C_21  and  N_22
REMARK                            x       y       z     vdW  Elec       q    Type
REMARK                         _______ _______ _______ _____ _____    ______ ____
ROOT
ATOM      1  C   UNL     1      -0.697  11.535  22.229  0.00  0.00    +0.000 A 
ATOM      2  C   UNL     1      -0.382  10.170  22.205  0.00  0.00    +0.000 A 
ATOM      3  C   UNL     1       0.337   9.627  21.147  0.00  0.00    +0.000 A 
ATOM      4  C   UNL     1       0.733  10.442  20.093  0.00  0.00    +0.000 A 
ATOM      5  C   UNL     1       0.411  11.803  20.093  0.00  0.00    +0.000 A 
ATOM      6  C   UNL     1      -0.299  12.366  21.163  0.00  0.00    +0.000 A 
ATOM      7  C   UNL     1       1.472   9.856  18.959  0.00  0.00    +0.000 C 
ATOM      8  O   UNL     1       1.746  10.521  17.969  0.00  0.00    +0.000 OA
ATOM      9  C   UNL     1       1.836   8.426  19.106  0.00  0.00    +0.000 C 
ATOM     10  C   UNL     1       2.158   7.740  17.997  0.00  0.00    +0.000 C 
ATOM     11  C   UNL     1       1.793   7.920  20.515  0.00  0.00    +0.000 C 
ATOM     12  O   UNL     1       0.582   8.283  21.187  0.00  0.00    +0.000 OA
ENDROOT
BRANCH  10  13
ATOM     13  C   UNL     1       2.438   6.311  18.039  0.00  0.00    +0.000 A 
ATOM     14  C   UNL     1       1.371   5.414  17.934  0.00  0.00    +0.000 A 
ATOM     15  C   UNL     1       1.593   4.048  18.085  0.00  0.00    +0.000 A 
ATOM     16  C   UNL     1       2.886   3.581  18.332  0.00  0.00    +0.000 A 
ATOM     17  C   UNL     1       3.973   4.461  18.419  0.00  0.00    +0.000 A 
ATOM     18  C   UNL     1       3.731   5.836  18.272  0.00  0.00    +0.000 A 
BRANCH  16  19
ATOM     19  O   UNL     1       3.091   2.239  18.488  0.00  0.00    +0.000 OA
ATOM     20  H   UNL     1       4.046   2.078  18.580  0.00  0.00    +0.000 HD
ENDBRANCH  16  19
BRANCH  17  21
ATOM     21  C   UNL     1       5.393   3.972  18.597  0.00  0.00    +0.000 C 
BRANCH  21  22
ATOM     22  N   UNL     1       6.239   4.001  17.372  0.00  0.00    +0.000 NA
ATOM     23  C   UNL     1       5.464   3.512  16.217  0.00  0.00    +0.000 C 
ATOM     24  C   UNL     1       6.109   3.794  14.857  0.00  0.00    +0.000 C 
ATOM     25  C   UNL     1       6.456   5.267  14.709  0.00  0.00    +0.000 C 
ATOM     26  C   UNL     1       7.377   5.672  15.848  0.00  0.00    +0.000 C 
ATOM     27  C   UNL     1       6.729   5.383  17.201  0.00  0.00    +0.000 C 
ENDBRANCH  21  22
ENDBRANCH  17  21
ENDBRANCH  10  13
BRANCH   1  29
ATOM     28  C   UNL     1      -2.753  11.997  23.350  0.00  0.00    +0.000 C 
ATOM     29  O   UNL     1      -1.337  11.907  23.384  0.00  0.00    +0.000 OA
ENDBRANCH   1  29
BRANCH   6  30
ATOM     30  O   UNL     1      -0.604  13.699  21.234  0.00  0.00    +0.000 OA
ATOM     31  C   UNL     1       0.371  14.582  21.776  0.00  0.00    +0.000 C 
ENDBRANCH   6  30
TORSDOF 6
ENDMDL
MODEL 7
REMARK VINA RESULT:      -7.6      1.782      3.165
REMARK  Name = 
REMARK  8 active torsions:
REMARK  status: ('A' for Active; 'I' for Inactive)
REMARK    1  A    between atoms: C_1  and  O_2
REMARK    2  A    between atoms: O_2  and  C_3
REMARK    3  A    between atoms: C_8  and  O_9
REMARK    4  A    between atoms: O_9  and  C_10
REMARK    5  A    between atoms: C_14  and  C_15
REMARK    6  A    between atoms: C_18  and  O_19
REMARK    7  A    between atoms: C_20  and  C_21
REMARK    8  A    between atoms: C_21  and  N_22
REMARK                            x       y       z     vdW  Elec       q    Type
REMARK                         _______ _______ _______ _____ _____    ______ ____
ROOT
ATOM      1  C   UNL     1       1.614  12.766  18.848  0.00  0.00    +0.000 A 
ATOM      2  C   UNL     1       1.996  11.527  18.317  0.00  0.00    +0.000 A 
ATOM      3  C   UNL     1       1.766  10.352  19.022  0.00  0.00    +0.000 A 
ATOM      4  C   UNL     1       1.165  10.407  20.274  0.00  0.00    +0.000 A 
ATOM      5  C   UNL     1       0.793  11.637  20.826  0.00  0.00    +0.000 A 
ATOM      6  C   UNL     1       1.005  12.828  20.117  0.00  0.00    +0.000 A 
ATOM      7  C   UNL     1       0.947   9.160  21.031  0.00  0.00    +0.000 C 
ATOM      8  O   UNL     1       0.515   9.180  22.176  0.00  0.00    +0.000 OA
ATOM      9  C   UNL     1       1.296   7.909  20.314  0.00  0.00    +0.000 C 
ATOM     10  C   UNL     1       1.485   6.797  21.042  0.00  0.00    +0.000 C 
ATOM     11  C   UNL     1       1.398   8.059  18.827  0.00  0.00    +0.000 C 
ATOM     12  O   UNL     1       2.191   9.188  18.446  0.00  0.00    +0.000 OA
ENDROOT
BRANCH  10  13
ATOM     13  C   UNL     1       1.921   5.550  20.429  0.00  0.00    +0.000 A 
ATOM     14  C   UNL     1       1.033   4.471  20.395  0.00  0.00    +0.000 A 
ATOM     15  C   UNL     1       1.458   3.234  19.919  0.00  0.00    +0.000 A 
ATOM     16  C   UNL     1       2.771   3.081  19.468  0.00  0.00    +0.000 A 
ATOM     17  C   UNL     1       3.672   4.156  19.472  0.00  0.00    +0.000 A 
ATOM     18  C   UNL     1       3.229   5.394  19.963  0.00  0.00    +0.000 A 
BRANCH  16  19
ATOM     19  O   UNL     1       3.181   1.861  19.011  0.00  0.00    +0.000 OA
ATOM     20  H   UNL     1       4.113   1.732  19.257  0.00  0.00    +0.000 HD
ENDBRANCH  16  19
BRANCH  17  21
ATOM     21  C   UNL     1       5.069   4.037  18.907  0.00  0.00    +0.000 C 
BRANCH  21  22
ATOM     22  N   UNL     1       5.310   4.773  17.635  0.00  0.00    +0.000 NA
ATOM     23  C   UNL     1       6.691   5.288  17.609  0.00  0.00    +0.000 C 
ATOM     24  C   UNL     1       7.157   5.777  16.234  0.00  0.00    +0.000 C 
ATOM     25  C   UNL     1       6.941   4.713  15.170  0.00  0.00    +0.000 C 
ATOM     26  C   UNL     1       5.471   4.332  15.147  0.00  0.00    +0.000 C 
ATOM     27  C   UNL     1       5.011   3.851  16.522  0.00  0.00    +0.000 C 
ENDBRANCH  21  22
ENDBRANCH  17  21
ENDBRANCH  10  13
BRANCH   1  29
ATOM     28  C   UNL     1       3.111  14.444  18.047  0.00  0.00    +0.000 C 
ATOM     29  O   UNL     1       1.846  13.804  17.981  0.00  0.00    +0.000 OA
ENDBRANCH   1  29
BRANCH   6  30
ATOM     30  O   UNL     1       0.623  14.054  20.591  0.00  0.00    +0.000 OA
ATOM     31  C   UNL     1       1.308  14.578  21.723  0.00  0.00    +0.000 C 
ENDBRANCH   6  30
TORSDOF 6
ENDMDL
MODEL 8
REMARK VINA RESULT:      -7.6      3.491      9.879
REMARK  Name = 
REMARK  8 active torsions:
REMARK  status: ('A' for Active; 'I' for Inactive)
REMARK    1  A    between atoms: C_1  and  O_2
REMARK    2  A    between atoms: O_2  and  C_3
REMARK    3  A    between atoms: C_8  and  O_9
REMARK    4  A    between atoms: O_9  and  C_10
REMARK    5  A    between atoms: C_14  and  C_15
REMARK    6  A    between atoms: C_18  and  O_19
REMARK    7  A    between atoms: C_20  and  C_21
REMARK    8  A    between atoms: C_21  and  N_22
REMARK                            x       y       z     vdW  Elec       q    Type
REMARK                         _______ _______ _______ _____ _____    ______ ____
ROOT
ATOM      1  C   UNL     1       4.426   4.335  17.563  0.00  0.00    +0.000 A 
ATOM      2  C   UNL     1       3.983   5.574  17.082  0.00  0.00    +0.000 A 
ATOM      3  C   UNL     1       3.247   6.428  17.895  0.00  0.00    +0.000 A 
ATOM      4  C   UNL     1       2.934   6.043  19.193  0.00  0.00    +0.000 A 
ATOM      5  C   UNL     1       3.354   4.802  19.682  0.00  0.00    +0.000 A 
ATOM      6  C   UNL     1       4.111   3.939  18.877  0.00  0.00    +0.000 A 
ATOM      7  C   UNL     1       2.129   6.940  20.044  0.00  0.00    +0.000 C 
ATOM      8  O   UNL     1       1.749   6.591  21.153  0.00  0.00    +0.000 OA
ATOM      9  C   UNL     1       1.816   8.265  19.455  0.00  0.00    +0.000 C 
ATOM     10  C   UNL     1       0.801   8.967  19.986  0.00  0.00    +0.000 C 
ATOM     11  C   UNL     1       2.697   8.655  18.309  0.00  0.00    +0.000 C 
ATOM     12  O   UNL     1       2.831   7.607  17.343  0.00  0.00    +0.000 OA
ENDROOT
BRANCH  10  13
ATOM     13  C   UNL     1       0.367  10.233  19.411  0.00  0.00    +0.000 A 
ATOM     14  C   UNL     1       1.126  11.379  19.659  0.00  0.00    +0.000 A 
ATOM     15  C   UNL     1       0.676  12.621  19.219  0.00  0.00    +0.000 A 
ATOM     16  C   UNL     1      -0.531  12.711  18.522  0.00  0.00    +0.000 A 
ATOM     17  C   UNL     1      -1.296  11.570  18.242  0.00  0.00    +0.000 A 
ATOM     18  C   UNL     1      -0.832  10.327  18.700  0.00  0.00    +0.000 A 
BRANCH  16  19
ATOM     19  O   UNL     1      -0.968  13.935  18.101  0.00  0.00    +0.000 OA
ATOM     20  H   UNL     1      -0.495  14.624  18.599  0.00  0.00    +0.000 HD
ENDBRANCH  16  19
BRANCH  17  21
ATOM     21  C   UNL     1      -2.559  11.632  17.412  0.00  0.00    +0.000 C 
BRANCH  21  22
ATOM     22  N   UNL     1      -3.826  11.380  18.153  0.00  0.00    +0.000 NA
ATOM     23  C   UNL     1      -3.904  12.268  19.326  0.00  0.00    +0.000 C 
ATOM     24  C   UNL     1      -5.289  12.334  19.979  0.00  0.00    +0.000 C 
ATOM     25  C   UNL     1      -6.363  12.668  18.956  0.00  0.00    +0.000 C 
ATOM     26  C   UNL     1      -6.327  11.630  17.847  0.00  0.00    +0.000 C 
ATOM     27  C   UNL     1      -4.942  11.567  17.205  0.00  0.00    +0.000 C 
ENDBRANCH  21  22
ENDBRANCH  17  21
ENDBRANCH  10  13
BRANCH   1  29
ATOM     28  C   UNL     1       6.410   4.285  16.236  0.00  0.00    +0.000 C 
ATOM     29  O   UNL     1       5.203   3.665  16.652  0.00  0.00    +0.000 OA
ENDBRANCH   1  29
BRANCH   6  30
ATOM     30  O   UNL     1       4.583   2.732  19.319  0.00  0.00    +0.000 OA
ATOM     31  C   UNL     1       3.817   1.568  19.035  0.00  0.00    +0.000 C 
ENDBRANCH   6  30
TORSDOF 6
ENDMDL
MODEL 9
REMARK VINA RESULT:      -7.5      3.160      9.705
REMARK  Name = 
REMARK  8 active torsions:
REMARK  status: ('A' for Active; 'I' for Inactive)
REMARK    1  A    between atoms: C_1  and  O_2
REMARK    2  A    between atoms: O_2  and  C_3
REMARK    3  A    between atoms: C_8  and  O_9
REMARK    4  A    between atoms: O_9  and  C_10
REMARK    5  A    between atoms: C_14  and  C_15
REMARK    6  A    between atoms: C_18  and  O_19
REMARK    7  A    between atoms: C_20  and  C_21
REMARK    8  A    between atoms: C_21  and  N_22
REMARK                            x       y       z     vdW  Elec       q    Type
REMARK                         _______ _______ _______ _____ _____    ______ ____
ROOT
ATOM      1  C   UNL     1       2.747   4.647  19.845  0.00  0.00    +0.000 A 
ATOM      2  C   UNL     1       2.210   5.596  20.725  0.00  0.00    +0.000 A 
ATOM      3  C   UNL     1       1.903   6.878  20.284  0.00  0.00    +0.000 A 
ATOM      4  C   UNL     1       2.146   7.228  18.961  0.00  0.00    +0.000 A 
ATOM      5  C   UNL     1       2.697   6.298  18.074  0.00  0.00    +0.000 A 
ATOM      6  C   UNL     1       2.995   4.996  18.503  0.00  0.00    +0.000 A 
ATOM      7  C   UNL     1       1.843   8.598  18.504  0.00  0.00    +0.000 C 
ATOM      8  O   UNL     1       2.138   8.969  17.377  0.00  0.00    +0.000 OA
ATOM      9  C   UNL     1       1.179   9.471  19.502  0.00  0.00    +0.000 C 
ATOM     10  C   UNL     1       1.218  10.798  19.303  0.00  0.00    +0.000 C 
ATOM     11  C   UNL     1       0.537   8.733  20.636  0.00  0.00    +0.000 C 
ATOM     12  O   UNL     1       1.406   7.751  21.211  0.00  0.00    +0.000 OA
ENDROOT
BRANCH  10  13
ATOM     13  C   UNL     1       0.673  11.731  20.281  0.00  0.00    +0.000 A 
ATOM     14  C   UNL     1       1.283  12.980  20.429  0.00  0.00    +0.000 A 
ATOM     15  C   UNL     1       0.857  13.847  21.432  0.00  0.00    +0.000 A 
ATOM     16  C   UNL     1      -0.186  13.465  22.279  0.00  0.00    +0.000 A 
ATOM     17  C   UNL     1      -0.826  12.226  22.132  0.00  0.00    +0.000 A 
ATOM     18  C   UNL     1      -0.379  11.361  21.122  0.00  0.00    +0.000 A 
BRANCH  16  19
ATOM     19  O   UNL     1      -0.591  14.320  23.265  0.00  0.00    +0.000 OA
ATOM     20  H   UNL     1       0.124  14.955  23.441  0.00  0.00    +0.000 HD
ENDBRANCH  16  19
BRANCH  17  21
ATOM     21  C   UNL     1      -2.015  11.829  22.979  0.00  0.00    +0.000 C 
BRANCH  21  22
ATOM     22  N   UNL     1      -3.146  12.798  22.989  0.00  0.00    +0.000 NA
ATOM     23  C   UNL     1      -3.834  12.778  21.686  0.00  0.00    +0.000 C 
ATOM     24  C   UNL     1      -5.193  13.483  21.678  0.00  0.00    +0.000 C 
ATOM     25  C   UNL     1      -6.091  12.958  22.787  0.00  0.00    +0.000 C 
ATOM     26  C   UNL     1      -5.385  13.142  24.120  0.00  0.00    +0.000 C 
ATOM     27  C   UNL     1      -4.027  12.442  24.119  0.00  0.00    +0.000 C 
ENDBRANCH  21  22
ENDBRANCH  17  21
ENDBRANCH  10  13
BRANCH   1  29
ATOM     28  C   UNL     1       1.981   3.042  21.437  0.00  0.00    +0.000 C 
ATOM     29  O   UNL     1       2.911   3.419  20.432  0.00  0.00    +0.000 OA
ENDBRANCH   1  29
BRANCH   6  30
ATOM     30  O   UNL     1       3.497   4.035  17.668  0.00  0.00    +0.000 OA
ATOM     31  C   UNL     1       4.445   4.430  16.683  0.00  0.00    +0.000 C 
ENDBRANCH   6  30
TORSDOF 6
ENDMDL
