MODEL 1
REMARK VINA RESULT:      -7.7      0.000      0.000
REMARK  Name = 
REMARK  5 active torsions:
REMARK  status: ('A' for Active; 'I' for Inactive)
REMARK    1  A    between atoms: N_2  and  C_4
REMARK    2  A    between atoms: C_7  and  S_8
REMARK    3  A    between atoms: S_8  and  N_11
REMARK    4  A    between atoms: N_11  and  C_12
REMARK    5  A    between atoms: C_12  and  C_13
REMARK                            x       y       z     vdW  Elec       q    Type
REMARK                         _______ _______ _______ _____ _____    ______ ____
ROOT
ATOM      1  S   UNL     1       6.023   5.249  18.396  0.00  0.00    +0.000 S 
ATOM      2  O   UNL     1       6.053   4.010  19.140  0.00  0.00    +0.000 OA
ATOM      3  O   UNL     1       6.972   6.313  18.584  0.00  0.00    +0.000 OA
ENDROOT
BRANCH   1   7
ATOM      4  C   UNL     1       6.278   4.096  13.987  0.00  0.00    +0.000 A 
ATOM      5  C   UNL     1       7.295   4.856  14.550  0.00  0.00    +0.000 A 
ATOM      6  C   UNL     1       7.201   5.212  15.898  0.00  0.00    +0.000 A 
ATOM      7  C   UNL     1       6.109   4.808  16.666  0.00  0.00    +0.000 A 
ATOM      8  C   UNL     1       5.082   4.045  16.097  0.00  0.00    +0.000 A 
ATOM      9  C   UNL     1       5.167   3.685  14.747  0.00  0.00    +0.000 A 
BRANCH   4  11
ATOM     10  O   UNL     1       7.297   4.255  11.910  0.00  0.00    +0.000 OA
ATOM     11  N   UNL     1       6.380   3.727  12.570  0.00  0.00    +0.000 N 
ATOM     12  O   UNL     1       5.561   2.926  12.112  0.00  0.00    +0.000 OA
ENDBRANCH   4  11
ENDBRANCH   1   7
BRANCH   1  13
ATOM     13  N   UNL     1       4.452   5.929  18.561  0.00  0.00    +0.000 NA
ATOM     14  H   UNL     1       3.929   5.901  17.691  0.00  0.00    +0.000 HD
BRANCH  13  15
ATOM     15  C   UNL     1       3.718   5.371  19.717  0.00  0.00    +0.000 C 
BRANCH  15  16
ATOM     16  C   UNL     1       2.432   4.665  19.312  0.00  0.00    +0.000 C 
ATOM     17  C   UNL     1       1.286   4.756  20.342  0.00  0.00    +0.000 C 
ATOM     18  C   UNL     1       0.988   3.280  20.667  0.00  0.00    +0.000 C 
ATOM     19  C   UNL     1       2.156   2.697  21.484  0.00  0.00    +0.000 C 
ATOM     20  C   UNL     1       3.261   2.522  20.432  0.00  0.00    +0.000 C 
ATOM     21  C   UNL     1       2.623   3.127  19.167  0.00  0.00    +0.000 C 
ATOM     22  C   UNL     1       1.187   2.617  19.305  0.00  0.00    +0.000 C 
ENDBRANCH  15  16
ENDBRANCH  13  15
ENDBRANCH   1  13
TORSDOF 5
ENDMDL
MODEL 2
REMARK VINA RESULT:      -7.7      1.010      1.631
REMARK  Name = 
REMARK  5 active torsions:
REMARK  status: ('A' for Active; 'I' for Inactive)
REMARK    1  A    between atoms: N_2  and  C_4
REMARK    2  A    between atoms: C_7  and  S_8
REMARK    3  A    between atoms: S_8  and  N_11
REMARK    4  A    between atoms: N_11  and  C_12
REMARK    5  A    between atoms: C_12  and  C_13
REMARK                            x       y       z     vdW  Elec       q    Type
REMARK                         _______ _______ _______ _____ _____    ______ ____
ROOT
ATOM      1  S   UNL     1       6.754   5.142  18.245  0.00  0.00    +0.000 S 
ATOM      2  O   UNL     1       8.033   4.586  18.624  0.00  0.00    +0.000 OA
ATOM      3  O   UNL     1       6.435   6.541  18.338  0.00  0.00    +0.000 OA
ENDROOT
BRANCH   1   7
ATOM      4  C   UNL     1       6.108   3.951  13.886  0.00  0.00    +0.000 A 
ATOM      5  C   UNL     1       7.172   4.783  14.213  0.00  0.00    +0.000 A 
ATOM      6  C   UNL     1       7.353   5.149  15.549  0.00  0.00    +0.000 A 
ATOM      7  C   UNL     1       6.486   4.685  16.537  0.00  0.00    +0.000 A 
ATOM      8  C   UNL     1       5.412   3.850  16.208  0.00  0.00    +0.000 A 
ATOM      9  C   UNL     1       5.221   3.479  14.872  0.00  0.00    +0.000 A 
BRANCH   4  11
ATOM     10  O   UNL     1       6.948   3.398  11.796  0.00  0.00    +0.000 OA
ATOM     11  N   UNL     1       5.920   3.571  12.481  0.00  0.00    +0.000 N 
ATOM     12  O   UNL     1       4.768   3.448  12.056  0.00  0.00    +0.000 OA
ENDBRANCH   4  11
ENDBRANCH   1   7
BRANCH   1  13
ATOM     13  N   UNL     1       5.529   4.280  19.089  0.00  0.00    +0.000 NA
ATOM     14  H   UNL     1       5.886   3.825  19.925  0.00  0.00    +0.000 HD
BRANCH  13  15
ATOM     15  C   UNL     1       4.326   5.107  19.329  0.00  0.00    +0.000 C 
BRANCH  15  16
ATOM     16  C   UNL     1       3.200   4.328  19.994  0.00  0.00    +0.000 C 
ATOM     17  C   UNL     1       3.359   2.793  19.957  0.00  0.00    +0.000 C 
ATOM     18  C   UNL     1       2.093   2.327  19.212  0.00  0.00    +0.000 C 
ATOM     19  C   UNL     1       2.201   2.732  17.731  0.00  0.00    +0.000 C 
ATOM     20  C   UNL     1       1.949   4.246  17.766  0.00  0.00    +0.000 C 
ATOM     21  C   UNL     1       1.835   4.535  19.276  0.00  0.00    +0.000 C 
ATOM     22  C   UNL     1       1.046   3.308  19.738  0.00  0.00    +0.000 C 
ENDBRANCH  15  16
ENDBRANCH  13  15
ENDBRANCH   1  13
TORSDOF 5
ENDMDL
MODEL 3
REMARK VINA RESULT:      -7.7      1.010      1.935
REMARK  Name = 
REMARK  5 active torsions:
REMARK  status: ('A' for Active; 'I' for Inactive)
REMARK    1  A    between atoms: N_2  and  C_4
REMARK    2  A    between atoms: C_7  and  S_8
REMARK    3  A    between atoms: S_8  and  N_11
REMARK    4  A    between atoms: N_11  and  C_12
REMARK    5  A    between atoms: C_12  and  C_13
REMARK                            x       y       z     vdW  Elec       q    Type
REMARK                         _______ _______ _______ _____ _____    ______ ____
ROOT
ATOM      1  S   UNL     1       6.655   5.158  18.246  0.00  0.00    +0.000 S 
ATOM      2  O   UNL     1       7.950   4.671  18.664  0.00  0.00    +0.000 OA
ATOM      3  O   UNL     1       6.264   6.540  18.313  0.00  0.00    +0.000 OA
ENDROOT
BRANCH   1   7
ATOM      4  C   UNL     1       6.098   3.934  13.884  0.00  0.00    +0.000 A 
ATOM      5  C   UNL     1       5.200   3.474  14.839  0.00  0.00    +0.000 A 
ATOM      6  C   UNL     1       5.387   3.846  16.172  0.00  0.00    +0.000 A 
ATOM      7  C   UNL     1       6.452   4.668  16.539  0.00  0.00    +0.000 A 
ATOM      8  C   UNL     1       7.360   5.129  15.577  0.00  0.00    +0.000 A 
ATOM      9  C   UNL     1       7.181   4.760  14.239  0.00  0.00    +0.000 A 
BRANCH   4  11
ATOM     10  O   UNL     1       6.922   3.314  11.806  0.00  0.00    +0.000 OA
ATOM     11  N   UNL     1       5.900   3.537  12.485  0.00  0.00    +0.000 N 
ATOM     12  O   UNL     1       4.745   3.450  12.058  0.00  0.00    +0.000 OA
ENDBRANCH   4  11
ENDBRANCH   1   7
BRANCH   1  13
ATOM     13  N   UNL     1       5.453   4.246  19.072  0.00  0.00    +0.000 NA
ATOM     14  H   UNL     1       5.830   3.753  19.876  0.00  0.00    +0.000 HD
BRANCH  13  15
ATOM     15  C   UNL     1       4.250   5.051  19.377  0.00  0.00    +0.000 C 
BRANCH  15  16
ATOM     16  C   UNL     1       3.137   4.228  20.010  0.00  0.00    +0.000 C 
ATOM     17  C   UNL     1       3.367   2.702  19.998  0.00  0.00    +0.000 C 
ATOM     18  C   UNL     1       2.152   2.169  19.215  0.00  0.00    +0.000 C 
ATOM     19  C   UNL     1       2.296   2.563  17.734  0.00  0.00    +0.000 C 
ATOM     20  C   UNL     1       1.973   4.064  17.740  0.00  0.00    +0.000 C 
ATOM     21  C   UNL     1       1.791   4.364  19.241  0.00  0.00    +0.000 C 
ATOM     22  C   UNL     1       1.043   3.107  19.691  0.00  0.00    +0.000 C 
ENDBRANCH  15  16
ENDBRANCH  13  15
ENDBRANCH   1  13
TORSDOF 5
ENDMDL
MODEL 4
REMARK VINA RESULT:      -7.7      0.969      1.195
REMARK  Name = 
REMARK  5 active torsions:
REMARK  status: ('A' for Active; 'I' for Inactive)
REMARK    1  A    between atoms: N_2  and  C_4
REMARK    2  A    between atoms: C_7  and  S_8
REMARK    3  A    between atoms: S_8  and  N_11
REMARK    4  A    between atoms: N_11  and  C_12
REMARK    5  A    between atoms: C_12  and  C_13
REMARK                            x       y       z     vdW  Elec       q    Type
REMARK                         _______ _______ _______ _____ _____    ______ ____
ROOT
ATOM      1  S   UNL     1       6.592   4.984  18.203  0.00  0.00    +0.000 S 
ATOM      2  O   UNL     1       7.962   4.703  18.566  0.00  0.00    +0.000 OA
ATOM      3  O   UNL     1       5.968   6.267  18.383  0.00  0.00    +0.000 OA
ENDROOT
BRANCH   1   7
ATOM      4  C   UNL     1       6.229   3.969  13.768  0.00  0.00    +0.000 A 
ATOM      5  C   UNL     1       7.284   4.764  14.199  0.00  0.00    +0.000 A 
ATOM      6  C   UNL     1       7.378   5.077  15.557  0.00  0.00    +0.000 A 
ATOM      7  C   UNL     1       6.435   4.597  16.465  0.00  0.00    +0.000 A 
ATOM      8  C   UNL     1       5.370   3.799  16.030  0.00  0.00    +0.000 A 
ATOM      9  C   UNL     1       5.266   3.481  14.671  0.00  0.00    +0.000 A 
BRANCH   4  11
ATOM     10  O   UNL     1       5.012   3.305  11.908  0.00  0.00    +0.000 OA
ATOM     11  N   UNL     1       6.132   3.645  12.339  0.00  0.00    +0.000 N 
ATOM     12  O   UNL     1       7.152   3.723  11.650  0.00  0.00    +0.000 OA
ENDBRANCH   4  11
ENDBRANCH   1   7
BRANCH   1  13
ATOM     13  N   UNL     1       5.589   3.816  18.968  0.00  0.00    +0.000 NA
ATOM     14  H   UNL     1       6.102   3.251  19.640  0.00  0.00    +0.000 HD
BRANCH  13  15
ATOM     15  C   UNL     1       4.350   4.411  19.514  0.00  0.00    +0.000 C 
BRANCH  15  16
ATOM     16  C   UNL     1       3.091   3.796  18.920  0.00  0.00    +0.000 C 
ATOM     17  C   UNL     1       1.798   4.609  19.150  0.00  0.00    +0.000 C 
ATOM     18  C   UNL     1       0.894   3.621  19.911  0.00  0.00    +0.000 C 
ATOM     19  C   UNL     1       1.448   3.424  21.334  0.00  0.00    +0.000 C 
ATOM     20  C   UNL     1       2.680   2.537  21.106  0.00  0.00    +0.000 C 
ATOM     21  C   UNL     1       2.739   2.427  19.570  0.00  0.00    +0.000 C 
ATOM     22  C   UNL     1       1.250   2.295  19.241  0.00  0.00    +0.000 C 
ENDBRANCH  15  16
ENDBRANCH  13  15
ENDBRANCH   1  13
TORSDOF 5
ENDMDL
MODEL 5
REMARK VINA RESULT:      -7.6      0.952      1.456
REMARK  Name = 
REMARK  5 active torsions:
REMARK  status: ('A' for Active; 'I' for Inactive)
REMARK    1  A    between atoms: N_2  and  C_4
REMARK    2  A    between atoms: C_7  and  S_8
REMARK    3  A    between atoms: S_8  and  N_11
REMARK    4  A    between atoms: N_11  and  C_12
REMARK    5  A    between atoms: C_12  and  C_13
REMARK                            x       y       z     vdW  Elec       q    Type
REMARK                         _______ _______ _______ _____ _____    ______ ____
ROOT
ATOM      1  S   UNL     1       6.567   5.037  18.215  0.00  0.00    +0.000 S 
ATOM      2  O   UNL     1       7.919   4.774  18.651  0.00  0.00    +0.000 OA
ATOM      3  O   UNL     1       5.917   6.311  18.362  0.00  0.00    +0.000 OA
ENDROOT
BRANCH   1   7
ATOM      4  C   UNL     1       6.379   4.073  13.758  0.00  0.00    +0.000 A 
ATOM      5  C   UNL     1       5.376   3.605  14.597  0.00  0.00    +0.000 A 
ATOM      6  C   UNL     1       5.450   3.897  15.961  0.00  0.00    +0.000 A 
ATOM      7  C   UNL     1       6.508   4.649  16.471  0.00  0.00    +0.000 A 
ATOM      8  C   UNL     1       7.521   5.117  15.626  0.00  0.00    +0.000 A 
ATOM      9  C   UNL     1       7.456   4.828  14.259  0.00  0.00    +0.000 A 
BRANCH   4  11
ATOM     10  O   UNL     1       7.195   4.224  11.592  0.00  0.00    +0.000 OA
ATOM     11  N   UNL     1       6.299   3.761  12.326  0.00  0.00    +0.000 N 
ATOM     12  O   UNL     1       5.359   3.069  11.928  0.00  0.00    +0.000 OA
ENDBRANCH   4  11
ENDBRANCH   1   7
BRANCH   1  13
ATOM     13  N   UNL     1       5.540   3.854  18.926  0.00  0.00    +0.000 NA
ATOM     14  H   UNL     1       6.025   3.291  19.618  0.00  0.00    +0.000 HD
BRANCH  13  15
ATOM     15  C   UNL     1       4.270   4.435  19.414  0.00  0.00    +0.000 C 
BRANCH  15  16
ATOM     16  C   UNL     1       3.045   3.752  18.822  0.00  0.00    +0.000 C 
ATOM     17  C   UNL     1       1.718   4.518  19.009  0.00  0.00    +0.000 C 
ATOM     18  C   UNL     1       0.842   3.519  19.788  0.00  0.00    +0.000 C 
ATOM     19  C   UNL     1       1.383   3.386  21.223  0.00  0.00    +0.000 C 
ATOM     20  C   UNL     1       2.653   2.544  21.040  0.00  0.00    +0.000 C 
ATOM     21  C   UNL     1       2.738   2.390  19.509  0.00  0.00    +0.000 C 
ATOM     22  C   UNL     1       1.261   2.188  19.163  0.00  0.00    +0.000 C 
ENDBRANCH  15  16
ENDBRANCH  13  15
ENDBRANCH   1  13
TORSDOF 5
ENDMDL
MODEL 6
REMARK VINA RESULT:      -7.4      1.038      1.905
REMARK  Name = 
REMARK  5 active torsions:
REMARK  status: ('A' for Active; 'I' for Inactive)
REMARK    1  A    between atoms: N_2  and  C_4
REMARK    2  A    between atoms: C_7  and  S_8
REMARK    3  A    between atoms: S_8  and  N_11
REMARK    4  A    between atoms: N_11  and  C_12
REMARK    5  A    between atoms: C_12  and  C_13
REMARK                            x       y       z     vdW  Elec       q    Type
REMARK                         _______ _______ _______ _____ _____    ______ ____
ROOT
ATOM      1  S   UNL     1       6.385   4.916  18.290  0.00  0.00    +0.000 S 
ATOM      2  O   UNL     1       7.754   4.802  18.736  0.00  0.00    +0.000 OA
ATOM      3  O   UNL     1       5.589   6.102  18.457  0.00  0.00    +0.000 OA
ENDROOT
BRANCH   1   7
ATOM      4  C   UNL     1       6.358   4.047  13.809  0.00  0.00    +0.000 A 
ATOM      5  C   UNL     1       5.295   3.613  14.592  0.00  0.00    +0.000 A 
ATOM      6  C   UNL     1       5.320   3.875  15.964  0.00  0.00    +0.000 A 
ATOM      7  C   UNL     1       6.388   4.564  16.537  0.00  0.00    +0.000 A 
ATOM      8  C   UNL     1       7.461   4.998  15.749  0.00  0.00    +0.000 A 
ATOM      9  C   UNL     1       7.446   4.738  14.374  0.00  0.00    +0.000 A 
BRANCH   4  11
ATOM     10  O   UNL     1       7.231   4.273  11.672  0.00  0.00    +0.000 OA
ATOM     11  N   UNL     1       6.329   3.766  12.368  0.00  0.00    +0.000 N 
ATOM     12  O   UNL     1       5.422   3.056  11.928  0.00  0.00    +0.000 OA
ENDBRANCH   4  11
ENDBRANCH   1   7
BRANCH   1  13
ATOM     13  N   UNL     1       5.496   3.606  18.962  0.00  0.00    +0.000 NA
ATOM     14  H   UNL     1       5.943   3.225  19.792  0.00  0.00    +0.000 HD
BRANCH  13  15
ATOM     15  C   UNL     1       4.068   3.937  19.152  0.00  0.00    +0.000 C 
BRANCH  15  16
ATOM     16  C   UNL     1       3.341   2.926  20.028  0.00  0.00    +0.000 C 
ATOM     17  C   UNL     1       2.115   2.256  19.370  0.00  0.00    +0.000 C 
ATOM     18  C   UNL     1       0.960   2.628  20.319  0.00  0.00    +0.000 C 
ATOM     19  C   UNL     1       0.661   4.132  20.184  0.00  0.00    +0.000 C 
ATOM     20  C   UNL     1       1.836   4.788  20.922  0.00  0.00    +0.000 C 
ATOM     21  C   UNL     1       2.718   3.580  21.294  0.00  0.00    +0.000 C 
ATOM     22  C   UNL     1       1.647   2.559  21.683  0.00  0.00    +0.000 C 
ENDBRANCH  15  16
ENDBRANCH  13  15
ENDBRANCH   1  13
TORSDOF 5
ENDMDL
MODEL 7
REMARK VINA RESULT:      -7.4      0.971      2.036
REMARK  Name = 
REMARK  5 active torsions:
REMARK  status: ('A' for Active; 'I' for Inactive)
REMARK    1  A    between atoms: N_2  and  C_4
REMARK    2  A    between atoms: C_7  and  S_8
REMARK    3  A    between atoms: S_8  and  N_11
REMARK    4  A    between atoms: N_11  and  C_12
REMARK    5  A    between atoms: C_12  and  C_13
REMARK                            x       y       z     vdW  Elec       q    Type
REMARK                         _______ _______ _______ _____ _____    ______ ____
ROOT
ATOM      1  S   UNL     1       5.958   5.309  18.350  0.00  0.00    +0.000 S 
ATOM      2  O   UNL     1       7.261   5.772  18.772  0.00  0.00    +0.000 OA
ATOM      3  O   UNL     1       4.763   6.103  18.443  0.00  0.00    +0.000 OA
ENDROOT
BRANCH   1   7
ATOM      4  C   UNL     1       6.323   4.159  13.948  0.00  0.00    +0.000 A 
ATOM      5  C   UNL     1       5.133   3.907  14.620  0.00  0.00    +0.000 A 
ATOM      6  C   UNL     1       5.037   4.254  15.970  0.00  0.00    +0.000 A 
ATOM      7  C   UNL     1       6.113   4.846  16.631  0.00  0.00    +0.000 A 
ATOM      8  C   UNL     1       7.313   5.096  15.955  0.00  0.00    +0.000 A 
ATOM      9  C   UNL     1       7.419   4.751  14.603  0.00  0.00    +0.000 A 
BRANCH   4  11
ATOM     10  O   UNL     1       5.594   2.959  12.102  0.00  0.00    +0.000 OA
ATOM     11  N   UNL     1       6.420   3.790  12.531  0.00  0.00    +0.000 N 
ATOM     12  O   UNL     1       7.304   4.313  11.848  0.00  0.00    +0.000 OA
ENDBRANCH   4  11
ENDBRANCH   1   7
BRANCH   1  13
ATOM     13  N   UNL     1       5.643   3.816  19.143  0.00  0.00    +0.000 NA
ATOM     14  H   UNL     1       5.889   3.845  20.128  0.00  0.00    +0.000 HD
BRANCH  13  15
ATOM     15  C   UNL     1       4.273   3.322  18.885  0.00  0.00    +0.000 C 
BRANCH  15  16
ATOM     16  C   UNL     1       3.277   3.771  19.945  0.00  0.00    +0.000 C 
ATOM     17  C   UNL     1       2.622   2.627  20.749  0.00  0.00    +0.000 C 
ATOM     18  C   UNL     1       1.118   2.821  20.474  0.00  0.00    +0.000 C 
ATOM     19  C   UNL     1       0.820   2.444  19.012  0.00  0.00    +0.000 C 
ATOM     20  C   UNL     1       1.392   3.632  18.224  0.00  0.00    +0.000 C 
ATOM     21  C   UNL     1       2.042   4.489  19.328  0.00  0.00    +0.000 C 
ATOM     22  C   UNL     1       1.004   4.344  20.443  0.00  0.00    +0.000 C 
ENDBRANCH  15  16
ENDBRANCH  13  15
ENDBRANCH   1  13
TORSDOF 5
ENDMDL
MODEL 8
REMARK VINA RESULT:      -7.4      0.963      1.742
REMARK  Name = 
REMARK  5 active torsions:
REMARK  status: ('A' for Active; 'I' for Inactive)
REMARK    1  A    between atoms: N_2  and  C_4
REMARK    2  A    between atoms: C_7  and  S_8
REMARK    3  A    between atoms: S_8  and  N_11
REMARK    4  A    between atoms: N_11  and  C_12
REMARK    5  A    between atoms: C_12  and  C_13
REMARK                            x       y       z     vdW  Elec       q    Type
REMARK                         _______ _______ _______ _____ _____    ______ ____
ROOT
ATOM      1  S   UNL     1       5.986   5.370  18.252  0.00  0.00    +0.000 S 
ATOM      2  O   UNL     1       7.309   5.789  18.653  0.00  0.00    +0.000 OA
ATOM      3  O   UNL     1       4.819   6.204  18.363  0.00  0.00    +0.000 OA
ENDROOT
BRANCH   1   7
ATOM      4  C   UNL     1       6.300   4.134  13.870  0.00  0.00    +0.000 A 
ATOM      5  C   UNL     1       7.405   4.695  14.499  0.00  0.00    +0.000 A 
ATOM      6  C   UNL     1       7.293   5.079  15.838  0.00  0.00    +0.000 A 
ATOM      7  C   UNL     1       6.097   4.899  16.532  0.00  0.00    +0.000 A 
ATOM      8  C   UNL     1       4.983   4.338  15.897  0.00  0.00    +0.000 A 
ATOM      9  C   UNL     1       5.084   3.952  14.556  0.00  0.00    +0.000 A 
BRANCH   4  11
ATOM     10  O   UNL     1       5.616   2.879  12.043  0.00  0.00    +0.000 OA
ATOM     11  N   UNL     1       6.421   3.735  12.463  0.00  0.00    +0.000 N 
ATOM     12  O   UNL     1       7.304   4.258  11.778  0.00  0.00    +0.000 OA
ENDBRANCH   4  11
ENDBRANCH   1   7
BRANCH   1  13
ATOM     13  N   UNL     1       5.633   3.889  19.053  0.00  0.00    +0.000 NA
ATOM     14  H   UNL     1       5.875   3.919  20.039  0.00  0.00    +0.000 HD
BRANCH  13  15
ATOM     15  C   UNL     1       4.253   3.426  18.791  0.00  0.00    +0.000 C 
BRANCH  15  16
ATOM     16  C   UNL     1       3.276   3.840  19.883  0.00  0.00    +0.000 C 
ATOM     17  C   UNL     1       2.656   2.672  20.680  0.00  0.00    +0.000 C 
ATOM     18  C   UNL     1       1.144   2.850  20.445  0.00  0.00    +0.000 C 
ATOM     19  C   UNL     1       0.816   2.499  18.982  0.00  0.00    +0.000 C 
ATOM     20  C   UNL     1       1.352   3.709  18.205  0.00  0.00    +0.000 C 
ATOM     21  C   UNL     1       2.017   4.553  19.310  0.00  0.00    +0.000 C 
ATOM     22  C   UNL     1       1.008   4.372  20.447  0.00  0.00    +0.000 C 
ENDBRANCH  15  16
ENDBRANCH  13  15
ENDBRANCH   1  13
TORSDOF 5
ENDMDL
MODEL 9
REMARK VINA RESULT:      -7.4      1.400      2.363
REMARK  Name = 
REMARK  5 active torsions:
REMARK  status: ('A' for Active; 'I' for Inactive)
REMARK    1  A    between atoms: N_2  and  C_4
REMARK    2  A    between atoms: C_7  and  S_8
REMARK    3  A    between atoms: S_8  and  N_11
REMARK    4  A    between atoms: N_11  and  C_12
REMARK    5  A    between atoms: C_12  and  C_13
REMARK                            x       y       z     vdW  Elec       q    Type
REMARK                         _______ _______ _______ _____ _____    ______ ____
ROOT
ATOM      1  S   UNL     1       4.565   4.789  18.100  0.00  0.00    +0.000 S 
ATOM      2  O   UNL     1       5.459   5.263  19.132  0.00  0.00    +0.000 OA
ATOM      3  O   UNL     1       3.287   5.387  17.818  0.00  0.00    +0.000 OA
ENDROOT
BRANCH   1   7
ATOM      4  C   UNL     1       6.879   4.941  14.169  0.00  0.00    +0.000 A 
ATOM      5  C   UNL     1       5.625   4.345  14.197  0.00  0.00    +0.000 A 
ATOM      6  C   UNL     1       4.930   4.295  15.408  0.00  0.00    +0.000 A 
ATOM      7  C   UNL     1       5.483   4.837  16.568  0.00  0.00    +0.000 A 
ATOM      8  C   UNL     1       6.749   5.435  16.541  0.00  0.00    +0.000 A 
ATOM      9  C   UNL     1       7.453   5.488  15.333  0.00  0.00    +0.000 A 
BRANCH   4  11
ATOM     10  O   UNL     1       7.289   4.151  12.028  0.00  0.00    +0.000 OA
ATOM     11  N   UNL     1       7.606   4.989  12.895  0.00  0.00    +0.000 N 
ATOM     12  O   UNL     1       8.484   5.843  12.752  0.00  0.00    +0.000 OA
ENDBRANCH   4  11
ENDBRANCH   1   7
BRANCH   1  13
ATOM     13  N   UNL     1       4.298   3.110  18.358  0.00  0.00    +0.000 NA
ATOM     14  H   UNL     1       4.873   2.533  17.751  0.00  0.00    +0.000 HD
BRANCH  13  15
ATOM     15  C   UNL     1       4.382   2.741  19.787  0.00  0.00    +0.000 C 
BRANCH  15  16
ATOM     16  C   UNL     1       3.076   2.179  20.328  0.00  0.00    +0.000 C 
ATOM     17  C   UNL     1       1.874   2.279  19.364  0.00  0.00    +0.000 C 
ATOM     18  C   UNL     1       0.854   3.115  20.159  0.00  0.00    +0.000 C 
ATOM     19  C   UNL     1       1.356   4.567  20.254  0.00  0.00    +0.000 C 
ATOM     20  C   UNL     1       2.489   4.476  21.286  0.00  0.00    +0.000 C 
ATOM     21  C   UNL     1       2.565   2.963  21.572  0.00  0.00    +0.000 C 
ATOM     22  C   UNL     1       1.078   2.604  21.582  0.00  0.00    +0.000 C 
ENDBRANCH  15  16
ENDBRANCH  13  15
ENDBRANCH   1  13
TORSDOF 5
ENDMDL
