MODEL 1
REMARK VINA RESULT:      -6.8      0.000      0.000
REMARK  Name = 
REMARK  8 active torsions:
REMARK  status: ('A' for Active; 'I' for Inactive)
REMARK    1  A    between atoms: C_1  and  O_2
REMARK    2  A    between atoms: O_2  and  C_3
REMARK    3  A    between atoms: C_8  and  N_9
REMARK    4  A    between atoms: N_9  and  C_10
REMARK    5  A    between atoms: C_10  and  N_12
REMARK    6  A    between atoms: N_12  and  C_13
REMARK    7  A    between atoms: C_13  and  C_14
REMARK    8  A    between atoms: C_20  and  N_21
REMARK                            x       y       z     vdW  Elec       q    Type
REMARK                         _______ _______ _______ _____ _____    ______ ____
ROOT
ATOM      1  N   UNL     1       5.713   3.888  16.838  0.00  0.00    +0.000 N 
ATOM      2  H   UNL     1       5.923   2.950  16.514  0.00  0.00    +0.000 HD
ENDROOT
BRANCH   1   3
ATOM      3  C   UNL     1       6.063   4.237  18.120  0.00  0.00    +0.000 C 
ATOM      4  S   UNL     1       7.155   5.461  18.468  0.00  0.00    +0.000 S 
BRANCH   3   5
ATOM      5  N   UNL     1       5.324   3.487  19.028  0.00  0.00    +0.000 N 
ATOM      6  H   UNL     1       5.849   2.771  19.508  0.00  0.00    +0.000 HD
BRANCH   5  12
ATOM      7  C   UNL     1       3.088   4.475  19.351  0.00  0.00    +0.000 A 
ATOM      8  C   UNL     1       1.696   4.295  19.330  0.00  0.00    +0.000 A 
ATOM      9  C   UNL     1       1.130   3.047  19.054  0.00  0.00    +0.000 A 
ATOM     10  C   UNL     1       1.953   1.969  18.772  0.00  0.00    +0.000 A 
ATOM     11  C   UNL     1       3.338   2.130  18.792  0.00  0.00    +0.000 A 
ATOM     12  C   UNL     1       3.921   3.369  19.105  0.00  0.00    +0.000 A 
BRANCH   7  14
ATOM     13  C   UNL     1       2.445   6.767  19.639  0.00  0.00    +0.000 C 
ATOM     14  O   UNL     1       3.461   5.775  19.577  0.00  0.00    +0.000 OA
ENDBRANCH   7  14
ENDBRANCH   5  12
ENDBRANCH   3   5
ENDBRANCH   1   3
BRANCH   1  15
ATOM     15  C   UNL     1       5.178   4.768  15.806  0.00  0.00    +0.000 C 
BRANCH  15  16
ATOM     16  C   UNL     1       5.776   4.443  14.465  0.00  0.00    +0.000 A 
ATOM     17  N   UNL     1       4.999   3.721  13.595  0.00  0.00    +0.000 NA
ATOM     18  C   UNL     1       5.536   3.519  12.378  0.00  0.00    +0.000 A 
ATOM     19 CL   UNL     1       4.544   2.663  11.280  0.00  0.00    +0.000 Cl
ATOM     20  C   UNL     1       6.791   3.986  12.035  0.00  0.00    +0.000 A 
ATOM     21  N   UNL     1       7.575   4.678  12.900  0.00  0.00    +0.000 NA
ATOM     22  C   UNL     1       7.059   4.900  14.127  0.00  0.00    +0.000 A 
BRANCH  22  23
ATOM     23  N   UNL     1       7.857   5.644  14.988  0.00  0.00    +0.000 N 
ATOM     24  H   UNL     1       7.537   5.455  15.936  0.00  0.00    +0.000 HD
ATOM     25  H   UNL     1       7.841   6.638  14.788  0.00  0.00    +0.000 HD
ENDBRANCH  22  23
ENDBRANCH  15  16
ENDBRANCH   1  15
TORSDOF 7
ENDMDL
MODEL 2
REMARK VINA RESULT:      -6.7      1.944      2.820
REMARK  Name = 
REMARK  8 active torsions:
REMARK  status: ('A' for Active; 'I' for Inactive)
REMARK    1  A    between atoms: C_1  and  O_2
REMARK    2  A    between atoms: O_2  and  C_3
REMARK    3  A    between atoms: C_8  and  N_9
REMARK    4  A    between atoms: N_9  and  C_10
REMARK    5  A    between atoms: C_10  and  N_12
REMARK    6  A    between atoms: N_12  and  C_13
REMARK    7  A    between atoms: C_13  and  C_14
REMARK    8  A    between atoms: C_20  and  N_21
REMARK                            x       y       z     vdW  Elec       q    Type
REMARK                         _______ _______ _______ _____ _____    ______ ____
ROOT
ATOM      1  N   UNL     1       4.726   3.527  17.181  0.00  0.00    +0.000 N 
ATOM      2  H   UNL     1       5.604   3.034  17.312  0.00  0.00    +0.000 HD
ENDROOT
BRANCH   1   3
ATOM      3  C   UNL     1       3.587   3.003  17.743  0.00  0.00    +0.000 C 
ATOM      4  S   UNL     1       3.537   1.495  18.473  0.00  0.00    +0.000 S 
BRANCH   3   5
ATOM      5  N   UNL     1       2.560   3.938  17.674  0.00  0.00    +0.000 N 
ATOM      6  H   UNL     1       2.195   4.094  16.746  0.00  0.00    +0.000 HD
BRANCH   5  12
ATOM      7  C   UNL     1       1.623   4.572  19.866  0.00  0.00    +0.000 A 
ATOM      8  C   UNL     1       1.386   5.585  20.808  0.00  0.00    +0.000 A 
ATOM      9  C   UNL     1       1.743   6.912  20.551  0.00  0.00    +0.000 A 
ATOM     10  C   UNL     1       2.363   7.235  19.355  0.00  0.00    +0.000 A 
ATOM     11  C   UNL     1       2.603   6.241  18.407  0.00  0.00    +0.000 A 
ATOM     12  C   UNL     1       2.216   4.910  18.637  0.00  0.00    +0.000 A 
BRANCH   7  14
ATOM     13  C   UNL     1       1.773   2.887  21.566  0.00  0.00    +0.000 C 
ATOM     14  O   UNL     1       1.266   3.325  20.313  0.00  0.00    +0.000 OA
ENDBRANCH   7  14
ENDBRANCH   5  12
ENDBRANCH   3   5
ENDBRANCH   1   3
BRANCH   1  15
ATOM     15  C   UNL     1       4.861   4.814  16.512  0.00  0.00    +0.000 C 
BRANCH  15  16
ATOM     16  C   UNL     1       5.789   4.708  15.333  0.00  0.00    +0.000 A 
ATOM     17  N   UNL     1       5.392   3.898  14.299  0.00  0.00    +0.000 NA
ATOM     18  C   UNL     1       6.208   3.890  13.230  0.00  0.00    +0.000 A 
ATOM     19 CL   UNL     1       5.684   2.920  11.924  0.00  0.00    +0.000 Cl
ATOM     20  C   UNL     1       7.375   4.629  13.182  0.00  0.00    +0.000 A 
ATOM     21  N   UNL     1       7.786   5.412  14.213  0.00  0.00    +0.000 NA
ATOM     22  C   UNL     1       6.985   5.442  15.296  0.00  0.00    +0.000 A 
BRANCH  22  23
ATOM     23  N   UNL     1       7.398   6.279  16.326  0.00  0.00    +0.000 N 
ATOM     24  H   UNL     1       7.484   7.217  15.939  0.00  0.00    +0.000 HD
ATOM     25  H   UNL     1       8.266   5.981  16.758  0.00  0.00    +0.000 HD
ENDBRANCH  22  23
ENDBRANCH  15  16
ENDBRANCH   1  15
TORSDOF 7
ENDMDL
MODEL 3
REMARK VINA RESULT:      -6.7      3.271      6.397
REMARK  Name = 
REMARK  8 active torsions:
REMARK  status: ('A' for Active; 'I' for Inactive)
REMARK    1  A    between atoms: C_1  and  O_2
REMARK    2  A    between atoms: O_2  and  C_3
REMARK    3  A    between atoms: C_8  and  N_9
REMARK    4  A    between atoms: N_9  and  C_10
REMARK    5  A    between atoms: C_10  and  N_12
REMARK    6  A    between atoms: N_12  and  C_13
REMARK    7  A    between atoms: C_13  and  C_14
REMARK    8  A    between atoms: C_20  and  N_21
REMARK                            x       y       z     vdW  Elec       q    Type
REMARK                         _______ _______ _______ _____ _____    ______ ____
ROOT
ATOM      1  N   UNL     1       2.536   2.038  18.185  0.00  0.00    +0.000 N 
ATOM      2  H   UNL     1       2.367   1.132  17.760  0.00  0.00    +0.000 HD
ENDROOT
BRANCH   1   3
ATOM      3  C   UNL     1       3.815   2.357  18.574  0.00  0.00    +0.000 C 
ATOM      4  S   UNL     1       4.453   1.918  20.060  0.00  0.00    +0.000 S 
BRANCH   3   5
ATOM      5  N   UNL     1       4.474   3.001  17.533  0.00  0.00    +0.000 N 
ATOM      6  H   UNL     1       4.386   2.548  16.635  0.00  0.00    +0.000 HD
BRANCH   5  12
ATOM      7  C   UNL     1       6.287   4.337  16.529  0.00  0.00    +0.000 A 
ATOM      8  C   UNL     1       7.228   5.368  16.682  0.00  0.00    +0.000 A 
ATOM      9  C   UNL     1       7.377   6.038  17.900  0.00  0.00    +0.000 A 
ATOM     10  C   UNL     1       6.568   5.699  18.972  0.00  0.00    +0.000 A 
ATOM     11  C   UNL     1       5.630   4.676  18.837  0.00  0.00    +0.000 A 
ATOM     12  C   UNL     1       5.495   3.969  17.631  0.00  0.00    +0.000 A 
BRANCH   7  14
ATOM     13  C   UNL     1       6.766   4.629  14.197  0.00  0.00    +0.000 C 
ATOM     14  O   UNL     1       6.237   3.838  15.252  0.00  0.00    +0.000 OA
ENDBRANCH   7  14
ENDBRANCH   5  12
ENDBRANCH   3   5
ENDBRANCH   1   3
BRANCH   1  15
ATOM     15  C   UNL     1       1.375   2.920  18.183  0.00  0.00    +0.000 C 
BRANCH  15  16
ATOM     16  C   UNL     1       1.693   4.221  18.868  0.00  0.00    +0.000 A 
ATOM     17  N   UNL     1       2.190   5.232  18.085  0.00  0.00    +0.000 NA
ATOM     18  C   UNL     1       2.387   6.404  18.716  0.00  0.00    +0.000 A 
ATOM     19 CL   UNL     1       2.959   7.674  17.726  0.00  0.00    +0.000 Cl
ATOM     20  C   UNL     1       2.127   6.573  20.063  0.00  0.00    +0.000 A 
ATOM     21  N   UNL     1       1.659   5.569  20.848  0.00  0.00    +0.000 NA
ATOM     22  C   UNL     1       1.448   4.384  20.240  0.00  0.00    +0.000 A 
BRANCH  22  23
ATOM     23  N   UNL     1       0.931   3.378  21.048  0.00  0.00    +0.000 N 
ATOM     24  H   UNL     1      -0.030   3.631  21.269  0.00  0.00    +0.000 HD
ATOM     25  H   UNL     1       1.473   3.227  21.892  0.00  0.00    +0.000 HD
ENDBRANCH  22  23
ENDBRANCH  15  16
ENDBRANCH   1  15
TORSDOF 7
ENDMDL
MODEL 4
REMARK VINA RESULT:      -6.7      1.764      2.439
REMARK  Name = 
REMARK  8 active torsions:
REMARK  status: ('A' for Active; 'I' for Inactive)
REMARK    1  A    between atoms: C_1  and  O_2
REMARK    2  A    between atoms: O_2  and  C_3
REMARK    3  A    between atoms: C_8  and  N_9
REMARK    4  A    between atoms: N_9  and  C_10
REMARK    5  A    between atoms: C_10  and  N_12
REMARK    6  A    between atoms: N_12  and  C_13
REMARK    7  A    between atoms: C_13  and  C_14
REMARK    8  A    between atoms: C_20  and  N_21
REMARK                            x       y       z     vdW  Elec       q    Type
REMARK                         _______ _______ _______ _____ _____    ______ ____
ROOT
ATOM      1  N   UNL     1       4.367   4.846  16.769  0.00  0.00    +0.000 N 
ATOM      2  H   UNL     1       3.602   4.647  16.133  0.00  0.00    +0.000 HD
ENDROOT
BRANCH   1   3
ATOM      3  C   UNL     1       4.182   5.792  17.748  0.00  0.00    +0.000 C 
ATOM      4  S   UNL     1       3.948   7.418  17.415  0.00  0.00    +0.000 S 
BRANCH   3   5
ATOM      5  N   UNL     1       4.143   5.175  18.994  0.00  0.00    +0.000 N 
ATOM      6  H   UNL     1       5.047   5.033  19.421  0.00  0.00    +0.000 HD
BRANCH   5  12
ATOM      7  C   UNL     1       3.145   3.044  19.731  0.00  0.00    +0.000 A 
ATOM      8  C   UNL     1       2.082   2.390  20.373  0.00  0.00    +0.000 A 
ATOM      9  C   UNL     1       0.976   3.099  20.850  0.00  0.00    +0.000 A 
ATOM     10  C   UNL     1       0.934   4.477  20.710  0.00  0.00    +0.000 A 
ATOM     11  C   UNL     1       1.980   5.141  20.072  0.00  0.00    +0.000 A 
ATOM     12  C   UNL     1       3.080   4.437  19.554  0.00  0.00    +0.000 A 
BRANCH   7  14
ATOM     13  C   UNL     1       3.918   1.195  18.413  0.00  0.00    +0.000 C 
ATOM     14  O   UNL     1       4.170   2.199  19.386  0.00  0.00    +0.000 OA
ENDBRANCH   7  14
ENDBRANCH   5  12
ENDBRANCH   3   5
ENDBRANCH   1   3
BRANCH   1  15
ATOM     15  C   UNL     1       5.518   3.966  16.607  0.00  0.00    +0.000 C 
BRANCH  15  16
ATOM     16  C   UNL     1       6.188   4.203  15.281  0.00  0.00    +0.000 A 
ATOM     17  N   UNL     1       5.797   3.405  14.235  0.00  0.00    +0.000 NA
ATOM     18  C   UNL     1       6.359   3.698  13.048  0.00  0.00    +0.000 A 
ATOM     19 CL   UNL     1       5.832   2.735  11.738  0.00  0.00    +0.000 Cl
ATOM     20  C   UNL     1       7.280   4.718  12.896  0.00  0.00    +0.000 A 
ATOM     21  N   UNL     1       7.689   5.494  13.932  0.00  0.00    +0.000 NA
ATOM     22  C   UNL     1       7.138   5.225  15.133  0.00  0.00    +0.000 A 
BRANCH  22  23
ATOM     23  N   UNL     1       7.537   6.053  16.176  0.00  0.00    +0.000 N 
ATOM     24  H   UNL     1       7.902   5.455  16.915  0.00  0.00    +0.000 HD
ATOM     25  H   UNL     1       6.792   6.648  16.520  0.00  0.00    +0.000 HD
ENDBRANCH  22  23
ENDBRANCH  15  16
ENDBRANCH   1  15
TORSDOF 7
ENDMDL
MODEL 5
REMARK VINA RESULT:      -6.7      3.567      5.229
REMARK  Name = 
REMARK  8 active torsions:
REMARK  status: ('A' for Active; 'I' for Inactive)
REMARK    1  A    between atoms: C_1  and  O_2
REMARK    2  A    between atoms: O_2  and  C_3
REMARK    3  A    between atoms: C_8  and  N_9
REMARK    4  A    between atoms: N_9  and  C_10
REMARK    5  A    between atoms: C_10  and  N_12
REMARK    6  A    between atoms: N_12  and  C_13
REMARK    7  A    between atoms: C_13  and  C_14
REMARK    8  A    between atoms: C_20  and  N_21
REMARK                            x       y       z     vdW  Elec       q    Type
REMARK                         _______ _______ _______ _____ _____    ______ ____
ROOT
ATOM      1  N   UNL     1       3.364   3.689  20.849  0.00  0.00    +0.000 N 
ATOM      2  H   UNL     1       3.791   3.820  21.760  0.00  0.00    +0.000 HD
ENDROOT
BRANCH   1   3
ATOM      3  C   UNL     1       2.221   4.391  20.549  0.00  0.00    +0.000 C 
ATOM      4  S   UNL     1       0.799   3.654  20.054  0.00  0.00    +0.000 S 
BRANCH   3   5
ATOM      5  N   UNL     1       2.424   5.744  20.799  0.00  0.00    +0.000 N 
ATOM      6  H   UNL     1       2.481   5.987  21.777  0.00  0.00    +0.000 HD
BRANCH   5  12
ATOM      7  C   UNL     1       1.563   8.002  20.310  0.00  0.00    +0.000 A 
ATOM      8  C   UNL     1       1.468   9.065  19.398  0.00  0.00    +0.000 A 
ATOM      9  C   UNL     1       2.022   8.974  18.117  0.00  0.00    +0.000 A 
ATOM     10  C   UNL     1       2.699   7.824  17.744  0.00  0.00    +0.000 A 
ATOM     11  C   UNL     1       2.800   6.758  18.637  0.00  0.00    +0.000 A 
ATOM     12  C   UNL     1       2.216   6.822  19.914  0.00  0.00    +0.000 A 
BRANCH   7  14
ATOM     13  C   UNL     1       0.069   9.346  21.619  0.00  0.00    +0.000 C 
ATOM     14  O   UNL     1       1.018   8.292  21.535  0.00  0.00    +0.000 OA
ENDBRANCH   7  14
ENDBRANCH   5  12
ENDBRANCH   3   5
ENDBRANCH   1   3
BRANCH   1  15
ATOM     15  C   UNL     1       4.141   2.853  19.943  0.00  0.00    +0.000 C 
BRANCH  15  16
ATOM     16  C   UNL     1       4.749   3.679  18.844  0.00  0.00    +0.000 A 
ATOM     17  N   UNL     1       5.853   4.429  19.166  0.00  0.00    +0.000 NA
ATOM     18  C   UNL     1       6.416   5.092  18.140  0.00  0.00    +0.000 A 
ATOM     19 CL   UNL     1       7.819   5.984  18.535  0.00  0.00    +0.000 Cl
ATOM     20  C   UNL     1       5.909   5.039  16.855  0.00  0.00    +0.000 A 
ATOM     21  N   UNL     1       4.802   4.319  16.536  0.00  0.00    +0.000 NA
ATOM     22  C   UNL     1       4.219   3.641  17.545  0.00  0.00    +0.000 A 
BRANCH  22  23
ATOM     23  N   UNL     1       3.112   2.877  17.194  0.00  0.00    +0.000 N 
ATOM     24  H   UNL     1       3.253   1.945  17.578  0.00  0.00    +0.000 HD
ATOM     25  H   UNL     1       2.953   2.841  16.193  0.00  0.00    +0.000 HD
ENDBRANCH  22  23
ENDBRANCH  15  16
ENDBRANCH   1  15
TORSDOF 7
ENDMDL
MODEL 6
REMARK VINA RESULT:      -6.7      4.101      5.669
REMARK  Name = 
REMARK  8 active torsions:
REMARK  status: ('A' for Active; 'I' for Inactive)
REMARK    1  A    between atoms: C_1  and  O_2
REMARK    2  A    between atoms: O_2  and  C_3
REMARK    3  A    between atoms: C_8  and  N_9
REMARK    4  A    between atoms: N_9  and  C_10
REMARK    5  A    between atoms: C_10  and  N_12
REMARK    6  A    between atoms: N_12  and  C_13
REMARK    7  A    between atoms: C_13  and  C_14
REMARK    8  A    between atoms: C_20  and  N_21
REMARK                            x       y       z     vdW  Elec       q    Type
REMARK                         _______ _______ _______ _____ _____    ______ ____
ROOT
ATOM      1  N   UNL     1       3.048   6.218  18.004  0.00  0.00    +0.000 N 
ATOM      2  H   UNL     1       2.733   7.038  17.495  0.00  0.00    +0.000 HD
ENDROOT
BRANCH   1   3
ATOM      3  C   UNL     1       2.463   5.928  19.213  0.00  0.00    +0.000 C 
ATOM      4  S   UNL     1       1.798   4.432  19.571  0.00  0.00    +0.000 S 
BRANCH   3   5
ATOM      5  N   UNL     1       2.593   7.017  20.069  0.00  0.00    +0.000 N 
ATOM      6  H   UNL     1       3.342   6.937  20.740  0.00  0.00    +0.000 HD
BRANCH   5  12
ATOM      7  C   UNL     1       1.331   9.033  19.417  0.00  0.00    +0.000 A 
ATOM      8  C   UNL     1       0.306   9.943  19.721  0.00  0.00    +0.000 A 
ATOM      9  C   UNL     1      -0.421   9.845  20.911  0.00  0.00    +0.000 A 
ATOM     10  C   UNL     1      -0.145   8.818  21.800  0.00  0.00    +0.000 A 
ATOM     11  C   UNL     1       0.871   7.907  21.514  0.00  0.00    +0.000 A 
ATOM     12  C   UNL     1       1.635   8.016  20.339  0.00  0.00    +0.000 A 
BRANCH   7  14
ATOM     13  C   UNL     1       2.254  10.571  17.825  0.00  0.00    +0.000 C 
ATOM     14  O   UNL     1       1.892   9.244  18.183  0.00  0.00    +0.000 OA
ENDBRANCH   7  14
ENDBRANCH   5  12
ENDBRANCH   3   5
ENDBRANCH   1   3
BRANCH   1  15
ATOM     15  C   UNL     1       4.003   5.395  17.273  0.00  0.00    +0.000 C 
BRANCH  15  16
ATOM     16  C   UNL     1       5.398   5.610  17.791  0.00  0.00    +0.000 A 
ATOM     17  N   UNL     1       6.022   6.779  17.435  0.00  0.00    +0.000 NA
ATOM     18  C   UNL     1       7.236   6.972  17.981  0.00  0.00    +0.000 A 
ATOM     19 CL   UNL     1       7.988   8.452  17.574  0.00  0.00    +0.000 Cl
ATOM     20  C   UNL     1       7.824   6.049  18.826  0.00  0.00    +0.000 A 
ATOM     21  N   UNL     1       7.222   4.879  19.162  0.00  0.00    +0.000 NA
ATOM     22  C   UNL     1       6.002   4.662  18.632  0.00  0.00    +0.000 A 
BRANCH  22  23
ATOM     23  N   UNL     1       5.382   3.479  19.016  0.00  0.00    +0.000 N 
ATOM     24  H   UNL     1       5.125   2.981  18.166  0.00  0.00    +0.000 HD
ATOM     25  H   UNL     1       4.575   3.626  19.613  0.00  0.00    +0.000 HD
ENDBRANCH  22  23
ENDBRANCH  15  16
ENDBRANCH   1  15
TORSDOF 7
ENDMDL
MODEL 7
REMARK VINA RESULT:      -6.6      3.880      5.331
REMARK  Name = 
REMARK  8 active torsions:
REMARK  status: ('A' for Active; 'I' for Inactive)
REMARK    1  A    between atoms: C_1  and  O_2
REMARK    2  A    between atoms: O_2  and  C_3
REMARK    3  A    between atoms: C_8  and  N_9
REMARK    4  A    between atoms: N_9  and  C_10
REMARK    5  A    between atoms: C_10  and  N_12
REMARK    6  A    between atoms: N_12  and  C_13
REMARK    7  A    between atoms: C_13  and  C_14
REMARK    8  A    between atoms: C_20  and  N_21
REMARK                            x       y       z     vdW  Elec       q    Type
REMARK                         _______ _______ _______ _____ _____    ______ ____
ROOT
ATOM      1  N   UNL     1       3.432   4.451  18.775  0.00  0.00    +0.000 N 
ATOM      2  H   UNL     1       3.896   3.624  19.136  0.00  0.00    +0.000 HD
ENDROOT
BRANCH   1   3
ATOM      3  C   UNL     1       2.519   5.098  19.573  0.00  0.00    +0.000 C 
ATOM      4  S   UNL     1       1.195   4.329  20.256  0.00  0.00    +0.000 S 
BRANCH   3   5
ATOM      5  N   UNL     1       2.919   6.415  19.769  0.00  0.00    +0.000 N 
ATOM      6  H   UNL     1       3.630   6.538  20.474  0.00  0.00    +0.000 HD
BRANCH   5  12
ATOM      7  C   UNL     1       1.474   8.347  20.278  0.00  0.00    +0.000 A 
ATOM      8  C   UNL     1       0.895   9.547  19.835  0.00  0.00    +0.000 A 
ATOM      9  C   UNL     1       1.080  10.001  18.526  0.00  0.00    +0.000 A 
ATOM     10  C   UNL     1       1.868   9.270  17.652  0.00  0.00    +0.000 A 
ATOM     11  C   UNL     1       2.447   8.075  18.075  0.00  0.00    +0.000 A 
ATOM     12  C   UNL     1       2.239   7.587  19.377  0.00  0.00    +0.000 A 
BRANCH   7  14
ATOM     13  C   UNL     1       1.019   9.193  22.476  0.00  0.00    +0.000 C 
ATOM     14  O   UNL     1       1.237   8.091  21.605  0.00  0.00    +0.000 OA
ENDBRANCH   7  14
ENDBRANCH   5  12
ENDBRANCH   3   5
ENDBRANCH   1   3
BRANCH   1  15
ATOM     15  C   UNL     1       3.933   4.895  17.480  0.00  0.00    +0.000 C 
BRANCH  15  16
ATOM     16  C   UNL     1       5.256   5.595  17.632  0.00  0.00    +0.000 A 
ATOM     17  N   UNL     1       5.979   5.321  18.766  0.00  0.00    +0.000 NA
ATOM     18  C   UNL     1       7.190   5.903  18.829  0.00  0.00    +0.000 A 
ATOM     19 CL   UNL     1       8.108   5.519  20.219  0.00  0.00    +0.000 Cl
ATOM     20  C   UNL     1       7.666   6.735  17.833  0.00  0.00    +0.000 A 
ATOM     21  N   UNL     1       6.945   7.030  16.721  0.00  0.00    +0.000 NA
ATOM     22  C   UNL     1       5.728   6.456  16.629  0.00  0.00    +0.000 A 
BRANCH  22  23
ATOM     23  N   UNL     1       5.018   6.736  15.467  0.00  0.00    +0.000 N 
ATOM     24  H   UNL     1       4.919   5.861  14.955  0.00  0.00    +0.000 HD
ATOM     25  H   UNL     1       5.457   7.448  14.894  0.00  0.00    +0.000 HD
ENDBRANCH  22  23
ENDBRANCH  15  16
ENDBRANCH   1  15
TORSDOF 7
ENDMDL
MODEL 8
REMARK VINA RESULT:      -6.6      2.712      4.621
REMARK  Name = 
REMARK  8 active torsions:
REMARK  status: ('A' for Active; 'I' for Inactive)
REMARK    1  A    between atoms: C_1  and  O_2
REMARK    2  A    between atoms: O_2  and  C_3
REMARK    3  A    between atoms: C_8  and  N_9
REMARK    4  A    between atoms: N_9  and  C_10
REMARK    5  A    between atoms: C_10  and  N_12
REMARK    6  A    between atoms: N_12  and  C_13
REMARK    7  A    between atoms: C_13  and  C_14
REMARK    8  A    between atoms: C_20  and  N_21
REMARK                            x       y       z     vdW  Elec       q    Type
REMARK                         _______ _______ _______ _____ _____    ______ ____
ROOT
ATOM      1  N   UNL     1       3.954   4.966  19.741  0.00  0.00    +0.000 N 
ATOM      2  H   UNL     1       4.562   5.775  19.813  0.00  0.00    +0.000 HD
ENDROOT
BRANCH   1   3
ATOM      3  C   UNL     1       2.627   5.107  20.066  0.00  0.00    +0.000 C 
ATOM      4  S   UNL     1       1.508   3.870  19.900  0.00  0.00    +0.000 S 
BRANCH   3   5
ATOM      5  N   UNL     1       2.409   6.369  20.608  0.00  0.00    +0.000 N 
ATOM      6  H   UNL     1       2.261   6.378  21.607  0.00  0.00    +0.000 HD
BRANCH   5  12
ATOM      7  C   UNL     1       2.336   7.751  18.568  0.00  0.00    +0.000 A 
ATOM      8  C   UNL     1       1.858   8.909  17.934  0.00  0.00    +0.000 A 
ATOM      9  C   UNL     1       1.081   9.845  18.624  0.00  0.00    +0.000 A 
ATOM     10  C   UNL     1       0.754   9.618  19.951  0.00  0.00    +0.000 A 
ATOM     11  C   UNL     1       1.223   8.475  20.595  0.00  0.00    +0.000 A 
ATOM     12  C   UNL     1       2.036   7.545  19.926  0.00  0.00    +0.000 A 
BRANCH   7  14
ATOM     13  C   UNL     1       4.231   7.399  17.141  0.00  0.00    +0.000 C 
ATOM     14  O   UNL     1       3.027   6.920  17.723  0.00  0.00    +0.000 OA
ENDBRANCH   7  14
ENDBRANCH   5  12
ENDBRANCH   3   5
ENDBRANCH   1   3
BRANCH   1  15
ATOM     15  C   UNL     1       4.594   3.792  19.159  0.00  0.00    +0.000 C 
BRANCH  15  16
ATOM     16  C   UNL     1       5.520   4.188  18.043  0.00  0.00    +0.000 A 
ATOM     17  N   UNL     1       5.095   3.937  16.762  0.00  0.00    +0.000 NA
ATOM     18  C   UNL     1       5.913   4.376  15.789  0.00  0.00    +0.000 A 
ATOM     19 CL   UNL     1       5.357   4.106  14.196  0.00  0.00    +0.000 Cl
ATOM     20  C   UNL     1       7.108   5.018  16.058  0.00  0.00    +0.000 A 
ATOM     21  N   UNL     1       7.545   5.246  17.323  0.00  0.00    +0.000 NA
ATOM     22  C   UNL     1       6.742   4.820  18.319  0.00  0.00    +0.000 A 
BRANCH  22  23
ATOM     23  N   UNL     1       7.185   5.097  19.607  0.00  0.00    +0.000 N 
ATOM     24  H   UNL     1       7.941   5.774  19.529  0.00  0.00    +0.000 HD
ATOM     25  H   UNL     1       7.484   4.271  20.112  0.00  0.00    +0.000 HD
ENDBRANCH  22  23
ENDBRANCH  15  16
ENDBRANCH   1  15
TORSDOF 7
ENDMDL
MODEL 9
REMARK VINA RESULT:      -6.6      3.931      5.509
REMARK  Name = 
REMARK  8 active torsions:
REMARK  status: ('A' for Active; 'I' for Inactive)
REMARK    1  A    between atoms: C_1  and  O_2
REMARK    2  A    between atoms: O_2  and  C_3
REMARK    3  A    between atoms: C_8  and  N_9
REMARK    4  A    between atoms: N_9  and  C_10
REMARK    5  A    between atoms: C_10  and  N_12
REMARK    6  A    between atoms: N_12  and  C_13
REMARK    7  A    between atoms: C_13  and  C_14
REMARK    8  A    between atoms: C_20  and  N_21
REMARK                            x       y       z     vdW  Elec       q    Type
REMARK                         _______ _______ _______ _____ _____    ______ ____
ROOT
ATOM      1  N   UNL     1       2.096   4.986  18.524  0.00  0.00    +0.000 N 
ATOM      2  H   UNL     1       1.197   5.166  18.088  0.00  0.00    +0.000 HD
ENDROOT
BRANCH   1   3
ATOM      3  C   UNL     1       2.259   5.298  19.852  0.00  0.00    +0.000 C 
ATOM      4  S   UNL     1       2.017   4.190  21.087  0.00  0.00    +0.000 S 
BRANCH   3   5
ATOM      5  N   UNL     1       2.718   6.604  19.974  0.00  0.00    +0.000 N 
ATOM      6  H   UNL     1       3.436   6.734  20.672  0.00  0.00    +0.000 HD
BRANCH   5  12
ATOM      7  C   UNL     1       1.272   8.566  20.347  0.00  0.00    +0.000 A 
ATOM      8  C   UNL     1       0.750   9.770  19.847  0.00  0.00    +0.000 A 
ATOM      9  C   UNL     1       1.043  10.204  18.551  0.00  0.00    +0.000 A 
ATOM     10  C   UNL     1       1.883   9.448  17.749  0.00  0.00    +0.000 A 
ATOM     11  C   UNL     1       2.407   8.249  18.230  0.00  0.00    +0.000 A 
ATOM     12  C   UNL     1       2.091   7.782  19.517  0.00  0.00    +0.000 A 
BRANCH   7  14
ATOM     13  C   UNL     1      -0.293   8.870  22.139  0.00  0.00    +0.000 C 
ATOM     14  O   UNL     1       0.930   8.332  21.655  0.00  0.00    +0.000 OA
ENDBRANCH   7  14
ENDBRANCH   5  12
ENDBRANCH   3   5
ENDBRANCH   1   3
BRANCH   1  15
ATOM     15  C   UNL     1       3.042   4.284  17.666  0.00  0.00    +0.000 C 
BRANCH  15  16
ATOM     16  C   UNL     1       4.452   4.718  17.960  0.00  0.00    +0.000 A 
ATOM     17  N   UNL     1       4.857   5.918  17.433  0.00  0.00    +0.000 NA
ATOM     18  C   UNL     1       6.095   6.310  17.782  0.00  0.00    +0.000 A 
ATOM     19 CL   UNL     1       6.576   7.830  17.165  0.00  0.00    +0.000 Cl
ATOM     20  C   UNL     1       6.911   5.549  18.597  0.00  0.00    +0.000 A 
ATOM     21  N   UNL     1       6.526   4.348  19.101  0.00  0.00    +0.000 NA
ATOM     22  C   UNL     1       5.286   3.932  18.770  0.00  0.00    +0.000 A 
BRANCH  22  23
ATOM     23  N   UNL     1       4.892   2.721  19.325  0.00  0.00    +0.000 N 
ATOM     24  H   UNL     1       5.605   2.450  19.999  0.00  0.00    +0.000 HD
ATOM     25  H   UNL     1       4.746   1.994  18.634  0.00  0.00    +0.000 HD
ENDBRANCH  22  23
ENDBRANCH  15  16
ENDBRANCH   1  15
TORSDOF 7
ENDMDL
