MODEL 1
REMARK VINA RESULT:      -7.7      0.000      0.000
REMARK  Name = 
REMARK  11 active torsions:
REMARK  status: ('A' for Active; 'I' for Inactive)
REMARK    1  A    between atoms: C_1  and  C_2
REMARK    2  A    between atoms: C_2  and  C_3
REMARK    3  A    between atoms: C_3  and  N_4
REMARK    4  A    between atoms: N_4  and  C_5
REMARK    5  A    between atoms: N_4  and  C_25
REMARK    6  A    between atoms: C_5  and  C_6
REMARK    7  A    between atoms: C_6  and  C_7
REMARK    8  A    between atoms: C_7  and  O_8
REMARK    9  A    between atoms: C_10  and  N_11
REMARK   10  A    between atoms: C_12  and  C_14
REMARK   11  A    between atoms: C_27  and  C_28
REMARK                            x       y       z     vdW  Elec       q    Type
REMARK                         _______ _______ _______ _____ _____    ______ ____
ROOT
ATOM      1  C   UNL     1      -0.105   9.782  21.924  0.00  0.00    +0.000 C 
ATOM      2  C   UNL     1       0.912  10.727  21.206  0.00  0.00    +0.000 C 
ATOM      3  C   UNL     1       0.544  10.045  19.871  0.00  0.00    +0.000 C 
ATOM      4  C   UNL     1      -0.793   9.628  20.532  0.00  0.00    +0.000 C 
ENDROOT
BRANCH   3   5
ATOM      5  N   UNL     1       1.409   8.900  19.512  0.00  0.00    +0.000 N 
ATOM      6  C   UNL     1       2.033   8.781  18.285  0.00  0.00    +0.000 C 
ATOM      7  O   UNL     1       1.974   9.633  17.411  0.00  0.00    +0.000 OA
ATOM      8  H   UNL     1       1.451   8.110  20.149  0.00  0.00    +0.000 HD
BRANCH   6   9
ATOM      9  C   UNL     1       2.747   7.496  18.045  0.00  0.00    +0.000 A 
ATOM     10  C   UNL     1       2.330   6.299  18.638  0.00  0.00    +0.000 A 
ATOM     11  C   UNL     1       2.962   5.098  18.307  0.00  0.00    +0.000 A 
ATOM     12  C   UNL     1       4.020   5.075  17.386  0.00  0.00    +0.000 A 
ATOM     13  C   UNL     1       4.627   3.867  17.007  0.00  0.00    +0.000 A 
ATOM     14  C   UNL     1       5.665   3.856  16.074  0.00  0.00    +0.000 A 
ATOM     15  C   UNL     1       6.122   5.051  15.524  0.00  0.00    +0.000 A 
ATOM     16  C   UNL     1       5.534   6.261  15.896  0.00  0.00    +0.000 A 
ATOM     17  C   UNL     1       4.473   6.290  16.814  0.00  0.00    +0.000 A 
ATOM     18  C   UNL     1       3.839   7.491  17.168  0.00  0.00    +0.000 A 
ENDBRANCH   6   9
ENDBRANCH   3   5
BRANCH   1  19
ATOM     19  O   UNL     1       0.480   8.552  22.423  0.00  0.00    +0.000 OA
ATOM     20  H   UNL     1       1.428   8.747  22.530  0.00  0.00    +0.000 HD
ENDBRANCH   1  19
BRANCH   1  21
ATOM     21  C   UNL     1      -0.944  10.448  23.035  0.00  0.00    +0.000 C 
BRANCH  21  22
ATOM     22  C   UNL     1      -0.995  11.979  22.827  0.00  0.00    +0.000 C 
BRANCH  22  23
ATOM     23  N   UNL     1      -2.301  12.638  22.641  0.00  0.00    +0.000 NA
BRANCH  23  24
ATOM     24  C   UNL     1      -3.020  12.259  21.395  0.00  0.00    +0.000 C 
ATOM     25  C   UNL     1      -4.042  13.249  20.891  0.00  0.00    +0.000 C 
ATOM     26  C   UNL     1      -2.828  12.959  20.049  0.00  0.00    +0.000 C 
BRANCH  26  27
ATOM     27  C   UNL     1      -3.051  12.211  18.745  0.00  0.00    +0.000 A 
ATOM     28  C   UNL     1      -4.337  11.818  18.316  0.00  0.00    +0.000 A 
ATOM     29  C   UNL     1      -4.529  11.076  17.140  0.00  0.00    +0.000 A 
ATOM     30  C   UNL     1      -3.430  10.724  16.361  0.00  0.00    +0.000 A 
ATOM     31 CL   UNL     1      -3.647   9.784  14.938  0.00  0.00    +0.000 Cl
ATOM     32  C   UNL     1      -2.153  11.126  16.739  0.00  0.00    +0.000 A 
ATOM     33  C   UNL     1      -1.973  11.867  17.914  0.00  0.00    +0.000 A 
ENDBRANCH  26  27
ENDBRANCH  23  24
BRANCH  23  34
ATOM     34  C   UNL     1      -3.189  12.593  23.817  0.00  0.00    +0.000 C 
BRANCH  34  36
ATOM     35  C   UNL     1      -2.542  14.823  24.920  0.00  0.00    +0.000 C 
ATOM     36  C   UNL     1      -3.660  13.948  24.368  0.00  0.00    +0.000 C 
ENDBRANCH  34  36
ENDBRANCH  23  34
ENDBRANCH  22  23
ENDBRANCH  21  22
ENDBRANCH   1  21
TORSDOF 10
ENDMDL
MODEL 2
REMARK VINA RESULT:      -7.4      0.944      1.951
REMARK  Name = 
REMARK  11 active torsions:
REMARK  status: ('A' for Active; 'I' for Inactive)
REMARK    1  A    between atoms: C_1  and  C_2
REMARK    2  A    between atoms: C_2  and  C_3
REMARK    3  A    between atoms: C_3  and  N_4
REMARK    4  A    between atoms: N_4  and  C_5
REMARK    5  A    between atoms: N_4  and  C_25
REMARK    6  A    between atoms: C_5  and  C_6
REMARK    7  A    between atoms: C_6  and  C_7
REMARK    8  A    between atoms: C_7  and  O_8
REMARK    9  A    between atoms: C_10  and  N_11
REMARK   10  A    between atoms: C_12  and  C_14
REMARK   11  A    between atoms: C_27  and  C_28
REMARK                            x       y       z     vdW  Elec       q    Type
REMARK                         _______ _______ _______ _____ _____    ______ ____
ROOT
ATOM      1  C   UNL     1       0.027   9.852  21.844  0.00  0.00    +0.000 C 
ATOM      2  C   UNL     1       1.096  10.715  21.098  0.00  0.00    +0.000 C 
ATOM      3  C   UNL     1       0.640  10.064  19.774  0.00  0.00    +0.000 C 
ATOM      4  C   UNL     1      -0.708   9.753  20.471  0.00  0.00    +0.000 C 
ENDROOT
BRANCH   3   5
ATOM      5  N   UNL     1       1.402   8.855  19.395  0.00  0.00    +0.000 N 
ATOM      6  C   UNL     1       2.049   8.719  18.181  0.00  0.00    +0.000 C 
ATOM      7  O   UNL     1       2.097   9.604  17.339  0.00  0.00    +0.000 OA
ATOM      8  H   UNL     1       1.350   8.042  20.002  0.00  0.00    +0.000 HD
BRANCH   6   9
ATOM      9  C   UNL     1       2.644   7.381  17.911  0.00  0.00    +0.000 A 
ATOM     10  C   UNL     1       3.990   7.232  17.559  0.00  0.00    +0.000 A 
ATOM     11  C   UNL     1       4.536   5.954  17.415  0.00  0.00    +0.000 A 
ATOM     12  C   UNL     1       3.749   4.811  17.615  0.00  0.00    +0.000 A 
ATOM     13  C   UNL     1       4.301   3.523  17.524  0.00  0.00    +0.000 A 
ATOM     14  C   UNL     1       3.510   2.394  17.744  0.00  0.00    +0.000 A 
ATOM     15  C   UNL     1       2.156   2.537  18.038  0.00  0.00    +0.000 A 
ATOM     16  C   UNL     1       1.591   3.810  18.125  0.00  0.00    +0.000 A 
ATOM     17  C   UNL     1       2.375   4.957  17.930  0.00  0.00    +0.000 A 
ATOM     18  C   UNL     1       1.836   6.248  18.056  0.00  0.00    +0.000 A 
ENDBRANCH   6   9
ENDBRANCH   3   5
BRANCH   1  19
ATOM     19  O   UNL     1       0.526   8.580  22.330  0.00  0.00    +0.000 OA
ATOM     20  H   UNL     1      -0.221   8.181  22.810  0.00  0.00    +0.000 HD
ENDBRANCH   1  19
BRANCH   1  21
ATOM     21  C   UNL     1      -0.728  10.583  22.975  0.00  0.00    +0.000 C 
BRANCH  21  22
ATOM     22  C   UNL     1      -0.883  12.083  22.638  0.00  0.00    +0.000 C 
BRANCH  22  23
ATOM     23  N   UNL     1      -2.235  12.666  22.549  0.00  0.00    +0.000 NA
BRANCH  23  24
ATOM     24  C   UNL     1      -2.924  12.448  21.249  0.00  0.00    +0.000 C 
ATOM     25  C   UNL     1      -3.401  13.689  20.534  0.00  0.00    +0.000 C 
ATOM     26  C   UNL     1      -2.338  12.838  19.893  0.00  0.00    +0.000 C 
BRANCH  26  27
ATOM     27  C   UNL     1      -2.722  12.082  18.633  0.00  0.00    +0.000 A 
ATOM     28  C   UNL     1      -1.786  11.790  17.617  0.00  0.00    +0.000 A 
ATOM     29  C   UNL     1      -2.162  11.143  16.429  0.00  0.00    +0.000 A 
ATOM     30  C   UNL     1      -3.488  10.763  16.242  0.00  0.00    +0.000 A 
ATOM     31 CL   UNL     1      -3.969  10.003  14.777  0.00  0.00    +0.000 Cl
ATOM     32  C   UNL     1      -4.428  11.005  17.239  0.00  0.00    +0.000 A 
ATOM     33  C   UNL     1      -4.042  11.650  18.421  0.00  0.00    +0.000 A 
ENDBRANCH  26  27
ENDBRANCH  23  24
BRANCH  23  34
ATOM     34  C   UNL     1      -3.116  12.360  23.691  0.00  0.00    +0.000 C 
BRANCH  34  36
ATOM     35  C   UNL     1      -5.473  12.907  24.559  0.00  0.00    +0.000 C 
ATOM     36  C   UNL     1      -4.627  12.372  23.410  0.00  0.00    +0.000 C 
ENDBRANCH  34  36
ENDBRANCH  23  34
ENDBRANCH  22  23
ENDBRANCH  21  22
ENDBRANCH   1  21
TORSDOF 10
ENDMDL
MODEL 3
REMARK VINA RESULT:      -7.3      3.020      3.756
REMARK  Name = 
REMARK  11 active torsions:
REMARK  status: ('A' for Active; 'I' for Inactive)
REMARK    1  A    between atoms: C_1  and  C_2
REMARK    2  A    between atoms: C_2  and  C_3
REMARK    3  A    between atoms: C_3  and  N_4
REMARK    4  A    between atoms: N_4  and  C_5
REMARK    5  A    between atoms: N_4  and  C_25
REMARK    6  A    between atoms: C_5  and  C_6
REMARK    7  A    between atoms: C_6  and  C_7
REMARK    8  A    between atoms: C_7  and  O_8
REMARK    9  A    between atoms: C_10  and  N_11
REMARK   10  A    between atoms: C_12  and  C_14
REMARK   11  A    between atoms: C_27  and  C_28
REMARK                            x       y       z     vdW  Elec       q    Type
REMARK                         _______ _______ _______ _____ _____    ______ ____
ROOT
ATOM      1  C   UNL     1      -0.037  10.043  21.939  0.00  0.00    +0.000 C 
ATOM      2  C   UNL     1       0.943  10.931  21.106  0.00  0.00    +0.000 C 
ATOM      3  C   UNL     1       0.506  10.159  19.842  0.00  0.00    +0.000 C 
ATOM      4  C   UNL     1      -0.796   9.796  20.598  0.00  0.00    +0.000 C 
ENDROOT
BRANCH   3   5
ATOM      5  N   UNL     1       1.350   8.987  19.521  0.00  0.00    +0.000 N 
ATOM      6  C   UNL     1       2.049   8.863  18.335  0.00  0.00    +0.000 C 
ATOM      7  O   UNL     1       2.080   9.730  17.475  0.00  0.00    +0.000 OA
ATOM      8  H   UNL     1       1.321   8.186  20.145  0.00  0.00    +0.000 HD
BRANCH   6   9
ATOM      9  C   UNL     1       2.730   7.556  18.120  0.00  0.00    +0.000 A 
ATOM     10  C   UNL     1       2.329   6.397  18.795  0.00  0.00    +0.000 A 
ATOM     11  C   UNL     1       2.924   5.170  18.489  0.00  0.00    +0.000 A 
ATOM     12  C   UNL     1       3.927   5.083  17.512  0.00  0.00    +0.000 A 
ATOM     13  C   UNL     1       4.494   3.848  17.161  0.00  0.00    +0.000 A 
ATOM     14  C   UNL     1       5.477   3.773  16.173  0.00  0.00    +0.000 A 
ATOM     15  C   UNL     1       5.920   4.931  15.539  0.00  0.00    +0.000 A 
ATOM     16  C   UNL     1       5.371   6.168  15.883  0.00  0.00    +0.000 A 
ATOM     17  C   UNL     1       4.365   6.260  16.856  0.00  0.00    +0.000 A 
ATOM     18  C   UNL     1       3.769   7.489  17.185  0.00  0.00    +0.000 A 
ENDBRANCH   6   9
ENDBRANCH   3   5
BRANCH   1  19
ATOM     19  O   UNL     1       0.571   8.848  22.493  0.00  0.00    +0.000 OA
ATOM     20  H   UNL     1       1.141   8.502  21.784  0.00  0.00    +0.000 HD
ENDBRANCH   1  19
BRANCH   1  21
ATOM     21  C   UNL     1      -0.818  10.790  23.042  0.00  0.00    +0.000 C 
BRANCH  21  22
ATOM     22  C   UNL     1      -1.504  12.046  22.459  0.00  0.00    +0.000 C 
BRANCH  22  23
ATOM     23  N   UNL     1      -1.270  13.356  23.097  0.00  0.00    +0.000 NA
BRANCH  23  24
ATOM     24  C   UNL     1      -0.740  14.408  22.188  0.00  0.00    +0.000 C 
ATOM     25  C   UNL     1      -0.253  15.674  22.850  0.00  0.00    +0.000 C 
ATOM     26  C   UNL     1       0.732  14.809  22.109  0.00  0.00    +0.000 C 
BRANCH  26  27
ATOM     27  C   UNL     1       1.317  15.371  20.824  0.00  0.00    +0.000 A 
ATOM     28  C   UNL     1       1.278  16.749  20.520  0.00  0.00    +0.000 A 
ATOM     29  C   UNL     1       1.767  17.252  19.305  0.00  0.00    +0.000 A 
ATOM     30  C   UNL     1       2.319  16.381  18.370  0.00  0.00    +0.000 A 
ATOM     31 CL   UNL     1       2.888  16.979  16.862  0.00  0.00    +0.000 Cl
ATOM     32  C   UNL     1       2.403  15.021  18.654  0.00  0.00    +0.000 A 
ATOM     33  C   UNL     1       1.913  14.529  19.870  0.00  0.00    +0.000 A 
ENDBRANCH  26  27
ENDBRANCH  23  24
BRANCH  23  34
ATOM     34  C   UNL     1      -2.391  13.855  23.913  0.00  0.00    +0.000 C 
BRANCH  34  36
ATOM     35  C   UNL     1      -4.391  12.467  24.739  0.00  0.00    +0.000 C 
ATOM     36  C   UNL     1      -3.777  13.269  23.598  0.00  0.00    +0.000 C 
ENDBRANCH  34  36
ENDBRANCH  23  34
ENDBRANCH  22  23
ENDBRANCH  21  22
ENDBRANCH   1  21
TORSDOF 10
ENDMDL
MODEL 4
REMARK VINA RESULT:      -7.2      4.106     10.198
REMARK  Name = 
REMARK  11 active torsions:
REMARK  status: ('A' for Active; 'I' for Inactive)
REMARK    1  A    between atoms: C_1  and  C_2
REMARK    2  A    between atoms: C_2  and  C_3
REMARK    3  A    between atoms: C_3  and  N_4
REMARK    4  A    between atoms: N_4  and  C_5
REMARK    5  A    between atoms: N_4  and  C_25
REMARK    6  A    between atoms: C_5  and  C_6
REMARK    7  A    between atoms: C_6  and  C_7
REMARK    8  A    between atoms: C_7  and  O_8
REMARK    9  A    between atoms: C_10  and  N_11
REMARK   10  A    between atoms: C_12  and  C_14
REMARK   11  A    between atoms: C_27  and  C_28
REMARK                            x       y       z     vdW  Elec       q    Type
REMARK                         _______ _______ _______ _____ _____    ______ ____
ROOT
ATOM      1  C   UNL     1       1.580   8.913  18.317  0.00  0.00    +0.000 C 
ATOM      2  C   UNL     1       1.424   9.371  19.803  0.00  0.00    +0.000 C 
ATOM      3  C   UNL     1       0.292  10.320  19.350  0.00  0.00    +0.000 C 
ATOM      4  C   UNL     1       0.113   9.404  18.114  0.00  0.00    +0.000 C 
ENDROOT
BRANCH   3   5
ATOM      5  N   UNL     1       0.742  11.688  19.014  0.00  0.00    +0.000 N 
ATOM      6  C   UNL     1       0.589  12.765  19.867  0.00  0.00    +0.000 C 
ATOM      7  O   UNL     1       0.124  12.673  20.993  0.00  0.00    +0.000 OA
ATOM      8  H   UNL     1       1.068  11.869  18.069  0.00  0.00    +0.000 HD
BRANCH   6   9
ATOM      9  C   UNL     1       0.967  14.092  19.307  0.00  0.00    +0.000 A 
ATOM     10  C   UNL     1       2.295  14.412  19.004  0.00  0.00    +0.000 A 
ATOM     11  C   UNL     1       2.596  15.628  18.385  0.00  0.00    +0.000 A 
ATOM     12  C   UNL     1       1.580  16.540  18.064  0.00  0.00    +0.000 A 
ATOM     13  C   UNL     1       1.866  17.741  17.395  0.00  0.00    +0.000 A 
ATOM     14  C   UNL     1       0.843  18.631  17.064  0.00  0.00    +0.000 A 
ATOM     15  C   UNL     1      -0.474  18.342  17.415  0.00  0.00    +0.000 A 
ATOM     16  C   UNL     1      -0.773  17.156  18.087  0.00  0.00    +0.000 A 
ATOM     17  C   UNL     1       0.238  16.239  18.407  0.00  0.00    +0.000 A 
ATOM     18  C   UNL     1      -0.047  15.020  19.044  0.00  0.00    +0.000 A 
ENDBRANCH   6   9
ENDBRANCH   3   5
BRANCH   1  19
ATOM     19  O   UNL     1       2.558   9.675  17.562  0.00  0.00    +0.000 OA
ATOM     20  H   UNL     1       3.151  10.060  18.232  0.00  0.00    +0.000 HD
ENDBRANCH   1  19
BRANCH   1  21
ATOM     21  C   UNL     1       1.832   7.403  18.122  0.00  0.00    +0.000 C 
BRANCH  21  22
ATOM     22  C   UNL     1       2.263   6.752  19.455  0.00  0.00    +0.000 C 
BRANCH  22  23
ATOM     23  N   UNL     1       2.723   5.350  19.457  0.00  0.00    +0.000 NA
BRANCH  23  24
ATOM     24  C   UNL     1       3.982   5.105  18.703  0.00  0.00    +0.000 C 
ATOM     25  C   UNL     1       4.622   3.752  18.901  0.00  0.00    +0.000 C 
ATOM     26  C   UNL     1       4.105   4.125  17.537  0.00  0.00    +0.000 C 
BRANCH  26  27
ATOM     27  C   UNL     1       5.135   4.344  16.442  0.00  0.00    +0.000 A 
ATOM     28  C   UNL     1       6.420   4.860  16.713  0.00  0.00    +0.000 A 
ATOM     29  C   UNL     1       7.345   5.115  15.688  0.00  0.00    +0.000 A 
ATOM     30  C   UNL     1       7.001   4.845  14.367  0.00  0.00    +0.000 A 
ATOM     31 CL   UNL     1       8.110   5.187  13.099  0.00  0.00    +0.000 Cl
ATOM     32  C   UNL     1       5.753   4.304  14.070  0.00  0.00    +0.000 A 
ATOM     33  C   UNL     1       4.839   4.051  15.100  0.00  0.00    +0.000 A 
ENDBRANCH  26  27
ENDBRANCH  23  24
BRANCH  23  34
ATOM     34  C   UNL     1       2.750   4.711  20.785  0.00  0.00    +0.000 C 
BRANCH  34  36
ATOM     35  C   UNL     1       0.856   3.265  19.821  0.00  0.00    +0.000 C 
ATOM     36  C   UNL     1       1.805   3.515  20.986  0.00  0.00    +0.000 C 
ENDBRANCH  34  36
ENDBRANCH  23  34
ENDBRANCH  22  23
ENDBRANCH  21  22
ENDBRANCH   1  21
TORSDOF 10
ENDMDL
MODEL 5
REMARK VINA RESULT:      -7.2      6.073      7.488
REMARK  Name = 
REMARK  11 active torsions:
REMARK  status: ('A' for Active; 'I' for Inactive)
REMARK    1  A    between atoms: C_1  and  C_2
REMARK    2  A    between atoms: C_2  and  C_3
REMARK    3  A    between atoms: C_3  and  N_4
REMARK    4  A    between atoms: N_4  and  C_5
REMARK    5  A    between atoms: N_4  and  C_25
REMARK    6  A    between atoms: C_5  and  C_6
REMARK    7  A    between atoms: C_6  and  C_7
REMARK    8  A    between atoms: C_7  and  O_8
REMARK    9  A    between atoms: C_10  and  N_11
REMARK   10  A    between atoms: C_12  and  C_14
REMARK   11  A    between atoms: C_27  and  C_28
REMARK                            x       y       z     vdW  Elec       q    Type
REMARK                         _______ _______ _______ _____ _____    ______ ____
ROOT
ATOM      1  C   UNL     1       2.689  14.278  18.601  0.00  0.00    +0.000 C 
ATOM      2  C   UNL     1       3.210  14.844  19.962  0.00  0.00    +0.000 C 
ATOM      3  C   UNL     1       4.079  15.844  19.169  0.00  0.00    +0.000 C 
ATOM      4  C   UNL     1       3.097  15.653  17.986  0.00  0.00    +0.000 C 
ENDROOT
BRANCH   3   5
ATOM      5  N   UNL     1       5.449  15.368  18.883  0.00  0.00    +0.000 N 
ATOM      6  C   UNL     1       6.515  16.221  18.664  0.00  0.00    +0.000 C 
ATOM      7  O   UNL     1       6.433  17.438  18.743  0.00  0.00    +0.000 OA
ATOM      8  H   UNL     1       5.591  14.375  18.723  0.00  0.00    +0.000 HD
BRANCH   6   9
ATOM      9  C   UNL     1       7.789  15.571  18.249  0.00  0.00    +0.000 A 
ATOM     10  C   UNL     1       8.918  16.321  17.901  0.00  0.00    +0.000 A 
ATOM     11  C   UNL     1      10.124  15.674  17.618  0.00  0.00    +0.000 A 
ATOM     12  C   UNL     1      10.218  14.276  17.671  0.00  0.00    +0.000 A 
ATOM     13  C   UNL     1      11.438  13.620  17.439  0.00  0.00    +0.000 A 
ATOM     14  C   UNL     1      11.522  12.229  17.515  0.00  0.00    +0.000 A 
ATOM     15  C   UNL     1      10.387  11.476  17.803  0.00  0.00    +0.000 A 
ATOM     16  C   UNL     1       9.165  12.113  18.030  0.00  0.00    +0.000 A 
ATOM     17  C   UNL     1       9.067  13.511  17.981  0.00  0.00    +0.000 A 
ATOM     18  C   UNL     1       7.857  14.173  18.249  0.00  0.00    +0.000 A 
ENDBRANCH   6   9
ENDBRANCH   3   5
BRANCH   1  19
ATOM     19  O   UNL     1       3.460  13.161  18.090  0.00  0.00    +0.000 OA
ATOM     20  H   UNL     1       3.218  13.095  17.150  0.00  0.00    +0.000 HD
ENDBRANCH   1  19
BRANCH   1  21
ATOM     21  C   UNL     1       1.185  13.932  18.570  0.00  0.00    +0.000 C 
BRANCH  21  22
ATOM     22  C   UNL     1       0.522  14.291  19.919  0.00  0.00    +0.000 C 
BRANCH  22  23
ATOM     23  N   UNL     1      -0.061  13.216  20.744  0.00  0.00    +0.000 NA
BRANCH  23  24
ATOM     24  C   UNL     1       0.673  11.923  20.695  0.00  0.00    +0.000 C 
ATOM     25  C   UNL     1       0.262  10.887  21.713  0.00  0.00    +0.000 C 
ATOM     26  C   UNL     1       0.049  10.601  20.250  0.00  0.00    +0.000 C 
BRANCH  26  27
ATOM     27  C   UNL     1       0.903   9.509  19.627  0.00  0.00    +0.000 A 
ATOM     28  C   UNL     1       1.331   8.380  20.358  0.00  0.00    +0.000 A 
ATOM     29  C   UNL     1       2.168   7.407  19.792  0.00  0.00    +0.000 A 
ATOM     30  C   UNL     1       2.584   7.540  18.471  0.00  0.00    +0.000 A 
ATOM     31 CL   UNL     1       3.640   6.374  17.776  0.00  0.00    +0.000 Cl
ATOM     32  C   UNL     1       2.152   8.624  17.712  0.00  0.00    +0.000 A 
ATOM     33  C   UNL     1       1.316   9.589  18.286  0.00  0.00    +0.000 A 
ENDBRANCH  26  27
ENDBRANCH  23  24
BRANCH  23  34
ATOM     34  C   UNL     1      -0.386  13.606  22.128  0.00  0.00    +0.000 C 
BRANCH  34  36
ATOM     35  C   UNL     1      -2.842  13.127  21.543  0.00  0.00    +0.000 C 
ATOM     36  C   UNL     1      -1.866  13.893  22.427  0.00  0.00    +0.000 C 
ENDBRANCH  34  36
ENDBRANCH  23  34
ENDBRANCH  22  23
ENDBRANCH  21  22
ENDBRANCH   1  21
TORSDOF 10
ENDMDL
MODEL 6
REMARK VINA RESULT:      -7.1      2.928      4.154
REMARK  Name = 
REMARK  11 active torsions:
REMARK  status: ('A' for Active; 'I' for Inactive)
REMARK    1  A    between atoms: C_1  and  C_2
REMARK    2  A    between atoms: C_2  and  C_3
REMARK    3  A    between atoms: C_3  and  N_4
REMARK    4  A    between atoms: N_4  and  C_5
REMARK    5  A    between atoms: N_4  and  C_25
REMARK    6  A    between atoms: C_5  and  C_6
REMARK    7  A    between atoms: C_6  and  C_7
REMARK    8  A    between atoms: C_7  and  O_8
REMARK    9  A    between atoms: C_10  and  N_11
REMARK   10  A    between atoms: C_12  and  C_14
REMARK   11  A    between atoms: C_27  and  C_28
REMARK                            x       y       z     vdW  Elec       q    Type
REMARK                         _______ _______ _______ _____ _____    ______ ____
ROOT
ATOM      1  C   UNL     1       0.044   9.757  21.857  0.00  0.00    +0.000 C 
ATOM      2  C   UNL     1       1.211  10.598  21.248  0.00  0.00    +0.000 C 
ATOM      3  C   UNL     1       0.805  10.077  19.852  0.00  0.00    +0.000 C 
ATOM      4  C   UNL     1      -0.603   9.806  20.438  0.00  0.00    +0.000 C 
ENDROOT
BRANCH   3   5
ATOM      5  N   UNL     1       1.516   8.851  19.428  0.00  0.00    +0.000 N 
ATOM      6  C   UNL     1       2.117   8.716  18.191  0.00  0.00    +0.000 C 
ATOM      7  O   UNL     1       2.165   9.612  17.362  0.00  0.00    +0.000 OA
ATOM      8  H   UNL     1       1.458   8.031  20.025  0.00  0.00    +0.000 HD
BRANCH   6   9
ATOM      9  C   UNL     1       2.661   7.364  17.881  0.00  0.00    +0.000 A 
ATOM     10  C   UNL     1       3.964   7.187  17.403  0.00  0.00    +0.000 A 
ATOM     11  C   UNL     1       4.471   5.898  17.222  0.00  0.00    +0.000 A 
ATOM     12  C   UNL     1       3.686   4.771  17.510  0.00  0.00    +0.000 A 
ATOM     13  C   UNL     1       4.205   3.473  17.381  0.00  0.00    +0.000 A 
ATOM     14  C   UNL     1       3.419   2.361  17.689  0.00  0.00    +0.000 A 
ATOM     15  C   UNL     1       2.102   2.531  18.110  0.00  0.00    +0.000 A 
ATOM     16  C   UNL     1       1.570   3.816  18.236  0.00  0.00    +0.000 A 
ATOM     17  C   UNL     1       2.352   4.946  17.953  0.00  0.00    +0.000 A 
ATOM     18  C   UNL     1       1.850   6.248  18.115  0.00  0.00    +0.000 A 
ENDBRANCH   6   9
ENDBRANCH   3   5
BRANCH   1  19
ATOM     19  O   UNL     1       0.431   8.422  22.274  0.00  0.00    +0.000 OA
ATOM     20  H   UNL     1       0.465   7.900  21.453  0.00  0.00    +0.000 HD
ENDBRANCH   1  19
BRANCH   1  21
ATOM     21  C   UNL     1      -0.739  10.451  22.993  0.00  0.00    +0.000 C 
BRANCH  21  22
ATOM     22  C   UNL     1      -1.701  11.512  22.413  0.00  0.00    +0.000 C 
BRANCH  22  23
ATOM     23  N   UNL     1      -1.451  12.940  22.692  0.00  0.00    +0.000 NA
BRANCH  23  24
ATOM     24  C   UNL     1      -0.638  13.643  21.665  0.00  0.00    +0.000 C 
ATOM     25  C   UNL     1      -0.560  15.146  21.794  0.00  0.00    +0.000 C 
ATOM     26  C   UNL     1       0.697  14.332  21.952  0.00  0.00    +0.000 C 
BRANCH  26  27
ATOM     27  C   UNL     1       1.751  14.468  20.867  0.00  0.00    +0.000 A 
ATOM     28  C   UNL     1       3.126  14.579  21.166  0.00  0.00    +0.000 A 
ATOM     29  C   UNL     1       4.089  14.763  20.161  0.00  0.00    +0.000 A 
ATOM     30  C   UNL     1       3.690  14.828  18.829  0.00  0.00    +0.000 A 
ATOM     31 CL   UNL     1       4.854  15.091  17.591  0.00  0.00    +0.000 Cl
ATOM     32  C   UNL     1       2.345  14.687  18.499  0.00  0.00    +0.000 A 
ATOM     33  C   UNL     1       1.394  14.502  19.509  0.00  0.00    +0.000 A 
ENDBRANCH  26  27
ENDBRANCH  23  24
BRANCH  23  34
ATOM     34  C   UNL     1      -2.648  13.715  23.065  0.00  0.00    +0.000 C 
BRANCH  34  36
ATOM     35  C   UNL     1      -4.312  12.504  24.604  0.00  0.00    +0.000 C 
ATOM     36  C   UNL     1      -3.962  12.926  23.183  0.00  0.00    +0.000 C 
ENDBRANCH  34  36
ENDBRANCH  23  34
ENDBRANCH  22  23
ENDBRANCH  21  22
ENDBRANCH   1  21
TORSDOF 10
ENDMDL
MODEL 7
REMARK VINA RESULT:      -7.1      4.540      8.553
REMARK  Name = 
REMARK  11 active torsions:
REMARK  status: ('A' for Active; 'I' for Inactive)
REMARK    1  A    between atoms: C_1  and  C_2
REMARK    2  A    between atoms: C_2  and  C_3
REMARK    3  A    between atoms: C_3  and  N_4
REMARK    4  A    between atoms: N_4  and  C_5
REMARK    5  A    between atoms: N_4  and  C_25
REMARK    6  A    between atoms: C_5  and  C_6
REMARK    7  A    between atoms: C_6  and  C_7
REMARK    8  A    between atoms: C_7  and  O_8
REMARK    9  A    between atoms: C_10  and  N_11
REMARK   10  A    between atoms: C_12  and  C_14
REMARK   11  A    between atoms: C_27  and  C_28
REMARK                            x       y       z     vdW  Elec       q    Type
REMARK                         _______ _______ _______ _____ _____    ______ ____
ROOT
ATOM      1  C   UNL     1       5.273   4.629  16.861  0.00  0.00    +0.000 C 
ATOM      2  C   UNL     1       6.671   4.289  16.251  0.00  0.00    +0.000 C 
ATOM      3  C   UNL     1       7.323   4.836  17.540  0.00  0.00    +0.000 C 
ATOM      4  C   UNL     1       5.975   4.567  18.254  0.00  0.00    +0.000 C 
ENDROOT
BRANCH   3   5
ATOM      5  N   UNL     1       7.685   6.269  17.479  0.00  0.00    +0.000 N 
ATOM      6  C   UNL     1       8.175   6.971  18.564  0.00  0.00    +0.000 C 
ATOM      7  O   UNL     1       8.406   6.460  19.650  0.00  0.00    +0.000 OA
ATOM      8  H   UNL     1       7.452   6.789  16.638  0.00  0.00    +0.000 HD
BRANCH   6   9
ATOM      9  C   UNL     1       8.349   8.436  18.362  0.00  0.00    +0.000 A 
ATOM     10  C   UNL     1       7.641   9.132  17.375  0.00  0.00    +0.000 A 
ATOM     11  C   UNL     1       7.754  10.522  17.285  0.00  0.00    +0.000 A 
ATOM     12  C   UNL     1       8.576  11.234  18.171  0.00  0.00    +0.000 A 
ATOM     13  C   UNL     1       8.656  12.635  18.122  0.00  0.00    +0.000 A 
ATOM     14  C   UNL     1       9.463  13.332  19.022  0.00  0.00    +0.000 A 
ATOM     15  C   UNL     1      10.214  12.639  19.969  0.00  0.00    +0.000 A 
ATOM     16  C   UNL     1      10.151  11.245  20.025  0.00  0.00    +0.000 A 
ATOM     17  C   UNL     1       9.327  10.529  19.144  0.00  0.00    +0.000 A 
ATOM     18  C   UNL     1       9.216   9.130  19.213  0.00  0.00    +0.000 A 
ENDBRANCH   6   9
ENDBRANCH   3   5
BRANCH   1  19
ATOM     19  O   UNL     1       4.781   5.950  16.516  0.00  0.00    +0.000 OA
ATOM     20  H   UNL     1       5.492   6.561  16.777  0.00  0.00    +0.000 HD
ENDBRANCH   1  19
BRANCH   1  21
ATOM     21  C   UNL     1       4.173   3.578  16.600  0.00  0.00    +0.000 C 
BRANCH  21  22
ATOM     22  C   UNL     1       2.818   4.067  17.159  0.00  0.00    +0.000 C 
BRANCH  22  23
ATOM     23  N   UNL     1       2.563   3.978  18.610  0.00  0.00    +0.000 NA
BRANCH  23  24
ATOM     24  C   UNL     1       2.052   5.229  19.231  0.00  0.00    +0.000 C 
ATOM     25  C   UNL     1       2.792   5.714  20.454  0.00  0.00    +0.000 C 
ATOM     26  C   UNL     1       2.799   6.563  19.211  0.00  0.00    +0.000 C 
BRANCH  26  27
ATOM     27  C   UNL     1       2.042   7.879  19.267  0.00  0.00    +0.000 A 
ATOM     28  C   UNL     1       1.478   8.371  20.464  0.00  0.00    +0.000 A 
ATOM     29  C   UNL     1       0.730   9.558  20.495  0.00  0.00    +0.000 A 
ATOM     30  C   UNL     1       0.543  10.286  19.323  0.00  0.00    +0.000 A 
ATOM     31 CL   UNL     1      -0.402  11.721  19.340  0.00  0.00    +0.000 Cl
ATOM     32  C   UNL     1       1.115   9.845  18.133  0.00  0.00    +0.000 A 
ATOM     33  C   UNL     1       1.861   8.660  18.113  0.00  0.00    +0.000 A 
ENDBRANCH  26  27
ENDBRANCH  23  24
BRANCH  23  34
ATOM     34  C   UNL     1       1.779   2.802  19.028  0.00  0.00    +0.000 C 
BRANCH  34  36
ATOM     35  C   UNL     1       1.662   2.476  21.575  0.00  0.00    +0.000 C 
ATOM     36  C   UNL     1       0.953   2.955  20.315  0.00  0.00    +0.000 C 
ENDBRANCH  34  36
ENDBRANCH  23  34
ENDBRANCH  22  23
ENDBRANCH  21  22
ENDBRANCH   1  21
TORSDOF 10
ENDMDL
MODEL 8
REMARK VINA RESULT:      -7.1      2.421      3.611
REMARK  Name = 
REMARK  11 active torsions:
REMARK  status: ('A' for Active; 'I' for Inactive)
REMARK    1  A    between atoms: C_1  and  C_2
REMARK    2  A    between atoms: C_2  and  C_3
REMARK    3  A    between atoms: C_3  and  N_4
REMARK    4  A    between atoms: N_4  and  C_5
REMARK    5  A    between atoms: N_4  and  C_25
REMARK    6  A    between atoms: C_5  and  C_6
REMARK    7  A    between atoms: C_6  and  C_7
REMARK    8  A    between atoms: C_7  and  O_8
REMARK    9  A    between atoms: C_10  and  N_11
REMARK   10  A    between atoms: C_12  and  C_14
REMARK   11  A    between atoms: C_27  and  C_28
REMARK                            x       y       z     vdW  Elec       q    Type
REMARK                         _______ _______ _______ _____ _____    ______ ____
ROOT
ATOM      1  C   UNL     1       0.633   9.657  21.103  0.00  0.00    +0.000 C 
ATOM      2  C   UNL     1      -0.226   8.355  21.196  0.00  0.00    +0.000 C 
ATOM      3  C   UNL     1       1.052   7.587  21.597  0.00  0.00    +0.000 C 
ATOM      4  C   UNL     1       1.639   8.944  22.060  0.00  0.00    +0.000 C 
ENDROOT
BRANCH   3   5
ATOM      5  N   UNL     1       1.783   6.982  20.462  0.00  0.00    +0.000 N 
ATOM      6  C   UNL     1       2.051   5.630  20.372  0.00  0.00    +0.000 C 
ATOM      7  O   UNL     1       1.661   4.808  21.187  0.00  0.00    +0.000 OA
ATOM      8  H   UNL     1       2.209   7.602  19.779  0.00  0.00    +0.000 HD
BRANCH   6   9
ATOM      9  C   UNL     1       2.920   5.218  19.235  0.00  0.00    +0.000 A 
ATOM     10  C   UNL     1       2.475   4.326  18.253  0.00  0.00    +0.000 A 
ATOM     11  C   UNL     1       3.282   4.045  17.148  0.00  0.00    +0.000 A 
ATOM     12  C   UNL     1       4.543   4.643  17.010  0.00  0.00    +0.000 A 
ATOM     13  C   UNL     1       5.339   4.408  15.877  0.00  0.00    +0.000 A 
ATOM     14  C   UNL     1       6.584   5.025  15.743  0.00  0.00    +0.000 A 
ATOM     15  C   UNL     1       7.056   5.869  16.746  0.00  0.00    +0.000 A 
ATOM     16  C   UNL     1       6.279   6.107  17.881  0.00  0.00    +0.000 A 
ATOM     17  C   UNL     1       5.016   5.514  18.022  0.00  0.00    +0.000 A 
ATOM     18  C   UNL     1       4.200   5.775  19.136  0.00  0.00    +0.000 A 
ENDBRANCH   6   9
ENDBRANCH   3   5
BRANCH   1  19
ATOM     19  O   UNL     1       1.171   9.919  19.782  0.00  0.00    +0.000 OA
ATOM     20  H   UNL     1       0.466   9.657  19.164  0.00  0.00    +0.000 HD
ENDBRANCH   1  19
BRANCH   1  21
ATOM     21  C   UNL     1      -0.050  10.930  21.650  0.00  0.00    +0.000 C 
BRANCH  21  22
ATOM     22  C   UNL     1       0.817  12.175  21.353  0.00  0.00    +0.000 C 
BRANCH  22  23
ATOM     23  N   UNL     1       0.818  12.743  19.992  0.00  0.00    +0.000 NA
BRANCH  23  24
ATOM     24  C   UNL     1      -0.530  12.936  19.394  0.00  0.00    +0.000 C 
ATOM     25  C   UNL     1      -0.565  13.225  17.913  0.00  0.00    +0.000 C 
ATOM     26  C   UNL     1      -1.186  11.953  18.425  0.00  0.00    +0.000 C 
BRANCH  26  27
ATOM     27  C   UNL     1      -2.698  11.837  18.339  0.00  0.00    +0.000 A 
ATOM     28  C   UNL     1      -3.351  11.369  17.178  0.00  0.00    +0.000 A 
ATOM     29  C   UNL     1      -4.751  11.321  17.086  0.00  0.00    +0.000 A 
ATOM     30  C   UNL     1      -5.527  11.730  18.166  0.00  0.00    +0.000 A 
ATOM     31 CL   UNL     1      -7.242  11.711  18.054  0.00  0.00    +0.000 Cl
ATOM     32  C   UNL     1      -4.913  12.164  19.338  0.00  0.00    +0.000 A 
ATOM     33  C   UNL     1      -3.516  12.207  19.420  0.00  0.00    +0.000 A 
ENDBRANCH  26  27
ENDBRANCH  23  24
BRANCH  23  34
ATOM     34  C   UNL     1       1.665  13.938  19.822  0.00  0.00    +0.000 C 
BRANCH  34  36
ATOM     35  C   UNL     1       3.117  14.922  17.943  0.00  0.00    +0.000 C 
ATOM     36  C   UNL     1       2.902  13.776  18.924  0.00  0.00    +0.000 C 
ENDBRANCH  34  36
ENDBRANCH  23  34
ENDBRANCH  22  23
ENDBRANCH  21  22
ENDBRANCH   1  21
TORSDOF 10
ENDMDL
MODEL 9
REMARK VINA RESULT:      -7.1      2.993      5.365
REMARK  Name = 
REMARK  11 active torsions:
REMARK  status: ('A' for Active; 'I' for Inactive)
REMARK    1  A    between atoms: C_1  and  C_2
REMARK    2  A    between atoms: C_2  and  C_3
REMARK    3  A    between atoms: C_3  and  N_4
REMARK    4  A    between atoms: N_4  and  C_5
REMARK    5  A    between atoms: N_4  and  C_25
REMARK    6  A    between atoms: C_5  and  C_6
REMARK    7  A    between atoms: C_6  and  C_7
REMARK    8  A    between atoms: C_7  and  O_8
REMARK    9  A    between atoms: C_10  and  N_11
REMARK   10  A    between atoms: C_12  and  C_14
REMARK   11  A    between atoms: C_27  and  C_28
REMARK                            x       y       z     vdW  Elec       q    Type
REMARK                         _______ _______ _______ _____ _____    ______ ____
ROOT
ATOM      1  C   UNL     1      -0.165  10.780  19.727  0.00  0.00    +0.000 C 
ATOM      2  C   UNL     1       1.267  11.111  19.196  0.00  0.00    +0.000 C 
ATOM      3  C   UNL     1       1.079  10.017  18.123  0.00  0.00    +0.000 C 
ATOM      4  C   UNL     1      -0.448  10.192  18.310  0.00  0.00    +0.000 C 
ENDROOT
BRANCH   3   5
ATOM      5  N   UNL     1       1.574   8.681  18.521  0.00  0.00    +0.000 N 
ATOM      6  C   UNL     1       2.627   8.047  17.889  0.00  0.00    +0.000 C 
ATOM      7  O   UNL     1       3.277   8.553  16.987  0.00  0.00    +0.000 OA
ATOM      8  H   UNL     1       1.043   8.156  19.210  0.00  0.00    +0.000 HD
BRANCH   6   9
ATOM      9  C   UNL     1       2.896   6.648  18.327  0.00  0.00    +0.000 A 
ATOM     10  C   UNL     1       3.830   5.839  17.671  0.00  0.00    +0.000 A 
ATOM     11  C   UNL     1       4.129   4.570  18.174  0.00  0.00    +0.000 A 
ATOM     12  C   UNL     1       3.499   4.091  19.332  0.00  0.00    +0.000 A 
ATOM     13  C   UNL     1       3.831   2.840  19.876  0.00  0.00    +0.000 A 
ATOM     14  C   UNL     1       3.211   2.384  21.040  0.00  0.00    +0.000 A 
ATOM     15  C   UNL     1       2.239   3.162  21.664  0.00  0.00    +0.000 A 
ATOM     16  C   UNL     1       1.893   4.406  21.132  0.00  0.00    +0.000 A 
ATOM     17  C   UNL     1       2.522   4.891  19.976  0.00  0.00    +0.000 A 
ATOM     18  C   UNL     1       2.220   6.158  19.450  0.00  0.00    +0.000 A 
ENDBRANCH   6   9
ENDBRANCH   3   5
BRANCH   1  19
ATOM     19  O   UNL     1      -0.190   9.787  20.785  0.00  0.00    +0.000 OA
ATOM     20  H   UNL     1      -0.111  10.295  21.611  0.00  0.00    +0.000 HD
ENDBRANCH   1  19
BRANCH   1  21
ATOM     21  C   UNL     1      -1.007  12.006  20.143  0.00  0.00    +0.000 C 
BRANCH  21  22
ATOM     22  C   UNL     1      -2.120  12.272  19.104  0.00  0.00    +0.000 C 
BRANCH  22  23
ATOM     23  N   UNL     1      -3.516  11.931  19.440  0.00  0.00    +0.000 NA
BRANCH  23  24
ATOM     24  C   UNL     1      -4.232  12.956  20.245  0.00  0.00    +0.000 C 
ATOM     25  C   UNL     1      -5.599  12.565  20.754  0.00  0.00    +0.000 C 
ATOM     26  C   UNL     1      -4.498  12.835  21.745  0.00  0.00    +0.000 C 
BRANCH  26  27
ATOM     27  C   UNL     1      -4.637  14.075  22.613  0.00  0.00    +0.000 A 
ATOM     28  C   UNL     1      -3.516  14.813  23.052  0.00  0.00    +0.000 A 
ATOM     29  C   UNL     1      -3.649  15.922  23.902  0.00  0.00    +0.000 A 
ATOM     30  C   UNL     1      -4.915  16.323  24.319  0.00  0.00    +0.000 A 
ATOM     31 CL   UNL     1      -5.090  17.657  25.389  0.00  0.00    +0.000 Cl
ATOM     32  C   UNL     1      -6.042  15.637  23.875  0.00  0.00    +0.000 A 
ATOM     33  C   UNL     1      -5.899  14.533  23.027  0.00  0.00    +0.000 A 
ENDBRANCH  26  27
ENDBRANCH  23  24
BRANCH  23  34
ATOM     34  C   UNL     1      -4.328  11.464  18.302  0.00  0.00    +0.000 C 
BRANCH  34  36
ATOM     35  C   UNL     1      -3.477  10.218  16.222  0.00  0.00    +0.000 C 
ATOM     36  C   UNL     1      -3.677  11.560  16.914  0.00  0.00    +0.000 C 
ENDBRANCH  34  36
ENDBRANCH  23  34
ENDBRANCH  22  23
ENDBRANCH  21  22
ENDBRANCH   1  21
TORSDOF 10
ENDMDL
