MODEL 1
REMARK VINA RESULT:      -6.5      0.000      0.000
REMARK  Name = 
REMARK  16 active torsions:
REMARK  status: ('A' for Active; 'I' for Inactive)
REMARK    1  A    between atoms: C_1  and  C_2
REMARK    2  A    between atoms: C_2  and  C_3
REMARK    3  A    between atoms: C_3  and  C_4
REMARK    4  A    between atoms: C_4  and  C_5
REMARK    5  A    between atoms: C_5  and  C_6
REMARK    6  A    between atoms: C_6  and  C_7
REMARK    7  A    between atoms: C_7  and  C_8
REMARK    8  A    between atoms: C_8  and  C_9
REMARK    9  A    between atoms: C_9  and  C_10
REMARK   10  A    between atoms: C_10  and  C_11
REMARK   11  A    between atoms: C_11  and  C_12
REMARK   12  A    between atoms: C_12  and  C_13
REMARK   13  A    between atoms: C_16  and  C_17
REMARK   14  A    between atoms: C_17  and  C_18
REMARK   15  A    between atoms: C_18  and  N_19
REMARK   16  A    between atoms: C_22  and  N_23
REMARK                            x       y       z     vdW  Elec       q    Type
REMARK                         _______ _______ _______ _____ _____    ______ ____
ROOT
ATOM      1  C   UNL     1       5.784   5.163  17.746  0.00  0.00    +0.000 A 
ATOM      2  C   UNL     1       6.938   5.209  18.534  0.00  0.00    +0.000 A 
ATOM      3  C   UNL     1       7.766   6.329  18.494  0.00  0.00    +0.000 A 
ATOM      4  C   UNL     1       7.455   7.413  17.663  0.00  0.00    +0.000 A 
ATOM      5  C   UNL     1       6.307   7.352  16.860  0.00  0.00    +0.000 A 
ATOM      6  C   UNL     1       5.479   6.234  16.898  0.00  0.00    +0.000 A 
ENDROOT
BRANCH   1   7
ATOM      7  C   UNL     1       4.787   4.053  17.927  0.00  0.00    +0.000 C 
BRANCH   7   8
ATOM      8  C   UNL     1       4.890   3.556  19.367  0.00  0.00    +0.000 C 
BRANCH   8   9
ATOM      9  C   UNL     1       3.994   2.357  19.604  0.00  0.00    +0.000 C 
BRANCH   9  10
ATOM     10  C   UNL     1       2.890   2.324  18.556  0.00  0.00    +0.000 C 
BRANCH  10  11
ATOM     11  C   UNL     1       1.555   2.035  19.217  0.00  0.00    +0.000 C 
BRANCH  11  12
ATOM     12  C   UNL     1       1.218   3.110  20.237  0.00  0.00    +0.000 C 
BRANCH  12  13
ATOM     13  C   UNL     1       1.295   4.483  19.587  0.00  0.00    +0.000 C 
BRANCH  13  14
ATOM     14  C   UNL     1       1.845   5.509  20.567  0.00  0.00    +0.000 C 
BRANCH  14  15
ATOM     15  C   UNL     1       2.500   6.662  19.818  0.00  0.00    +0.000 C 
BRANCH  15  16
ATOM     16  C   UNL     1       2.195   6.573  18.327  0.00  0.00    +0.000 C 
BRANCH  16  18
ATOM     17  C   UNL     1       1.797   9.048  18.370  0.00  0.00    +0.000 C 
ATOM     18  C   UNL     1       2.470   7.903  17.634  0.00  0.00    +0.000 C 
ENDBRANCH  16  18
ENDBRANCH  15  16
ENDBRANCH  14  15
ENDBRANCH  13  14
ENDBRANCH  12  13
ENDBRANCH  11  12
ENDBRANCH  10  11
ENDBRANCH   9  10
ENDBRANCH   8   9
ENDBRANCH   7   8
ENDBRANCH   1   7
BRANCH   4  19
ATOM     19  C   UNL     1       8.309   8.653  17.669  0.00  0.00    +0.000 C 
BRANCH  19  20
ATOM     20  C   UNL     1       8.512   9.208  19.085  0.00  0.00    +0.000 C 
BRANCH  20  21
ATOM     21  N   UNL     1       9.609  10.190  19.193  0.00  0.00    +0.000 NA
ATOM     22  C   UNL     1       9.508  10.970  20.432  0.00  0.00    +0.000 C 
ATOM     23  C   UNL     1      10.632  11.988  20.526  0.00  0.00    +0.000 C 
ATOM     24  C   UNL     1      10.615  12.905  19.311  0.00  0.00    +0.000 C 
ATOM     25  C   UNL     1      10.695  12.089  18.027  0.00  0.00    +0.000 C 
ATOM     26  C   UNL     1       9.579  11.059  18.003  0.00  0.00    +0.000 C 
BRANCH  24  27
ATOM     27  N   UNL     1      11.750  13.794  19.368  0.00  0.00    +0.000 NA
ATOM     28  H   UNL     1      11.585  14.522  20.065  0.00  0.00    +0.000 HD
ATOM     29  H   UNL     1      11.850  14.272  18.477  0.00  0.00    +0.000 HD
ENDBRANCH  24  27
ENDBRANCH  20  21
ENDBRANCH  19  20
ENDBRANCH   4  19
TORSDOF 15
ENDMDL
MODEL 2
REMARK VINA RESULT:      -6.4      1.019      1.240
REMARK  Name = 
REMARK  16 active torsions:
REMARK  status: ('A' for Active; 'I' for Inactive)
REMARK    1  A    between atoms: C_1  and  C_2
REMARK    2  A    between atoms: C_2  and  C_3
REMARK    3  A    between atoms: C_3  and  C_4
REMARK    4  A    between atoms: C_4  and  C_5
REMARK    5  A    between atoms: C_5  and  C_6
REMARK    6  A    between atoms: C_6  and  C_7
REMARK    7  A    between atoms: C_7  and  C_8
REMARK    8  A    between atoms: C_8  and  C_9
REMARK    9  A    between atoms: C_9  and  C_10
REMARK   10  A    between atoms: C_10  and  C_11
REMARK   11  A    between atoms: C_11  and  C_12
REMARK   12  A    between atoms: C_12  and  C_13
REMARK   13  A    between atoms: C_16  and  C_17
REMARK   14  A    between atoms: C_17  and  C_18
REMARK   15  A    between atoms: C_18  and  N_19
REMARK   16  A    between atoms: C_22  and  N_23
REMARK                            x       y       z     vdW  Elec       q    Type
REMARK                         _______ _______ _______ _____ _____    ______ ____
ROOT
ATOM      1  C   UNL     1       5.965   4.842  17.377  0.00  0.00    +0.000 A 
ATOM      2  C   UNL     1       6.465   4.852  18.684  0.00  0.00    +0.000 A 
ATOM      3  C   UNL     1       7.330   5.865  19.092  0.00  0.00    +0.000 A 
ATOM      4  C   UNL     1       7.713   6.875  18.200  0.00  0.00    +0.000 A 
ATOM      5  C   UNL     1       7.226   6.847  16.886  0.00  0.00    +0.000 A 
ATOM      6  C   UNL     1       6.361   5.837  16.476  0.00  0.00    +0.000 A 
ENDROOT
BRANCH   1   7
ATOM      7  C   UNL     1       4.884   3.875  16.988  0.00  0.00    +0.000 C 
BRANCH   7   8
ATOM      8  C   UNL     1       4.504   3.067  18.226  0.00  0.00    +0.000 C 
BRANCH   8   9
ATOM      9  C   UNL     1       3.294   2.192  17.966  0.00  0.00    +0.000 C 
BRANCH   9  10
ATOM     10  C   UNL     1       2.245   2.980  17.193  0.00  0.00    +0.000 C 
BRANCH  10  11
ATOM     11  C   UNL     1       1.360   3.749  18.156  0.00  0.00    +0.000 C 
BRANCH  11  12
ATOM     12  C   UNL     1       1.017   2.897  19.367  0.00  0.00    +0.000 C 
BRANCH  12  13
ATOM     13  C   UNL     1       1.113   3.735  20.634  0.00  0.00    +0.000 C 
BRANCH  13  14
ATOM     14  C   UNL     1       2.177   4.812  20.484  0.00  0.00    +0.000 C 
BRANCH  14  15
ATOM     15  C   UNL     1       1.551   6.196  20.602  0.00  0.00    +0.000 C 
BRANCH  15  16
ATOM     16  C   UNL     1       2.415   7.235  19.896  0.00  0.00    +0.000 C 
BRANCH  16  18
ATOM     17  C   UNL     1       3.455   7.485  17.628  0.00  0.00    +0.000 C 
ATOM     18  C   UNL     1       2.170   7.215  18.391  0.00  0.00    +0.000 C 
ENDBRANCH  16  18
ENDBRANCH  15  16
ENDBRANCH  14  15
ENDBRANCH  13  14
ENDBRANCH  12  13
ENDBRANCH  11  12
ENDBRANCH  10  11
ENDBRANCH   9  10
ENDBRANCH   8   9
ENDBRANCH   7   8
ENDBRANCH   1   7
BRANCH   4  19
ATOM     19  C   UNL     1       8.593   8.007  18.657  0.00  0.00    +0.000 C 
BRANCH  19  20
ATOM     20  C   UNL     1       8.207   9.339  18.001  0.00  0.00    +0.000 C 
BRANCH  20  21
ATOM     21  N   UNL     1       9.169  10.432  18.248  0.00  0.00    +0.000 NA
ATOM     22  C   UNL     1       9.527  10.518  19.669  0.00  0.00    +0.000 C 
ATOM     23  C   UNL     1      10.504  11.655  19.915  0.00  0.00    +0.000 C 
ATOM     24  C   UNL     1       9.914  12.971  19.429  0.00  0.00    +0.000 C 
ATOM     25  C   UNL     1       9.521  12.869  17.960  0.00  0.00    +0.000 C 
ATOM     26  C   UNL     1       8.581  11.693  17.762  0.00  0.00    +0.000 C 
BRANCH  24  27
ATOM     27  N   UNL     1      10.896  14.018  19.575  0.00  0.00    +0.000 NA
ATOM     28  H   UNL     1      11.825  13.655  19.356  0.00  0.00    +0.000 HD
ATOM     29  H   UNL     1      10.930  14.317  20.547  0.00  0.00    +0.000 HD
ENDBRANCH  24  27
ENDBRANCH  20  21
ENDBRANCH  19  20
ENDBRANCH   4  19
TORSDOF 15
ENDMDL
MODEL 3
REMARK VINA RESULT:      -6.4      1.080      1.615
REMARK  Name = 
REMARK  16 active torsions:
REMARK  status: ('A' for Active; 'I' for Inactive)
REMARK    1  A    between atoms: C_1  and  C_2
REMARK    2  A    between atoms: C_2  and  C_3
REMARK    3  A    between atoms: C_3  and  C_4
REMARK    4  A    between atoms: C_4  and  C_5
REMARK    5  A    between atoms: C_5  and  C_6
REMARK    6  A    between atoms: C_6  and  C_7
REMARK    7  A    between atoms: C_7  and  C_8
REMARK    8  A    between atoms: C_8  and  C_9
REMARK    9  A    between atoms: C_9  and  C_10
REMARK   10  A    between atoms: C_10  and  C_11
REMARK   11  A    between atoms: C_11  and  C_12
REMARK   12  A    between atoms: C_12  and  C_13
REMARK   13  A    between atoms: C_16  and  C_17
REMARK   14  A    between atoms: C_17  and  C_18
REMARK   15  A    between atoms: C_18  and  N_19
REMARK   16  A    between atoms: C_22  and  N_23
REMARK                            x       y       z     vdW  Elec       q    Type
REMARK                         _______ _______ _______ _____ _____    ______ ____
ROOT
ATOM      1  C   UNL     1       5.785   4.977  16.998  0.00  0.00    +0.000 A 
ATOM      2  C   UNL     1       6.888   4.639  17.788  0.00  0.00    +0.000 A 
ATOM      3  C   UNL     1       7.748   5.634  18.248  0.00  0.00    +0.000 A 
ATOM      4  C   UNL     1       7.521   6.977  17.921  0.00  0.00    +0.000 A 
ATOM      5  C   UNL     1       6.425   7.307  17.111  0.00  0.00    +0.000 A 
ATOM      6  C   UNL     1       5.565   6.315  16.650  0.00  0.00    +0.000 A 
ENDROOT
BRANCH   1   7
ATOM      7  C   UNL     1       4.748   3.943  16.663  0.00  0.00    +0.000 C 
BRANCH   7   8
ATOM      8  C   UNL     1       4.189   3.393  17.973  0.00  0.00    +0.000 C 
BRANCH   8   9
ATOM      9  C   UNL     1       3.342   2.158  17.737  0.00  0.00    +0.000 C 
BRANCH   9  10
ATOM     10  C   UNL     1       2.580   1.805  19.007  0.00  0.00    +0.000 C 
BRANCH  10  11
ATOM     11  C   UNL     1       1.098   2.064  18.812  0.00  0.00    +0.000 C 
BRANCH  11  12
ATOM     12  C   UNL     1       0.595   3.090  19.814  0.00  0.00    +0.000 C 
BRANCH  12  13
ATOM     13  C   UNL     1       1.405   2.998  21.099  0.00  0.00    +0.000 C 
BRANCH  13  14
ATOM     14  C   UNL     1       2.187   4.282  21.332  0.00  0.00    +0.000 C 
BRANCH  14  15
ATOM     15  C   UNL     1       1.647   5.400  20.449  0.00  0.00    +0.000 C 
BRANCH  15  16
ATOM     16  C   UNL     1       2.731   6.436  20.176  0.00  0.00    +0.000 C 
BRANCH  16  18
ATOM     17  C   UNL     1       1.822   5.930  17.895  0.00  0.00    +0.000 C 
ATOM     18  C   UNL     1       2.784   6.791  18.694  0.00  0.00    +0.000 C 
ENDBRANCH  16  18
ENDBRANCH  15  16
ENDBRANCH  14  15
ENDBRANCH  13  14
ENDBRANCH  12  13
ENDBRANCH  11  12
ENDBRANCH  10  11
ENDBRANCH   9  10
ENDBRANCH   8   9
ENDBRANCH   7   8
ENDBRANCH   1   7
BRANCH   4  19
ATOM     19  C   UNL     1       8.408   8.061  18.472  0.00  0.00    +0.000 C 
BRANCH  19  20
ATOM     20  C   UNL     1       8.204   9.398  17.749  0.00  0.00    +0.000 C 
BRANCH  20  21
ATOM     21  N   UNL     1       8.557  10.580  18.560  0.00  0.00    +0.000 NA
ATOM     22  C   UNL     1       9.281  11.578  17.765  0.00  0.00    +0.000 C 
ATOM     23  C   UNL     1       9.653  12.782  18.613  0.00  0.00    +0.000 C 
ATOM     24  C   UNL     1      10.484  12.346  19.812  0.00  0.00    +0.000 C 
ATOM     25  C   UNL     1       9.738  11.292  20.620  0.00  0.00    +0.000 C 
ATOM     26  C   UNL     1       9.351  10.133  19.719  0.00  0.00    +0.000 C 
BRANCH  24  27
ATOM     27  N   UNL     1      10.737  13.487  20.657  0.00  0.00    +0.000 NA
ATOM     28  H   UNL     1      11.744  13.622  20.764  0.00  0.00    +0.000 HD
ATOM     29  H   UNL     1      10.375  13.304  21.590  0.00  0.00    +0.000 HD
ENDBRANCH  24  27
ENDBRANCH  20  21
ENDBRANCH  19  20
ENDBRANCH   4  19
TORSDOF 15
ENDMDL
MODEL 4
REMARK VINA RESULT:      -6.2      5.103      8.578
REMARK  Name = 
REMARK  16 active torsions:
REMARK  status: ('A' for Active; 'I' for Inactive)
REMARK    1  A    between atoms: C_1  and  C_2
REMARK    2  A    between atoms: C_2  and  C_3
REMARK    3  A    between atoms: C_3  and  C_4
REMARK    4  A    between atoms: C_4  and  C_5
REMARK    5  A    between atoms: C_5  and  C_6
REMARK    6  A    between atoms: C_6  and  C_7
REMARK    7  A    between atoms: C_7  and  C_8
REMARK    8  A    between atoms: C_8  and  C_9
REMARK    9  A    between atoms: C_9  and  C_10
REMARK   10  A    between atoms: C_10  and  C_11
REMARK   11  A    between atoms: C_11  and  C_12
REMARK   12  A    between atoms: C_12  and  C_13
REMARK   13  A    between atoms: C_16  and  C_17
REMARK   14  A    between atoms: C_17  and  C_18
REMARK   15  A    between atoms: C_18  and  N_19
REMARK   16  A    between atoms: C_22  and  N_23
REMARK                            x       y       z     vdW  Elec       q    Type
REMARK                         _______ _______ _______ _____ _____    ______ ____
ROOT
ATOM      1  C   UNL     1       2.029   8.107  18.643  0.00  0.00    +0.000 A 
ATOM      2  C   UNL     1       1.934   9.248  17.838  0.00  0.00    +0.000 A 
ATOM      3  C   UNL     1       1.460  10.443  18.375  0.00  0.00    +0.000 A 
ATOM      4  C   UNL     1       1.069  10.512  19.718  0.00  0.00    +0.000 A 
ATOM      5  C   UNL     1       1.146   9.361  20.514  0.00  0.00    +0.000 A 
ATOM      6  C   UNL     1       1.620   8.166  19.980  0.00  0.00    +0.000 A 
ENDROOT
BRANCH   1   7
ATOM      7  C   UNL     1       2.719   6.875  18.131  0.00  0.00    +0.000 C 
BRANCH   7   8
ATOM      8  C   UNL     1       3.892   7.318  17.259  0.00  0.00    +0.000 C 
BRANCH   8   9
ATOM      9  C   UNL     1       5.116   6.459  17.502  0.00  0.00    +0.000 C 
BRANCH   9  10
ATOM     10  C   UNL     1       5.414   5.625  16.263  0.00  0.00    +0.000 C 
BRANCH  10  11
ATOM     11  C   UNL     1       4.733   4.273  16.372  0.00  0.00    +0.000 C 
BRANCH  11  12
ATOM     12  C   UNL     1       4.783   3.760  17.802  0.00  0.00    +0.000 C 
BRANCH  12  13
ATOM     13  C   UNL     1       3.663   2.755  18.031  0.00  0.00    +0.000 C 
BRANCH  13  14
ATOM     14  C   UNL     1       2.392   3.200  17.323  0.00  0.00    +0.000 C 
BRANCH  14  15
ATOM     15  C   UNL     1       1.319   3.572  18.339  0.00  0.00    +0.000 C 
BRANCH  15  16
ATOM     16  C   UNL     1       1.308   2.576  19.493  0.00  0.00    +0.000 C 
BRANCH  16  18
ATOM     17  C   UNL     1       2.095   4.506  20.886  0.00  0.00    +0.000 C 
ATOM     18  C   UNL     1       1.182   3.295  20.832  0.00  0.00    +0.000 C 
ENDBRANCH  16  18
ENDBRANCH  15  16
ENDBRANCH  14  15
ENDBRANCH  13  14
ENDBRANCH  12  13
ENDBRANCH  11  12
ENDBRANCH  10  11
ENDBRANCH   9  10
ENDBRANCH   8   9
ENDBRANCH   7   8
ENDBRANCH   1   7
BRANCH   4  19
ATOM     19  C   UNL     1       0.621  11.818  20.319  0.00  0.00    +0.000 C 
BRANCH  19  20
ATOM     20  C   UNL     1      -0.800  12.197  19.883  0.00  0.00    +0.000 C 
BRANCH  20  21
ATOM     21  N   UNL     1      -1.833  11.934  20.904  0.00  0.00    +0.000 NA
ATOM     22  C   UNL     1      -2.862  12.980  20.907  0.00  0.00    +0.000 C 
ATOM     23  C   UNL     1      -3.910  12.708  21.972  0.00  0.00    +0.000 C 
ATOM     24  C   UNL     1      -3.254  12.597  23.341  0.00  0.00    +0.000 C 
ATOM     25  C   UNL     1      -2.170  11.527  23.327  0.00  0.00    +0.000 C 
ATOM     26  C   UNL     1      -1.174  11.821  22.218  0.00  0.00    +0.000 C 
BRANCH  24  27
ATOM     27  N   UNL     1      -4.250  12.237  24.320  0.00  0.00    +0.000 NA
ATOM     28  H   UNL     1      -4.776  13.066  24.601  0.00  0.00    +0.000 HD
ATOM     29  H   UNL     1      -3.791  11.895  25.161  0.00  0.00    +0.000 HD
ENDBRANCH  24  27
ENDBRANCH  20  21
ENDBRANCH  19  20
ENDBRANCH   4  19
TORSDOF 15
ENDMDL
MODEL 5
REMARK VINA RESULT:      -6.1      5.209      8.795
REMARK  Name = 
REMARK  16 active torsions:
REMARK  status: ('A' for Active; 'I' for Inactive)
REMARK    1  A    between atoms: C_1  and  C_2
REMARK    2  A    between atoms: C_2  and  C_3
REMARK    3  A    between atoms: C_3  and  C_4
REMARK    4  A    between atoms: C_4  and  C_5
REMARK    5  A    between atoms: C_5  and  C_6
REMARK    6  A    between atoms: C_6  and  C_7
REMARK    7  A    between atoms: C_7  and  C_8
REMARK    8  A    between atoms: C_8  and  C_9
REMARK    9  A    between atoms: C_9  and  C_10
REMARK   10  A    between atoms: C_10  and  C_11
REMARK   11  A    between atoms: C_11  and  C_12
REMARK   12  A    between atoms: C_12  and  C_13
REMARK   13  A    between atoms: C_16  and  C_17
REMARK   14  A    between atoms: C_17  and  C_18
REMARK   15  A    between atoms: C_18  and  N_19
REMARK   16  A    between atoms: C_22  and  N_23
REMARK                            x       y       z     vdW  Elec       q    Type
REMARK                         _______ _______ _______ _____ _____    ______ ____
ROOT
ATOM      1  C   UNL     1       2.406   7.527  18.650  0.00  0.00    +0.000 A 
ATOM      2  C   UNL     1       1.969   8.554  17.807  0.00  0.00    +0.000 A 
ATOM      3  C   UNL     1       1.142   9.559  18.302  0.00  0.00    +0.000 A 
ATOM      4  C   UNL     1       0.734   9.549  19.642  0.00  0.00    +0.000 A 
ATOM      5  C   UNL     1       1.158   8.506  20.477  0.00  0.00    +0.000 A 
ATOM      6  C   UNL     1       1.985   7.500  19.985  0.00  0.00    +0.000 A 
ENDROOT
BRANCH   1   7
ATOM      7  C   UNL     1       3.449   6.554  18.181  0.00  0.00    +0.000 C 
BRANCH   7   8
ATOM      8  C   UNL     1       4.054   5.881  19.411  0.00  0.00    +0.000 C 
BRANCH   8   9
ATOM      9  C   UNL     1       5.433   5.325  19.115  0.00  0.00    +0.000 C 
BRANCH   9  10
ATOM     10  C   UNL     1       5.753   5.500  17.637  0.00  0.00    +0.000 C 
BRANCH  10  11
ATOM     11  C   UNL     1       6.051   4.152  17.007  0.00  0.00    +0.000 C 
BRANCH  11  12
ATOM     12  C   UNL     1       4.919   3.729  16.085  0.00  0.00    +0.000 C 
BRANCH  12  13
ATOM     13  C   UNL     1       3.637   3.556  16.885  0.00  0.00    +0.000 C 
BRANCH  13  14
ATOM     14  C   UNL     1       3.730   2.337  17.789  0.00  0.00    +0.000 C 
BRANCH  14  15
ATOM     15  C   UNL     1       2.893   2.541  19.046  0.00  0.00    +0.000 C 
BRANCH  15  16
ATOM     16  C   UNL     1       1.574   3.226  18.705  0.00  0.00    +0.000 C 
BRANCH  16  18
ATOM     17  C   UNL     1       1.682   3.404  21.203  0.00  0.00    +0.000 C 
ATOM     18  C   UNL     1       0.932   3.824  19.952  0.00  0.00    +0.000 C 
ENDBRANCH  16  18
ENDBRANCH  15  16
ENDBRANCH  14  15
ENDBRANCH  13  14
ENDBRANCH  12  13
ENDBRANCH  11  12
ENDBRANCH  10  11
ENDBRANCH   9  10
ENDBRANCH   8   9
ENDBRANCH   7   8
ENDBRANCH   1   7
BRANCH   4  19
ATOM     19  C   UNL     1      -0.103  10.670  20.197  0.00  0.00    +0.000 C 
BRANCH  19  20
ATOM     20  C   UNL     1      -0.685  11.558  19.090  0.00  0.00    +0.000 C 
BRANCH  20  21
ATOM     21  N   UNL     1      -2.073  11.221  18.716  0.00  0.00    +0.000 NA
ATOM     22  C   UNL     1      -2.236  11.166  17.259  0.00  0.00    +0.000 C 
ATOM     23  C   UNL     1      -3.671  10.834  16.885  0.00  0.00    +0.000 C 
ATOM     24  C   UNL     1      -4.624  11.852  17.495  0.00  0.00    +0.000 C 
ATOM     25  C   UNL     1      -4.434  11.923  19.005  0.00  0.00    +0.000 C 
ATOM     26  C   UNL     1      -2.977  12.213  19.325  0.00  0.00    +0.000 C 
BRANCH  24  27
ATOM     27  N   UNL     1      -5.984  11.461  17.216  0.00  0.00    +0.000 NA
ATOM     28  H   UNL     1      -6.123  10.483  17.477  0.00  0.00    +0.000 HD
ATOM     29  H   UNL     1      -6.153  11.514  16.215  0.00  0.00    +0.000 HD
ENDBRANCH  24  27
ENDBRANCH  20  21
ENDBRANCH  19  20
ENDBRANCH   4  19
TORSDOF 15
ENDMDL
MODEL 6
REMARK VINA RESULT:      -6.1      5.449      8.253
REMARK  Name = 
REMARK  16 active torsions:
REMARK  status: ('A' for Active; 'I' for Inactive)
REMARK    1  A    between atoms: C_1  and  C_2
REMARK    2  A    between atoms: C_2  and  C_3
REMARK    3  A    between atoms: C_3  and  C_4
REMARK    4  A    between atoms: C_4  and  C_5
REMARK    5  A    between atoms: C_5  and  C_6
REMARK    6  A    between atoms: C_6  and  C_7
REMARK    7  A    between atoms: C_7  and  C_8
REMARK    8  A    between atoms: C_8  and  C_9
REMARK    9  A    between atoms: C_9  and  C_10
REMARK   10  A    between atoms: C_10  and  C_11
REMARK   11  A    between atoms: C_11  and  C_12
REMARK   12  A    between atoms: C_12  and  C_13
REMARK   13  A    between atoms: C_16  and  C_17
REMARK   14  A    between atoms: C_17  and  C_18
REMARK   15  A    between atoms: C_18  and  N_19
REMARK   16  A    between atoms: C_22  and  N_23
REMARK                            x       y       z     vdW  Elec       q    Type
REMARK                         _______ _______ _______ _____ _____    ______ ____
ROOT
ATOM      1  C   UNL     1       2.112   7.494  19.552  0.00  0.00    +0.000 A 
ATOM      2  C   UNL     1       1.478   8.172  20.598  0.00  0.00    +0.000 A 
ATOM      3  C   UNL     1       0.904   9.421  20.374  0.00  0.00    +0.000 A 
ATOM      4  C   UNL     1       0.962  10.012  19.106  0.00  0.00    +0.000 A 
ATOM      5  C   UNL     1       1.617   9.338  18.066  0.00  0.00    +0.000 A 
ATOM      6  C   UNL     1       2.191   8.089  18.287  0.00  0.00    +0.000 A 
ENDROOT
BRANCH   1   7
ATOM      7  C   UNL     1       2.557   6.071  19.731  0.00  0.00    +0.000 C 
BRANCH   7   8
ATOM      8  C   UNL     1       1.749   5.463  20.875  0.00  0.00    +0.000 C 
BRANCH   8   9
ATOM      9  C   UNL     1       1.067   4.179  20.450  0.00  0.00    +0.000 C 
BRANCH   9  10
ATOM     10  C   UNL     1       1.863   2.982  20.949  0.00  0.00    +0.000 C 
BRANCH  10  11
ATOM     11  C   UNL     1       2.392   2.182  19.772  0.00  0.00    +0.000 C 
BRANCH  11  12
ATOM     12  C   UNL     1       1.586   2.478  18.518  0.00  0.00    +0.000 C 
BRANCH  12  13
ATOM     13  C   UNL     1       2.515   2.565  17.315  0.00  0.00    +0.000 C 
BRANCH  13  14
ATOM     14  C   UNL     1       3.861   3.147  17.719  0.00  0.00    +0.000 C 
BRANCH  14  15
ATOM     15  C   UNL     1       4.048   4.530  17.106  0.00  0.00    +0.000 C 
BRANCH  15  16
ATOM     16  C   UNL     1       5.484   4.714  16.631  0.00  0.00    +0.000 C 
BRANCH  16  18
ATOM     17  C   UNL     1       6.864   4.801  14.539  0.00  0.00    +0.000 C 
ATOM     18  C   UNL     1       5.665   4.164  15.220  0.00  0.00    +0.000 C 
ENDBRANCH  16  18
ENDBRANCH  15  16
ENDBRANCH  14  15
ENDBRANCH  13  14
ENDBRANCH  12  13
ENDBRANCH  11  12
ENDBRANCH  10  11
ENDBRANCH   9  10
ENDBRANCH   8   9
ENDBRANCH   7   8
ENDBRANCH   1   7
BRANCH   4  19
ATOM     19  C   UNL     1       0.284  11.331  18.844  0.00  0.00    +0.000 C 
BRANCH  19  20
ATOM     20  C   UNL     1       0.133  12.167  20.121  0.00  0.00    +0.000 C 
BRANCH  20  21
ATOM     21  N   UNL     1      -1.147  11.960  20.826  0.00  0.00    +0.000 NA
ATOM     22  C   UNL     1      -2.167  12.913  20.375  0.00  0.00    +0.000 C 
ATOM     23  C   UNL     1      -3.475  12.702  21.119  0.00  0.00    +0.000 C 
ATOM     24  C   UNL     1      -3.253  12.823  22.620  0.00  0.00    +0.000 C 
ATOM     25  C   UNL     1      -2.177  11.848  23.079  0.00  0.00    +0.000 C 
ATOM     26  C   UNL     1      -0.906  12.071  22.276  0.00  0.00    +0.000 C 
BRANCH  24  27
ATOM     27  N   UNL     1      -4.482  12.517  23.310  0.00  0.00    +0.000 NA
ATOM     28  H   UNL     1      -5.279  12.703  22.699  0.00  0.00    +0.000 HD
ATOM     29  H   UNL     1      -4.586  13.138  24.108  0.00  0.00    +0.000 HD
ENDBRANCH  24  27
ENDBRANCH  20  21
ENDBRANCH  19  20
ENDBRANCH   4  19
TORSDOF 15
ENDMDL
MODEL 7
REMARK VINA RESULT:      -6.1      3.633      9.768
REMARK  Name = 
REMARK  16 active torsions:
REMARK  status: ('A' for Active; 'I' for Inactive)
REMARK    1  A    between atoms: C_1  and  C_2
REMARK    2  A    between atoms: C_2  and  C_3
REMARK    3  A    between atoms: C_3  and  C_4
REMARK    4  A    between atoms: C_4  and  C_5
REMARK    5  A    between atoms: C_5  and  C_6
REMARK    6  A    between atoms: C_6  and  C_7
REMARK    7  A    between atoms: C_7  and  C_8
REMARK    8  A    between atoms: C_8  and  C_9
REMARK    9  A    between atoms: C_9  and  C_10
REMARK   10  A    between atoms: C_10  and  C_11
REMARK   11  A    between atoms: C_11  and  C_12
REMARK   12  A    between atoms: C_12  and  C_13
REMARK   13  A    between atoms: C_16  and  C_17
REMARK   14  A    between atoms: C_17  and  C_18
REMARK   15  A    between atoms: C_18  and  N_19
REMARK   16  A    between atoms: C_22  and  N_23
REMARK                            x       y       z     vdW  Elec       q    Type
REMARK                         _______ _______ _______ _____ _____    ______ ____
ROOT
ATOM      1  C   UNL     1       7.364   6.896  18.081  0.00  0.00    +0.000 A 
ATOM      2  C   UNL     1       7.407   5.541  18.425  0.00  0.00    +0.000 A 
ATOM      3  C   UNL     1       6.431   4.669  17.949  0.00  0.00    +0.000 A 
ATOM      4  C   UNL     1       5.397   5.139  17.130  0.00  0.00    +0.000 A 
ATOM      5  C   UNL     1       5.347   6.502  16.806  0.00  0.00    +0.000 A 
ATOM      6  C   UNL     1       6.321   7.375  17.280  0.00  0.00    +0.000 A 
ENDROOT
BRANCH   1   7
ATOM      7  C   UNL     1       8.513   7.801  18.425  0.00  0.00    +0.000 C 
BRANCH   7   8
ATOM      8  C   UNL     1       8.165   9.209  17.945  0.00  0.00    +0.000 C 
BRANCH   8   9
ATOM      9  C   UNL     1       8.819  10.265  18.813  0.00  0.00    +0.000 C 
BRANCH   9  10
ATOM     10  C   UNL     1       9.826  11.056  17.990  0.00  0.00    +0.000 C 
BRANCH  10  11
ATOM     11  C   UNL     1      11.024  11.421  18.847  0.00  0.00    +0.000 C 
BRANCH  11  12
ATOM     12  C   UNL     1      11.905  12.435  18.135  0.00  0.00    +0.000 C 
BRANCH  12  13
ATOM     13  C   UNL     1      11.194  13.778  18.062  0.00  0.00    +0.000 C 
BRANCH  13  14
ATOM     14  C   UNL     1      10.824  14.263  19.456  0.00  0.00    +0.000 C 
BRANCH  14  15
ATOM     15  C   UNL     1       9.383  14.758  19.481  0.00  0.00    +0.000 C 
BRANCH  15  16
ATOM     16  C   UNL     1       8.542  13.906  20.425  0.00  0.00    +0.000 C 
BRANCH  16  18
ATOM     17  C   UNL     1       8.778  12.021  22.061  0.00  0.00    +0.000 C 
ATOM     18  C   UNL     1       9.405  13.295  21.523  0.00  0.00    +0.000 C 
ENDBRANCH  16  18
ENDBRANCH  15  16
ENDBRANCH  14  15
ENDBRANCH  13  14
ENDBRANCH  12  13
ENDBRANCH  11  12
ENDBRANCH  10  11
ENDBRANCH   9  10
ENDBRANCH   8   9
ENDBRANCH   7   8
ENDBRANCH   1   7
BRANCH   4  19
ATOM     19  C   UNL     1       4.379   4.188  16.557  0.00  0.00    +0.000 C 
BRANCH  19  20
ATOM     20  C   UNL     1       4.190   2.947  17.439  0.00  0.00    +0.000 C 
BRANCH  20  21
ATOM     21  N   UNL     1       3.451   3.206  18.690  0.00  0.00    +0.000 NA
ATOM     22  C   UNL     1       3.985   2.411  19.802  0.00  0.00    +0.000 C 
ATOM     23  C   UNL     1       3.207   2.673  21.080  0.00  0.00    +0.000 C 
ATOM     24  C   UNL     1       1.729   2.377  20.869  0.00  0.00    +0.000 C 
ATOM     25  C   UNL     1       1.186   3.187  19.699  0.00  0.00    +0.000 C 
ATOM     26  C   UNL     1       2.023   2.922  18.459  0.00  0.00    +0.000 C 
BRANCH  24  27
ATOM     27  N   UNL     1       0.996   2.731  22.060  0.00  0.00    +0.000 NA
ATOM     28  H   UNL     1       0.473   3.593  21.901  0.00  0.00    +0.000 HD
ATOM     29  H   UNL     1       1.649   2.930  22.813  0.00  0.00    +0.000 HD
ENDBRANCH  24  27
ENDBRANCH  20  21
ENDBRANCH  19  20
ENDBRANCH   4  19
TORSDOF 15
ENDMDL
MODEL 8
REMARK VINA RESULT:      -6.1      1.435      3.082
REMARK  Name = 
REMARK  16 active torsions:
REMARK  status: ('A' for Active; 'I' for Inactive)
REMARK    1  A    between atoms: C_1  and  C_2
REMARK    2  A    between atoms: C_2  and  C_3
REMARK    3  A    between atoms: C_3  and  C_4
REMARK    4  A    between atoms: C_4  and  C_5
REMARK    5  A    between atoms: C_5  and  C_6
REMARK    6  A    between atoms: C_6  and  C_7
REMARK    7  A    between atoms: C_7  and  C_8
REMARK    8  A    between atoms: C_8  and  C_9
REMARK    9  A    between atoms: C_9  and  C_10
REMARK   10  A    between atoms: C_10  and  C_11
REMARK   11  A    between atoms: C_11  and  C_12
REMARK   12  A    between atoms: C_12  and  C_13
REMARK   13  A    between atoms: C_16  and  C_17
REMARK   14  A    between atoms: C_17  and  C_18
REMARK   15  A    between atoms: C_18  and  N_19
REMARK   16  A    between atoms: C_22  and  N_23
REMARK                            x       y       z     vdW  Elec       q    Type
REMARK                         _______ _______ _______ _____ _____    ______ ____
ROOT
ATOM      1  C   UNL     1       6.521   5.710  17.887  0.00  0.00    +0.000 A 
ATOM      2  C   UNL     1       7.437   5.670  18.943  0.00  0.00    +0.000 A 
ATOM      3  C   UNL     1       8.260   6.766  19.194  0.00  0.00    +0.000 A 
ATOM      4  C   UNL     1       8.184   7.911  18.391  0.00  0.00    +0.000 A 
ATOM      5  C   UNL     1       7.278   7.936  17.321  0.00  0.00    +0.000 A 
ATOM      6  C   UNL     1       6.455   6.843  17.069  0.00  0.00    +0.000 A 
ENDROOT
BRANCH   1   7
ATOM      7  C   UNL     1       5.498   4.621  17.731  0.00  0.00    +0.000 C 
BRANCH   7   8
ATOM      8  C   UNL     1       4.381   5.147  16.832  0.00  0.00    +0.000 C 
BRANCH   8   9
ATOM      9  C   UNL     1       3.596   6.249  17.514  0.00  0.00    +0.000 C 
BRANCH   9  10
ATOM     10  C   UNL     1       2.585   5.642  18.477  0.00  0.00    +0.000 C 
BRANCH  10  11
ATOM     11  C   UNL     1       2.530   6.458  19.755  0.00  0.00    +0.000 C 
BRANCH  11  12
ATOM     12  C   UNL     1       1.741   5.724  20.827  0.00  0.00    +0.000 C 
BRANCH  12  13
ATOM     13  C   UNL     1       1.036   4.521  20.218  0.00  0.00    +0.000 C 
BRANCH  13  14
ATOM     14  C   UNL     1       1.316   3.267  21.033  0.00  0.00    +0.000 C 
BRANCH  14  15
ATOM     15  C   UNL     1       1.833   2.152  20.132  0.00  0.00    +0.000 C 
BRANCH  15  16
ATOM     16  C   UNL     1       1.266   2.295  18.725  0.00  0.00    +0.000 C 
BRANCH  16  18
ATOM     17  C   UNL     1       3.640   1.598  18.322  0.00  0.00    +0.000 C 
ATOM     18  C   UNL     1       2.347   2.062  17.676  0.00  0.00    +0.000 C 
ENDBRANCH  16  18
ENDBRANCH  15  16
ENDBRANCH  14  15
ENDBRANCH  13  14
ENDBRANCH  12  13
ENDBRANCH  11  12
ENDBRANCH  10  11
ENDBRANCH   9  10
ENDBRANCH   8   9
ENDBRANCH   7   8
ENDBRANCH   1   7
BRANCH   4  19
ATOM     19  C   UNL     1       9.023   9.122  18.701  0.00  0.00    +0.000 C 
BRANCH  19  20
ATOM     20  C   UNL     1       8.480  10.388  18.027  0.00  0.00    +0.000 C 
BRANCH  20  21
ATOM     21  N   UNL     1       9.285  11.599  18.285  0.00  0.00    +0.000 NA
ATOM     22  C   UNL     1       8.655  12.793  17.712  0.00  0.00    +0.000 C 
ATOM     23  C   UNL     1       9.499  14.030  17.969  0.00  0.00    +0.000 C 
ATOM     24  C   UNL     1      10.900  13.838  17.405  0.00  0.00    +0.000 C 
ATOM     25  C   UNL     1      11.540  12.583  17.985  0.00  0.00    +0.000 C 
ATOM     26  C   UNL     1      10.638  11.386  17.740  0.00  0.00    +0.000 C 
BRANCH  24  27
ATOM     27  N   UNL     1      11.714  14.977  17.750  0.00  0.00    +0.000 NA
ATOM     28  H   UNL     1      11.354  15.416  18.599  0.00  0.00    +0.000 HD
ATOM     29  H   UNL     1      11.644  15.678  17.017  0.00  0.00    +0.000 HD
ENDBRANCH  24  27
ENDBRANCH  20  21
ENDBRANCH  19  20
ENDBRANCH   4  19
TORSDOF 15
ENDMDL
MODEL 9
REMARK VINA RESULT:      -6.0      3.666      6.176
REMARK  Name = 
REMARK  16 active torsions:
REMARK  status: ('A' for Active; 'I' for Inactive)
REMARK    1  A    between atoms: C_1  and  C_2
REMARK    2  A    between atoms: C_2  and  C_3
REMARK    3  A    between atoms: C_3  and  C_4
REMARK    4  A    between atoms: C_4  and  C_5
REMARK    5  A    between atoms: C_5  and  C_6
REMARK    6  A    between atoms: C_6  and  C_7
REMARK    7  A    between atoms: C_7  and  C_8
REMARK    8  A    between atoms: C_8  and  C_9
REMARK    9  A    between atoms: C_9  and  C_10
REMARK   10  A    between atoms: C_10  and  C_11
REMARK   11  A    between atoms: C_11  and  C_12
REMARK   12  A    between atoms: C_12  and  C_13
REMARK   13  A    between atoms: C_16  and  C_17
REMARK   14  A    between atoms: C_17  and  C_18
REMARK   15  A    between atoms: C_18  and  N_19
REMARK   16  A    between atoms: C_22  and  N_23
REMARK                            x       y       z     vdW  Elec       q    Type
REMARK                         _______ _______ _______ _____ _____    ______ ____
ROOT
ATOM      1  C   UNL     1       2.218   6.849  19.746  0.00  0.00    +0.000 A 
ATOM      2  C   UNL     1       2.570   7.311  18.474  0.00  0.00    +0.000 A 
ATOM      3  C   UNL     1       2.241   8.609  18.088  0.00  0.00    +0.000 A 
ATOM      4  C   UNL     1       1.551   9.457  18.962  0.00  0.00    +0.000 A 
ATOM      5  C   UNL     1       1.182   8.981  20.228  0.00  0.00    +0.000 A 
ATOM      6  C   UNL     1       1.510   7.686  20.617  0.00  0.00    +0.000 A 
ENDROOT
BRANCH   1   7
ATOM      7  C   UNL     1       2.736   5.530  20.243  0.00  0.00    +0.000 C 
BRANCH   7   8
ATOM      8  C   UNL     1       1.541   4.606  20.467  0.00  0.00    +0.000 C 
BRANCH   8   9
ATOM      9  C   UNL     1       1.201   3.828  19.212  0.00  0.00    +0.000 C 
BRANCH   9  10
ATOM     10  C   UNL     1       1.593   2.368  19.389  0.00  0.00    +0.000 C 
BRANCH  10  11
ATOM     11  C   UNL     1       3.003   2.143  18.875  0.00  0.00    +0.000 C 
BRANCH  11  12
ATOM     12  C   UNL     1       3.221   2.884  17.565  0.00  0.00    +0.000 C 
BRANCH  12  13
ATOM     13  C   UNL     1       4.507   3.695  17.637  0.00  0.00    +0.000 C 
BRANCH  13  14
ATOM     14  C   UNL     1       4.437   4.892  16.700  0.00  0.00    +0.000 C 
BRANCH  14  15
ATOM     15  C   UNL     1       5.836   5.424  16.413  0.00  0.00    +0.000 C 
BRANCH  15  16
ATOM     16  C   UNL     1       6.036   6.784  17.071  0.00  0.00    +0.000 C 
BRANCH  16  18
ATOM     17  C   UNL     1       7.603   5.715  18.710  0.00  0.00    +0.000 C 
ATOM     18  C   UNL     1       7.402   6.868  17.743  0.00  0.00    +0.000 C 
ENDBRANCH  16  18
ENDBRANCH  15  16
ENDBRANCH  14  15
ENDBRANCH  13  14
ENDBRANCH  12  13
ENDBRANCH  11  12
ENDBRANCH  10  11
ENDBRANCH   9  10
ENDBRANCH   8   9
ENDBRANCH   7   8
ENDBRANCH   1   7
BRANCH   4  19
ATOM     19  C   UNL     1       1.255  10.881  18.573  0.00  0.00    +0.000 C 
BRANCH  19  20
ATOM     20  C   UNL     1       1.096  11.793  19.797  0.00  0.00    +0.000 C 
BRANCH  20  21
ATOM     21  N   UNL     1       1.815  13.077  19.687  0.00  0.00    +0.000 NA
ATOM     22  C   UNL     1       0.899  14.216  19.814  0.00  0.00    +0.000 C 
ATOM     23  C   UNL     1       1.646  15.532  19.684  0.00  0.00    +0.000 C 
ATOM     24  C   UNL     1       2.389  15.587  18.356  0.00  0.00    +0.000 C 
ATOM     25  C   UNL     1       3.321  14.390  18.218  0.00  0.00    +0.000 C 
ATOM     26  C   UNL     1       2.534  13.103  18.400  0.00  0.00    +0.000 C 
BRANCH  24  27
ATOM     27  N   UNL     1       3.174  16.795  18.297  0.00  0.00    +0.000 NA
ATOM     28  H   UNL     1       2.854  17.452  19.011  0.00  0.00    +0.000 HD
ATOM     29  H   UNL     1       3.023  17.254  17.402  0.00  0.00    +0.000 HD
ENDBRANCH  24  27
ENDBRANCH  20  21
ENDBRANCH  19  20
ENDBRANCH   4  19
TORSDOF 15
ENDMDL
