MODEL 1
REMARK VINA RESULT:      -8.3      0.000      0.000
REMARK  Name = 
REMARK  5 active torsions:
REMARK  status: ('A' for Active; 'I' for Inactive)
REMARK    1  A    between atoms: C_8  and  S_9
REMARK    2  A    between atoms: S_9  and  N_12
REMARK    3  A    between atoms: N_12  and  C_13
REMARK    4  A    between atoms: N_16  and  C_17
REMARK    5  A    between atoms: C_17  and  C_18
REMARK                            x       y       z     vdW  Elec       q    Type
REMARK                         _______ _______ _______ _____ _____    ______ ____
ROOT
ATOM      1  S   UNL     1       2.593   5.706  19.671  0.00  0.00    +0.000 S 
ATOM      2  O   UNL     1       2.203   5.388  21.023  0.00  0.00    +0.000 OA
ATOM      3  O   UNL     1       2.196   4.889  18.547  0.00  0.00    +0.000 OA
ENDROOT
BRANCH   1  11
ATOM      4  O   UNL     1      -0.418  13.088  19.274  0.00  0.00    +0.000 OA
ATOM      5  C   UNL     1      -0.005  11.961  19.521  0.00  0.00    +0.000 A 
ATOM      6  N   UNL     1      -0.193  11.373  20.739  0.00  0.00    +0.000 N 
ATOM      7  C   UNL     1       0.214  10.116  21.101  0.00  0.00    +0.000 A 
ATOM      8  O   UNL     1      -0.021   9.636  22.204  0.00  0.00    +0.000 OA
ATOM      9  C   UNL     1       0.938   9.349  20.073  0.00  0.00    +0.000 A 
ATOM     10  C   UNL     1       1.398   8.063  20.341  0.00  0.00    +0.000 A 
ATOM     11  C   UNL     1       2.046   7.358  19.326  0.00  0.00    +0.000 A 
ATOM     12  C   UNL     1       2.253   7.929  18.064  0.00  0.00    +0.000 A 
ATOM     13  C   UNL     1       1.799   9.228  17.813  0.00  0.00    +0.000 A 
ATOM     14  C   UNL     1       1.138   9.934  18.821  0.00  0.00    +0.000 A 
ATOM     15  N   UNL     1       0.667  11.225  18.585  0.00  0.00    +0.000 N 
ATOM     16  H   UNL     1      -0.697  11.909  21.429  0.00  0.00    +0.000 HD
ATOM     17  H   UNL     1       0.801  11.674  17.685  0.00  0.00    +0.000 HD
ENDBRANCH   1  11
BRANCH   1  18
ATOM     18  N   UNL     1       4.268   5.855  19.582  0.00  0.00    +0.000 NA
ATOM     19  H   UNL     1       4.658   6.296  20.413  0.00  0.00    +0.000 HD
BRANCH  18  20
ATOM     20  C   UNL     1       5.101   4.872  18.860  0.00  0.00    +0.000 C 
ATOM     21  C   UNL     1       6.574   5.186  19.119  0.00  0.00    +0.000 C 
ATOM     22  C   UNL     1       6.923   6.113  17.970  0.00  0.00    +0.000 C 
ATOM     23  N   UNL     1       6.251   5.524  16.802  0.00  0.00    +0.000 NA
ATOM     24  C   UNL     1       4.983   4.974  17.328  0.00  0.00    +0.000 C 
BRANCH  23  25
ATOM     25  C   UNL     1       7.090   4.505  16.154  0.00  0.00    +0.000 C 
BRANCH  25  26
ATOM     26  C   UNL     1       6.972   4.474  14.644  0.00  0.00    +0.000 A 
ATOM     27  C   UNL     1       7.795   5.271  13.835  0.00  0.00    +0.000 A 
ATOM     28  C   UNL     1       7.723   5.180  12.443  0.00  0.00    +0.000 A 
ATOM     29  C   UNL     1       6.828   4.293  11.846  0.00  0.00    +0.000 A 
ATOM     30  C   UNL     1       5.991   3.510  12.638  0.00  0.00    +0.000 A 
ATOM     31  C   UNL     1       6.060   3.602  14.029  0.00  0.00    +0.000 A 
ENDBRANCH  25  26
ENDBRANCH  23  25
ENDBRANCH  18  20
ENDBRANCH   1  18
TORSDOF 5
ENDMDL
MODEL 2
REMARK VINA RESULT:      -7.9      3.478      9.123
REMARK  Name = 
REMARK  5 active torsions:
REMARK  status: ('A' for Active; 'I' for Inactive)
REMARK    1  A    between atoms: C_8  and  S_9
REMARK    2  A    between atoms: S_9  and  N_12
REMARK    3  A    between atoms: N_12  and  C_13
REMARK    4  A    between atoms: N_16  and  C_17
REMARK    5  A    between atoms: C_17  and  C_18
REMARK                            x       y       z     vdW  Elec       q    Type
REMARK                         _______ _______ _______ _____ _____    ______ ____
ROOT
ATOM      1  S   UNL     1       4.028   3.033  18.446  0.00  0.00    +0.000 S 
ATOM      2  O   UNL     1       3.375   1.988  17.698  0.00  0.00    +0.000 OA
ATOM      3  O   UNL     1       4.720   2.768  19.688  0.00  0.00    +0.000 OA
ENDROOT
BRANCH   1  11
ATOM      4  O   UNL     1       8.697   5.925  12.654  0.00  0.00    +0.000 OA
ATOM      5  C   UNL     1       7.872   5.412  13.400  0.00  0.00    +0.000 A 
ATOM      6  N   UNL     1       6.857   4.630  12.927  0.00  0.00    +0.000 N 
ATOM      7  C   UNL     1       5.903   4.001  13.682  0.00  0.00    +0.000 A 
ATOM      8  O   UNL     1       5.038   3.282  13.192  0.00  0.00    +0.000 OA
ATOM      9  C   UNL     1       5.982   4.216  15.137  0.00  0.00    +0.000 A 
ATOM     10  C   UNL     1       5.057   3.625  15.992  0.00  0.00    +0.000 A 
ATOM     11  C   UNL     1       5.192   3.823  17.366  0.00  0.00    +0.000 A 
ATOM     12  C   UNL     1       6.223   4.617  17.887  0.00  0.00    +0.000 A 
ATOM     13  C   UNL     1       7.137   5.217  17.015  0.00  0.00    +0.000 A 
ATOM     14  C   UNL     1       7.015   5.010  15.639  0.00  0.00    +0.000 A 
ATOM     15  N   UNL     1       7.924   5.591  14.755  0.00  0.00    +0.000 N 
ATOM     16  H   UNL     1       6.821   4.487  11.929  0.00  0.00    +0.000 HD
ATOM     17  H   UNL     1       8.681   6.175  15.092  0.00  0.00    +0.000 HD
ENDBRANCH   1  11
BRANCH   1  18
ATOM     18  N   UNL     1       2.935   4.272  18.767  0.00  0.00    +0.000 NA
ATOM     19  H   UNL     1       1.975   3.999  18.563  0.00  0.00    +0.000 HD
BRANCH  18  20
ATOM     20  C   UNL     1       3.164   5.255  19.846  0.00  0.00    +0.000 C 
ATOM     21  C   UNL     1       2.235   4.931  21.016  0.00  0.00    +0.000 C 
ATOM     22  C   UNL     1       1.008   5.768  20.708  0.00  0.00    +0.000 C 
ATOM     23  N   UNL     1       1.546   7.050  20.227  0.00  0.00    +0.000 NA
ATOM     24  C   UNL     1       2.762   6.692  19.465  0.00  0.00    +0.000 C 
BRANCH  23  25
ATOM     25  C   UNL     1       1.820   7.971  21.339  0.00  0.00    +0.000 C 
BRANCH  25  26
ATOM     26  C   UNL     1       0.774   9.051  21.522  0.00  0.00    +0.000 A 
ATOM     27  C   UNL     1       0.232   9.330  22.785  0.00  0.00    +0.000 A 
ATOM     28  C   UNL     1      -0.680  10.374  22.950  0.00  0.00    +0.000 A 
ATOM     29  C   UNL     1      -1.061  11.150  21.856  0.00  0.00    +0.000 A 
ATOM     30  C   UNL     1      -0.545  10.870  20.592  0.00  0.00    +0.000 A 
ATOM     31  C   UNL     1       0.364   9.825  20.425  0.00  0.00    +0.000 A 
ENDBRANCH  25  26
ENDBRANCH  23  25
ENDBRANCH  18  20
ENDBRANCH   1  18
TORSDOF 5
ENDMDL
MODEL 3
REMARK VINA RESULT:      -7.9      3.266      8.713
REMARK  Name = 
REMARK  5 active torsions:
REMARK  status: ('A' for Active; 'I' for Inactive)
REMARK    1  A    between atoms: C_8  and  S_9
REMARK    2  A    between atoms: S_9  and  N_12
REMARK    3  A    between atoms: N_12  and  C_13
REMARK    4  A    between atoms: N_16  and  C_17
REMARK    5  A    between atoms: C_17  and  C_18
REMARK                            x       y       z     vdW  Elec       q    Type
REMARK                         _______ _______ _______ _____ _____    ______ ____
ROOT
ATOM      1  S   UNL     1       2.792   3.172  20.435  0.00  0.00    +0.000 S 
ATOM      2  O   UNL     1       1.525   2.604  20.049  0.00  0.00    +0.000 OA
ATOM      3  O   UNL     1       3.685   2.502  21.353  0.00  0.00    +0.000 OA
ENDROOT
BRANCH   1  11
ATOM      4  O   UNL     1       7.732   5.269  14.526  0.00  0.00    +0.000 OA
ATOM      5  C   UNL     1       7.110   5.016  15.551  0.00  0.00    +0.000 A 
ATOM      6  N   UNL     1       7.554   5.407  16.782  0.00  0.00    +0.000 N 
ATOM      7  C   UNL     1       6.920   5.189  17.976  0.00  0.00    +0.000 A 
ATOM      8  O   UNL     1       7.359   5.601  19.044  0.00  0.00    +0.000 OA
ATOM      9  C   UNL     1       5.652   4.442  17.910  0.00  0.00    +0.000 A 
ATOM     10  C   UNL     1       4.932   4.163  19.067  0.00  0.00    +0.000 A 
ATOM     11  C   UNL     1       3.717   3.487  18.955  0.00  0.00    +0.000 A 
ATOM     12  C   UNL     1       3.230   3.073  17.708  0.00  0.00    +0.000 A 
ATOM     13  C   UNL     1       3.972   3.346  16.554  0.00  0.00    +0.000 A 
ATOM     14  C   UNL     1       5.182   4.036  16.659  0.00  0.00    +0.000 A 
ATOM     15  N   UNL     1       5.929   4.328  15.519  0.00  0.00    +0.000 N 
ATOM     16  H   UNL     1       8.419   5.924  16.809  0.00  0.00    +0.000 HD
ATOM     17  H   UNL     1       5.612   4.042  14.599  0.00  0.00    +0.000 HD
ENDBRANCH   1  11
BRANCH   1  18
ATOM     18  N   UNL     1       2.557   4.723  21.049  0.00  0.00    +0.000 NA
ATOM     19  H   UNL     1       3.430   5.151  21.353  0.00  0.00    +0.000 HD
BRANCH  18  20
ATOM     20  C   UNL     1       1.486   5.607  20.545  0.00  0.00    +0.000 C 
ATOM     21  C   UNL     1       1.841   6.054  19.127  0.00  0.00    +0.000 C 
ATOM     22  C   UNL     1       2.600   7.345  19.365  0.00  0.00    +0.000 C 
ATOM     23  N   UNL     1       1.851   8.023  20.434  0.00  0.00    +0.000 NA
ATOM     24  C   UNL     1       1.373   6.936  21.315  0.00  0.00    +0.000 C 
BRANCH  23  25
ATOM     25  C   UNL     1       0.755   8.839  19.890  0.00  0.00    +0.000 C 
BRANCH  25  26
ATOM     26  C   UNL     1       0.121   9.776  20.898  0.00  0.00    +0.000 A 
ATOM     27  C   UNL     1      -0.312   9.311  22.148  0.00  0.00    +0.000 A 
ATOM     28  C   UNL     1      -0.832  10.199  23.093  0.00  0.00    +0.000 A 
ATOM     29  C   UNL     1      -0.924  11.559  22.798  0.00  0.00    +0.000 A 
ATOM     30  C   UNL     1      -0.516  12.030  21.553  0.00  0.00    +0.000 A 
ATOM     31  C   UNL     1      -0.000  11.144  20.606  0.00  0.00    +0.000 A 
ENDBRANCH  25  26
ENDBRANCH  23  25
ENDBRANCH  18  20
ENDBRANCH   1  18
TORSDOF 5
ENDMDL
MODEL 4
REMARK VINA RESULT:      -7.9      0.999      1.743
REMARK  Name = 
REMARK  5 active torsions:
REMARK  status: ('A' for Active; 'I' for Inactive)
REMARK    1  A    between atoms: C_8  and  S_9
REMARK    2  A    between atoms: S_9  and  N_12
REMARK    3  A    between atoms: N_12  and  C_13
REMARK    4  A    between atoms: N_16  and  C_17
REMARK    5  A    between atoms: C_17  and  C_18
REMARK                            x       y       z     vdW  Elec       q    Type
REMARK                         _______ _______ _______ _____ _____    ______ ____
ROOT
ATOM      1  S   UNL     1       2.544   5.483  19.778  0.00  0.00    +0.000 S 
ATOM      2  O   UNL     1       2.525   4.782  21.038  0.00  0.00    +0.000 OA
ATOM      3  O   UNL     1       1.960   4.923  18.580  0.00  0.00    +0.000 OA
ENDROOT
BRANCH   1  11
ATOM      4  O   UNL     1      -0.266  12.954  19.832  0.00  0.00    +0.000 OA
ATOM      5  C   UNL     1       0.224  11.847  19.645  0.00  0.00    +0.000 A 
ATOM      6  N   UNL     1       0.932  11.551  18.515  0.00  0.00    +0.000 N 
ATOM      7  C   UNL     1       1.531  10.353  18.227  0.00  0.00    +0.000 A 
ATOM      8  O   UNL     1       2.184  10.167  17.206  0.00  0.00    +0.000 OA
ATOM      9  C   UNL     1       1.367   9.289  19.233  0.00  0.00    +0.000 A 
ATOM     10  C   UNL     1       1.933   8.033  19.034  0.00  0.00    +0.000 A 
ATOM     11  C   UNL     1       1.786   7.067  20.029  0.00  0.00    +0.000 A 
ATOM     12  C   UNL     1       1.068   7.336  21.202  0.00  0.00    +0.000 A 
ATOM     13  C   UNL     1       0.493   8.598  21.382  0.00  0.00    +0.000 A 
ATOM     14  C   UNL     1       0.648   9.574  20.395  0.00  0.00    +0.000 A 
ATOM     15  N   UNL     1       0.091  10.841  20.562  0.00  0.00    +0.000 N 
ATOM     16  H   UNL     1       1.041  12.292  17.840  0.00  0.00    +0.000 HD
ATOM     17  H   UNL     1      -0.438  11.074  21.396  0.00  0.00    +0.000 HD
ENDBRANCH   1  11
BRANCH   1  18
ATOM     18  N   UNL     1       4.127   5.900  19.383  0.00  0.00    +0.000 NA
ATOM     19  H   UNL     1       4.532   6.550  20.056  0.00  0.00    +0.000 HD
BRANCH  18  20
ATOM     20  C   UNL     1       5.033   4.959  18.693  0.00  0.00    +0.000 C 
ATOM     21  C   UNL     1       6.475   5.282  19.085  0.00  0.00    +0.000 C 
ATOM     22  C   UNL     1       6.901   6.260  18.007  0.00  0.00    +0.000 C 
ATOM     23  N   UNL     1       6.337   5.711  16.764  0.00  0.00    +0.000 NA
ATOM     24  C   UNL     1       5.040   5.122  17.162  0.00  0.00    +0.000 C 
BRANCH  23  25
ATOM     25  C   UNL     1       7.243   4.731  16.148  0.00  0.00    +0.000 C 
BRANCH  25  26
ATOM     26  C   UNL     1       7.072   4.585  14.650  0.00  0.00    +0.000 A 
ATOM     27  C   UNL     1       7.874   5.306  13.754  0.00  0.00    +0.000 A 
ATOM     28  C   UNL     1       7.752   5.110  12.377  0.00  0.00    +0.000 A 
ATOM     29  C   UNL     1       6.828   4.192  11.881  0.00  0.00    +0.000 A 
ATOM     30  C   UNL     1       6.011   3.483  12.759  0.00  0.00    +0.000 A 
ATOM     31  C   UNL     1       6.130   3.681  14.135  0.00  0.00    +0.000 A 
ENDBRANCH  25  26
ENDBRANCH  23  25
ENDBRANCH  18  20
ENDBRANCH   1  18
TORSDOF 5
ENDMDL
MODEL 5
REMARK VINA RESULT:      -7.9      3.218      9.036
REMARK  Name = 
REMARK  5 active torsions:
REMARK  status: ('A' for Active; 'I' for Inactive)
REMARK    1  A    between atoms: C_8  and  S_9
REMARK    2  A    between atoms: S_9  and  N_12
REMARK    3  A    between atoms: N_12  and  C_13
REMARK    4  A    between atoms: N_16  and  C_17
REMARK    5  A    between atoms: C_17  and  C_18
REMARK                            x       y       z     vdW  Elec       q    Type
REMARK                         _______ _______ _______ _____ _____    ______ ____
ROOT
ATOM      1  S   UNL     1       4.000   3.373  18.839  0.00  0.00    +0.000 S 
ATOM      2  O   UNL     1       2.878   2.871  18.086  0.00  0.00    +0.000 OA
ATOM      3  O   UNL     1       4.758   2.532  19.738  0.00  0.00    +0.000 OA
ENDROOT
BRANCH   1  11
ATOM      4  O   UNL     1       8.566   5.837  12.774  0.00  0.00    +0.000 OA
ATOM      5  C   UNL     1       7.748   5.389  13.568  0.00  0.00    +0.000 A 
ATOM      6  N   UNL     1       6.683   4.637  13.163  0.00  0.00    +0.000 N 
ATOM      7  C   UNL     1       5.732   4.079  13.976  0.00  0.00    +0.000 A 
ATOM      8  O   UNL     1       4.819   3.383  13.546  0.00  0.00    +0.000 OA
ATOM      9  C   UNL     1       5.876   4.344  15.418  0.00  0.00    +0.000 A 
ATOM     10  C   UNL     1       4.959   3.827  16.329  0.00  0.00    +0.000 A 
ATOM     11  C   UNL     1       5.155   4.070  17.688  0.00  0.00    +0.000 A 
ATOM     12  C   UNL     1       6.238   4.835  18.139  0.00  0.00    +0.000 A 
ATOM     13  C   UNL     1       7.144   5.361  17.212  0.00  0.00    +0.000 A 
ATOM     14  C   UNL     1       6.961   5.110  15.851  0.00  0.00    +0.000 A 
ATOM     15  N   UNL     1       7.859   5.616  14.912  0.00  0.00    +0.000 N 
ATOM     16  H   UNL     1       6.603   4.459  12.174  0.00  0.00    +0.000 HD
ATOM     17  H   UNL     1       8.654   6.177  15.200  0.00  0.00    +0.000 HD
ENDBRANCH   1  11
BRANCH   1  18
ATOM     18  N   UNL     1       3.527   4.718  19.735  0.00  0.00    +0.000 NA
ATOM     19  H   UNL     1       4.322   5.286  20.023  0.00  0.00    +0.000 HD
BRANCH  18  20
ATOM     20  C   UNL     1       2.236   5.397  19.499  0.00  0.00    +0.000 C 
ATOM     21  C   UNL     1       2.367   6.296  18.270  0.00  0.00    +0.000 C 
ATOM     22  C   UNL     1       2.793   7.622  18.872  0.00  0.00    +0.000 C 
ATOM     23  N   UNL     1       1.974   7.758  20.086  0.00  0.00    +0.000 NA
ATOM     24  C   UNL     1       1.847   6.384  20.617  0.00  0.00    +0.000 C 
BRANCH  23  25
ATOM     25  C   UNL     1       0.674   8.378  19.793  0.00  0.00    +0.000 C 
BRANCH  25  26
ATOM     26  C   UNL     1       0.217   9.381  20.833  0.00  0.00    +0.000 A 
ATOM     27  C   UNL     1       0.126  10.748  20.531  0.00  0.00    +0.000 A 
ATOM     28  C   UNL     1      -0.363  11.651  21.478  0.00  0.00    +0.000 A 
ATOM     29  C   UNL     1      -0.765  11.198  22.734  0.00  0.00    +0.000 A 
ATOM     30  C   UNL     1      -0.661   9.846  23.053  0.00  0.00    +0.000 A 
ATOM     31  C   UNL     1      -0.170   8.943  22.109  0.00  0.00    +0.000 A 
ENDBRANCH  25  26
ENDBRANCH  23  25
ENDBRANCH  18  20
ENDBRANCH   1  18
TORSDOF 5
ENDMDL
MODEL 6
REMARK VINA RESULT:      -7.8      4.159     10.363
REMARK  Name = 
REMARK  5 active torsions:
REMARK  status: ('A' for Active; 'I' for Inactive)
REMARK    1  A    between atoms: C_8  and  S_9
REMARK    2  A    between atoms: S_9  and  N_12
REMARK    3  A    between atoms: N_12  and  C_13
REMARK    4  A    between atoms: N_16  and  C_17
REMARK    5  A    between atoms: C_17  and  C_18
REMARK                            x       y       z     vdW  Elec       q    Type
REMARK                         _______ _______ _______ _____ _____    ______ ____
ROOT
ATOM      1  S   UNL     1       0.459  10.233  19.459  0.00  0.00    +0.000 S 
ATOM      2  O   UNL     1      -0.365   9.743  20.536  0.00  0.00    +0.000 OA
ATOM      3  O   UNL     1       1.289  11.408  19.602  0.00  0.00    +0.000 OA
ENDROOT
BRANCH   1  11
ATOM      4  O   UNL     1       4.936   3.731  18.277  0.00  0.00    +0.000 OA
ATOM      5  C   UNL     1       4.173   4.631  18.606  0.00  0.00    +0.000 A 
ATOM      6  N   UNL     1       3.404   4.552  19.731  0.00  0.00    +0.000 N 
ATOM      7  C   UNL     1       2.540   5.511  20.188  0.00  0.00    +0.000 A 
ATOM      8  O   UNL     1       1.905   5.389  21.230  0.00  0.00    +0.000 OA
ATOM      9  C   UNL     1       2.426   6.727  19.364  0.00  0.00    +0.000 A 
ATOM     10  C   UNL     1       1.572   7.760  19.738  0.00  0.00    +0.000 A 
ATOM     11  C   UNL     1       1.524   8.909  18.949  0.00  0.00    +0.000 A 
ATOM     12  C   UNL     1       2.301   9.025  17.789  0.00  0.00    +0.000 A 
ATOM     13  C   UNL     1       3.144   7.973  17.417  0.00  0.00    +0.000 A 
ATOM     14  C   UNL     1       3.207   6.826  18.210  0.00  0.00    +0.000 A 
ATOM     15  N   UNL     1       4.050   5.772  17.862  0.00  0.00    +0.000 N 
ATOM     16  H   UNL     1       3.498   3.717  20.289  0.00  0.00    +0.000 HD
ATOM     17  H   UNL     1       4.626   5.817  17.028  0.00  0.00    +0.000 HD
ENDBRANCH   1  11
BRANCH   1  18
ATOM     18  N   UNL     1      -0.486  10.483  18.088  0.00  0.00    +0.000 NA
ATOM     19  H   UNL     1       0.059  10.423  17.230  0.00  0.00    +0.000 HD
BRANCH  18  20
ATOM     20  C   UNL     1      -1.908  10.086  18.038  0.00  0.00    +0.000 C 
ATOM     21  C   UNL     1      -2.271   9.725  16.598  0.00  0.00    +0.000 C 
ATOM     22  C   UNL     1      -2.767  11.046  16.040  0.00  0.00    +0.000 C 
ATOM     23  N   UNL     1      -3.575  11.626  17.124  0.00  0.00    +0.000 NA
ATOM     24  C   UNL     1      -2.880  11.234  18.369  0.00  0.00    +0.000 C 
BRANCH  23  25
ATOM     25  C   UNL     1      -4.965  11.152  17.073  0.00  0.00    +0.000 C 
BRANCH  25  26
ATOM     26  C   UNL     1      -5.963  12.087  17.726  0.00  0.00    +0.000 A 
ATOM     27  C   UNL     1      -6.380  13.264  17.086  0.00  0.00    +0.000 A 
ATOM     28  C   UNL     1      -7.351  14.080  17.668  0.00  0.00    +0.000 A 
ATOM     29  C   UNL     1      -7.916  13.730  18.894  0.00  0.00    +0.000 A 
ATOM     30  C   UNL     1      -7.497  12.574  19.549  0.00  0.00    +0.000 A 
ATOM     31  C   UNL     1      -6.523  11.759  18.970  0.00  0.00    +0.000 A 
ENDBRANCH  25  26
ENDBRANCH  23  25
ENDBRANCH  18  20
ENDBRANCH   1  18
TORSDOF 5
ENDMDL
MODEL 7
REMARK VINA RESULT:      -7.7      4.216     10.426
REMARK  Name = 
REMARK  5 active torsions:
REMARK  status: ('A' for Active; 'I' for Inactive)
REMARK    1  A    between atoms: C_8  and  S_9
REMARK    2  A    between atoms: S_9  and  N_12
REMARK    3  A    between atoms: N_12  and  C_13
REMARK    4  A    between atoms: N_16  and  C_17
REMARK    5  A    between atoms: C_17  and  C_18
REMARK                            x       y       z     vdW  Elec       q    Type
REMARK                         _______ _______ _______ _____ _____    ______ ____
ROOT
ATOM      1  S   UNL     1      -0.111  10.947  19.328  0.00  0.00    +0.000 S 
ATOM      2  O   UNL     1      -1.035  11.124  20.421  0.00  0.00    +0.000 OA
ATOM      3  O   UNL     1       0.851  11.964  18.965  0.00  0.00    +0.000 OA
ENDROOT
BRANCH   1  11
ATOM      4  O   UNL     1       4.376   4.347  19.462  0.00  0.00    +0.000 OA
ATOM      5  C   UNL     1       3.772   5.396  19.272  0.00  0.00    +0.000 A 
ATOM      6  N   UNL     1       3.885   6.094  18.104  0.00  0.00    +0.000 N 
ATOM      7  C   UNL     1       3.237   7.260  17.794  0.00  0.00    +0.000 A 
ATOM      8  O   UNL     1       3.357   7.817  16.708  0.00  0.00    +0.000 OA
ATOM      9  C   UNL     1       2.356   7.810  18.840  0.00  0.00    +0.000 A 
ATOM     10  C   UNL     1       1.656   8.994  18.627  0.00  0.00    +0.000 A 
ATOM     11  C   UNL     1       0.804   9.458  19.629  0.00  0.00    +0.000 A 
ATOM     12  C   UNL     1       0.662   8.766  20.839  0.00  0.00    +0.000 A 
ATOM     13  C   UNL     1       1.383   7.585  21.045  0.00  0.00    +0.000 A 
ATOM     14  C   UNL     1       2.227   7.108  20.040  0.00  0.00    +0.000 A 
ATOM     15  N   UNL     1       2.945   5.927  20.223  0.00  0.00    +0.000 N 
ATOM     16  H   UNL     1       4.486   5.701  17.396  0.00  0.00    +0.000 HD
ATOM     17  H   UNL     1       2.872   5.399  21.086  0.00  0.00    +0.000 HD
ENDBRANCH   1  11
BRANCH   1  18
ATOM     18  N   UNL     1      -0.958  10.572  17.922  0.00  0.00    +0.000 NA
ATOM     19  H   UNL     1      -0.367  10.113  17.230  0.00  0.00    +0.000 HD
BRANCH  18  20
ATOM     20  C   UNL     1      -2.396  10.234  17.944  0.00  0.00    +0.000 C 
ATOM     21  C   UNL     1      -2.808   9.733  16.560  0.00  0.00    +0.000 C 
ATOM     22  C   UNL     1      -3.263  11.005  15.869  0.00  0.00    +0.000 C 
ATOM     23  N   UNL     1      -4.019  11.735  16.898  0.00  0.00    +0.000 NA
ATOM     24  C   UNL     1      -3.311  11.453  18.165  0.00  0.00    +0.000 C 
BRANCH  23  25
ATOM     25  C   UNL     1      -5.429  11.319  16.928  0.00  0.00    +0.000 C 
BRANCH  25  26
ATOM     26  C   UNL     1      -6.103  11.508  18.272  0.00  0.00    +0.000 A 
ATOM     27  C   UNL     1      -6.302  12.787  18.810  0.00  0.00    +0.000 A 
ATOM     28  C   UNL     1      -6.985  12.950  20.017  0.00  0.00    +0.000 A 
ATOM     29  C   UNL     1      -7.476  11.836  20.698  0.00  0.00    +0.000 A 
ATOM     30  C   UNL     1      -7.268  10.558  20.184  0.00  0.00    +0.000 A 
ATOM     31  C   UNL     1      -6.582  10.395  18.980  0.00  0.00    +0.000 A 
ENDBRANCH  25  26
ENDBRANCH  23  25
ENDBRANCH  18  20
ENDBRANCH   1  18
TORSDOF 5
ENDMDL
MODEL 8
REMARK VINA RESULT:      -7.7      0.532      1.039
REMARK  Name = 
REMARK  5 active torsions:
REMARK  status: ('A' for Active; 'I' for Inactive)
REMARK    1  A    between atoms: C_8  and  S_9
REMARK    2  A    between atoms: S_9  and  N_12
REMARK    3  A    between atoms: N_12  and  C_13
REMARK    4  A    between atoms: N_16  and  C_17
REMARK    5  A    between atoms: C_17  and  C_18
REMARK                            x       y       z     vdW  Elec       q    Type
REMARK                         _______ _______ _______ _____ _____    ______ ____
ROOT
ATOM      1  S   UNL     1       2.560   5.690  19.651  0.00  0.00    +0.000 S 
ATOM      2  O   UNL     1       2.139   5.208  20.943  0.00  0.00    +0.000 OA
ATOM      3  O   UNL     1       2.201   5.012  18.426  0.00  0.00    +0.000 OA
ENDROOT
BRANCH   1  11
ATOM      4  O   UNL     1      -0.310  13.121  20.156  0.00  0.00    +0.000 OA
ATOM      5  C   UNL     1       0.109  11.975  20.270  0.00  0.00    +0.000 A 
ATOM      6  N   UNL     1       0.087  11.312  21.464  0.00  0.00    +0.000 N 
ATOM      7  C   UNL     1       0.513  10.029  21.683  0.00  0.00    +0.000 A 
ATOM      8  O   UNL     1       0.430   9.481  22.777  0.00  0.00    +0.000 OA
ATOM      9  C   UNL     1       1.063   9.321  20.515  0.00  0.00    +0.000 A 
ATOM     10  C   UNL     1       1.529   8.014  20.632  0.00  0.00    +0.000 A 
ATOM     11  C   UNL     1       2.007   7.367  19.492  0.00  0.00    +0.000 A 
ATOM     12  C   UNL     1       2.042   8.016  18.252  0.00  0.00    +0.000 A 
ATOM     13  C   UNL     1       1.585   9.335  18.151  0.00  0.00    +0.000 A 
ATOM     14  C   UNL     1       1.093   9.982  19.286  0.00  0.00    +0.000 A 
ATOM     15  N   UNL     1       0.622  11.292  19.202  0.00  0.00    +0.000 N 
ATOM     16  H   UNL     1      -0.300  11.808  22.252  0.00  0.00    +0.000 HD
ATOM     17  H   UNL     1       0.634  11.797  18.322  0.00  0.00    +0.000 HD
ENDBRANCH   1  11
BRANCH   1  18
ATOM     18  N   UNL     1       4.236   5.859  19.625  0.00  0.00    +0.000 NA
ATOM     19  H   UNL     1       4.586   6.333  20.456  0.00  0.00    +0.000 HD
BRANCH  18  20
ATOM     20  C   UNL     1       5.110   4.864  18.971  0.00  0.00    +0.000 C 
ATOM     21  C   UNL     1       6.487   5.489  18.745  0.00  0.00    +0.000 C 
ATOM     22  C   UNL     1       6.358   6.081  17.354  0.00  0.00    +0.000 C 
ATOM     23  N   UNL     1       5.619   5.067  16.587  0.00  0.00    +0.000 NA
ATOM     24  C   UNL     1       4.656   4.488  17.548  0.00  0.00    +0.000 C 
BRANCH  23  25
ATOM     25  C   UNL     1       6.523   4.062  16.009  0.00  0.00    +0.000 C 
BRANCH  25  26
ATOM     26  C   UNL     1       6.777   4.236  14.525  0.00  0.00    +0.000 A 
ATOM     27  C   UNL     1       6.050   3.505  13.575  0.00  0.00    +0.000 A 
ATOM     28  C   UNL     1       6.246   3.726  12.210  0.00  0.00    +0.000 A 
ATOM     29  C   UNL     1       7.170   4.678  11.781  0.00  0.00    +0.000 A 
ATOM     30  C   UNL     1       7.913   5.397  12.716  0.00  0.00    +0.000 A 
ATOM     31  C   UNL     1       7.720   5.175  14.080  0.00  0.00    +0.000 A 
ENDBRANCH  25  26
ENDBRANCH  23  25
ENDBRANCH  18  20
ENDBRANCH   1  18
TORSDOF 5
ENDMDL
MODEL 9
REMARK VINA RESULT:      -7.7      2.633      4.038
REMARK  Name = 
REMARK  5 active torsions:
REMARK  status: ('A' for Active; 'I' for Inactive)
REMARK    1  A    between atoms: C_8  and  S_9
REMARK    2  A    between atoms: S_9  and  N_12
REMARK    3  A    between atoms: N_12  and  C_13
REMARK    4  A    between atoms: N_16  and  C_17
REMARK    5  A    between atoms: C_17  and  C_18
REMARK                            x       y       z     vdW  Elec       q    Type
REMARK                         _______ _______ _______ _____ _____    ______ ____
ROOT
ATOM      1  S   UNL     1       0.397   9.061  22.061  0.00  0.00    +0.000 S 
ATOM      2  O   UNL     1       0.847   9.554  23.339  0.00  0.00    +0.000 OA
ATOM      3  O   UNL     1      -0.752   8.194  21.935  0.00  0.00    +0.000 OA
ENDROOT
BRANCH   1  11
ATOM      4  O   UNL     1      -0.447  16.061  18.317  0.00  0.00    +0.000 OA
ATOM      5  C   UNL     1      -0.210  15.084  19.019  0.00  0.00    +0.000 A 
ATOM      6  N   UNL     1       0.457  15.191  20.205  0.00  0.00    +0.000 N 
ATOM      7  C   UNL     1       0.748  14.164  21.063  0.00  0.00    +0.000 A 
ATOM      8  O   UNL     1       1.320  14.337  22.134  0.00  0.00    +0.000 OA
ATOM      9  C   UNL     1       0.313  12.822  20.639  0.00  0.00    +0.000 A 
ATOM     10  C   UNL     1       0.565  11.709  21.437  0.00  0.00    +0.000 A 
ATOM     11  C   UNL     1       0.101  10.463  21.015  0.00  0.00    +0.000 A 
ATOM     12  C   UNL     1      -0.588  10.317  19.805  0.00  0.00    +0.000 A 
ATOM     13  C   UNL     1      -0.822  11.441  19.005  0.00  0.00    +0.000 A 
ATOM     14  C   UNL     1      -0.372  12.694  19.429  0.00  0.00    +0.000 A 
ATOM     15  N   UNL     1      -0.606  13.827  18.652  0.00  0.00    +0.000 N 
ATOM     16  H   UNL     1       0.741  16.117  20.485  0.00  0.00    +0.000 HD
ATOM     17  H   UNL     1      -1.098  13.762  17.767  0.00  0.00    +0.000 HD
ENDBRANCH   1  11
BRANCH   1  18
ATOM     18  N   UNL     1       1.667   8.285  21.272  0.00  0.00    +0.000 NA
ATOM     19  H   UNL     1       2.437   8.071  21.904  0.00  0.00    +0.000 HD
BRANCH  18  20
ATOM     20  C   UNL     1       1.436   7.384  20.124  0.00  0.00    +0.000 C 
ATOM     21  C   UNL     1       1.581   5.937  20.595  0.00  0.00    +0.000 C 
ATOM     22  C   UNL     1       3.049   5.650  20.344  0.00  0.00    +0.000 C 
ATOM     23  N   UNL     1       3.331   6.277  19.043  0.00  0.00    +0.000 NA
ATOM     24  C   UNL     1       2.507   7.504  19.023  0.00  0.00    +0.000 C 
BRANCH  23  25
ATOM     25  C   UNL     1       3.026   5.367  17.929  0.00  0.00    +0.000 C 
BRANCH  25  26
ATOM     26  C   UNL     1       4.182   5.146  16.974  0.00  0.00    +0.000 A 
ATOM     27  C   UNL     1       4.888   6.228  16.428  0.00  0.00    +0.000 A 
ATOM     28  C   UNL     1       5.994   6.008  15.604  0.00  0.00    +0.000 A 
ATOM     29  C   UNL     1       6.405   4.707  15.318  0.00  0.00    +0.000 A 
ATOM     30  C   UNL     1       5.700   3.624  15.838  0.00  0.00    +0.000 A 
ATOM     31  C   UNL     1       4.593   3.842  16.659  0.00  0.00    +0.000 A 
ENDBRANCH  25  26
ENDBRANCH  23  25
ENDBRANCH  18  20
ENDBRANCH   1  18
TORSDOF 5
ENDMDL
