MODEL 1
REMARK VINA RESULT:      -7.9      0.000      0.000
REMARK  Name = 
REMARK  3 active torsions:
REMARK  status: ('A' for Active; 'I' for Inactive)
REMARK    1  A    between atoms: C_1  and  C_2
REMARK    2  A    between atoms: C_9  and  O_10
REMARK    3  A    between atoms: C_12  and  O_13
REMARK                            x       y       z     vdW  Elec       q    Type
REMARK                         _______ _______ _______ _____ _____    ______ ____
ROOT
ATOM      1  C   UNL     1       1.380   2.649  21.665  0.00  0.00    +0.000 C 
ATOM      2  C   UNL     1       1.967   2.921  20.312  0.00  0.00    +0.000 A 
ATOM      3  C   UNL     1       1.252   2.686  19.132  0.00  0.00    +0.000 A 
ATOM      4  C   UNL     1       1.832   2.951  17.884  0.00  0.00    +0.000 A 
ATOM      5  C   UNL     1       3.133   3.453  17.805  0.00  0.00    +0.000 A 
ATOM      6  O   UNL     1       3.640   3.687  16.551  0.00  0.00    +0.000 OA
ATOM      7  C   UNL     1       4.921   4.182  16.448  0.00  0.00    +0.000 A 
ATOM      8  C   UNL     1       5.383   4.401  15.144  0.00  0.00    +0.000 A 
ATOM      9  C   UNL     1       6.666   4.901  14.948  0.00  0.00    +0.000 A 
ATOM     10  C   UNL     1       7.497   5.185  16.025  0.00  0.00    +0.000 A 
ATOM     11  C   UNL     1       7.038   4.967  17.322  0.00  0.00    +0.000 A 
ATOM     12  C   UNL     1       5.748   4.464  17.542  0.00  0.00    +0.000 A 
ATOM     13  C   UNL     1       5.209   4.211  18.893  0.00  0.00    +0.000 A 
ATOM     14  O   UNL     1       5.834   4.415  19.924  0.00  0.00    +0.000 OA
ATOM     15  C   UNL     1       3.842   3.685  18.976  0.00  0.00    +0.000 A 
ATOM     16  C   UNL     1       3.269   3.423  20.225  0.00  0.00    +0.000 A 
ENDROOT
BRANCH   9  17
ATOM     17  O   UNL     1       7.161   5.132  13.698  0.00  0.00    +0.000 OA
ATOM     18  H   UNL     1       6.517   4.830  13.037  0.00  0.00    +0.000 HD
ENDBRANCH   9  17
BRANCH  11  19
ATOM     19  O   UNL     1       7.867   5.252  18.369  0.00  0.00    +0.000 OA
ATOM     20  H   UNL     1       8.201   4.433  18.770  0.00  0.00    +0.000 HD
ENDBRANCH  11  19
TORSDOF 2
ENDMDL
MODEL 2
REMARK VINA RESULT:      -7.4      1.768      6.248
REMARK  Name = 
REMARK  3 active torsions:
REMARK  status: ('A' for Active; 'I' for Inactive)
REMARK    1  A    between atoms: C_1  and  C_2
REMARK    2  A    between atoms: C_9  and  O_10
REMARK    3  A    between atoms: C_12  and  O_13
REMARK                            x       y       z     vdW  Elec       q    Type
REMARK                         _______ _______ _______ _____ _____    ______ ____
ROOT
ATOM      1  C   UNL     1       6.921   4.884  14.442  0.00  0.00    +0.000 C 
ATOM      2  C   UNL     1       6.358   4.648  15.812  0.00  0.00    +0.000 A 
ATOM      3  C   UNL     1       7.110   4.872  16.971  0.00  0.00    +0.000 A 
ATOM      4  C   UNL     1       6.553   4.640  18.236  0.00  0.00    +0.000 A 
ATOM      5  C   UNL     1       5.239   4.181  18.353  0.00  0.00    +0.000 A 
ATOM      6  O   UNL     1       4.758   3.973  19.621  0.00  0.00    +0.000 OA
ATOM      7  C   UNL     1       3.465   3.520  19.762  0.00  0.00    +0.000 A 
ATOM      8  C   UNL     1       3.030   3.327  21.079  0.00  0.00    +0.000 A 
ATOM      9  C   UNL     1       1.736   2.872  21.312  0.00  0.00    +0.000 A 
ATOM     10  C   UNL     1       0.869   2.607  20.259  0.00  0.00    +0.000 A 
ATOM     11  C   UNL     1       1.301   2.799  18.949  0.00  0.00    +0.000 A 
ATOM     12  C   UNL     1       2.601   3.256  18.692  0.00  0.00    +0.000 A 
ATOM     13  C   UNL     1       3.114   3.476  17.325  0.00  0.00    +0.000 A 
ATOM     14  O   UNL     1       2.459   3.279  16.312  0.00  0.00    +0.000 OA
ATOM     15  C   UNL     1       4.494   3.959  17.202  0.00  0.00    +0.000 A 
ATOM     16  C   UNL     1       5.044   4.189  15.936  0.00  0.00    +0.000 A 
ENDROOT
BRANCH   9  17
ATOM     17  O   UNL     1       1.266   2.669  22.576  0.00  0.00    +0.000 OA
ATOM     18  H   UNL     1       1.550   1.794  22.888  0.00  0.00    +0.000 HD
ENDBRANCH   9  17
BRANCH  11  19
ATOM     19  O   UNL     1       0.436   2.533  17.926  0.00  0.00    +0.000 OA
ATOM     20  H   UNL     1       0.069   1.639  18.015  0.00  0.00    +0.000 HD
ENDBRANCH  11  19
TORSDOF 2
ENDMDL
MODEL 3
REMARK VINA RESULT:      -7.2      3.584      3.767
REMARK  Name = 
REMARK  3 active torsions:
REMARK  status: ('A' for Active; 'I' for Inactive)
REMARK    1  A    between atoms: C_1  and  C_2
REMARK    2  A    between atoms: C_9  and  O_10
REMARK    3  A    between atoms: C_12  and  O_13
REMARK                            x       y       z     vdW  Elec       q    Type
REMARK                         _______ _______ _______ _____ _____    ______ ____
ROOT
ATOM      1  C   UNL     1       0.206   8.588  21.551  0.00  0.00    +0.000 C 
ATOM      2  C   UNL     1       1.099   8.365  20.366  0.00  0.00    +0.000 A 
ATOM      3  C   UNL     1       1.143   9.262  19.292  0.00  0.00    +0.000 A 
ATOM      4  C   UNL     1       1.988   9.022  18.200  0.00  0.00    +0.000 A 
ATOM      5  C   UNL     1       2.795   7.883  18.172  0.00  0.00    +0.000 A 
ATOM      6  O   UNL     1       3.597   7.709  17.071  0.00  0.00    +0.000 OA
ATOM      7  C   UNL     1       4.402   6.593  17.021  0.00  0.00    +0.000 A 
ATOM      8  C   UNL     1       5.197   6.470  15.875  0.00  0.00    +0.000 A 
ATOM      9  C   UNL     1       6.042   5.373  15.742  0.00  0.00    +0.000 A 
ATOM     10  C   UNL     1       6.108   4.396  16.729  0.00  0.00    +0.000 A 
ATOM     11  C   UNL     1       5.318   4.519  17.870  0.00  0.00    +0.000 A 
ATOM     12  C   UNL     1       4.460   5.616  18.023  0.00  0.00    +0.000 A 
ATOM     13  C   UNL     1       3.598   5.797  19.208  0.00  0.00    +0.000 A 
ATOM     14  O   UNL     1       3.557   5.013  20.145  0.00  0.00    +0.000 OA
ATOM     15  C   UNL     1       2.751   6.994  19.237  0.00  0.00    +0.000 A 
ATOM     16  C   UNL     1       1.909   7.227  20.331  0.00  0.00    +0.000 A 
ENDROOT
BRANCH   9  17
ATOM     17  O   UNL     1       6.835   5.209  14.645  0.00  0.00    +0.000 OA
ATOM     18  H   UNL     1       6.290   4.921  13.894  0.00  0.00    +0.000 HD
ENDBRANCH   9  17
BRANCH  11  19
ATOM     19  O   UNL     1       5.396   3.550  18.830  0.00  0.00    +0.000 OA
ATOM     20  H   UNL     1       5.226   3.928  19.708  0.00  0.00    +0.000 HD
ENDBRANCH  11  19
TORSDOF 2
ENDMDL
MODEL 4
REMARK VINA RESULT:      -6.9      2.461      5.680
REMARK  Name = 
REMARK  3 active torsions:
REMARK  status: ('A' for Active; 'I' for Inactive)
REMARK    1  A    between atoms: C_1  and  C_2
REMARK    2  A    between atoms: C_9  and  O_10
REMARK    3  A    between atoms: C_12  and  O_13
REMARK                            x       y       z     vdW  Elec       q    Type
REMARK                         _______ _______ _______ _____ _____    ______ ____
ROOT
ATOM      1  C   UNL     1       4.539   3.226  11.253  0.00  0.00    +0.000 C 
ATOM      2  C   UNL     1       5.342   3.657  12.444  0.00  0.00    +0.000 A 
ATOM      3  C   UNL     1       6.690   4.018  12.338  0.00  0.00    +0.000 A 
ATOM      4  C   UNL     1       7.411   4.415  13.473  0.00  0.00    +0.000 A 
ATOM      5  C   UNL     1       6.791   4.452  14.723  0.00  0.00    +0.000 A 
ATOM      6  O   UNL     1       7.557   4.848  15.791  0.00  0.00    +0.000 OA
ATOM      7  C   UNL     1       6.967   4.893  17.035  0.00  0.00    +0.000 A 
ATOM      8  C   UNL     1       7.797   5.303  18.085  0.00  0.00    +0.000 A 
ATOM      9  C   UNL     1       7.282   5.378  19.375  0.00  0.00    +0.000 A 
ATOM     10  C   UNL     1       5.957   5.052  19.638  0.00  0.00    +0.000 A 
ATOM     11  C   UNL     1       5.131   4.643  18.593  0.00  0.00    +0.000 A 
ATOM     12  C   UNL     1       5.630   4.560  17.286  0.00  0.00    +0.000 A 
ATOM     13  C   UNL     1       4.802   4.132  16.141  0.00  0.00    +0.000 A 
ATOM     14  O   UNL     1       3.625   3.815  16.233  0.00  0.00    +0.000 OA
ATOM     15  C   UNL     1       5.454   4.094  14.827  0.00  0.00    +0.000 A 
ATOM     16  C   UNL     1       4.727   3.697  13.699  0.00  0.00    +0.000 A 
ENDROOT
BRANCH   9  17
ATOM     17  O   UNL     1       8.050   5.773  20.431  0.00  0.00    +0.000 OA
ATOM     18  H   UNL     1       8.582   6.544  20.171  0.00  0.00    +0.000 HD
ENDBRANCH   9  17
BRANCH  11  19
ATOM     19  O   UNL     1       3.831   4.326  18.869  0.00  0.00    +0.000 OA
ATOM     20  H   UNL     1       3.781   3.477  19.337  0.00  0.00    +0.000 HD
ENDBRANCH  11  19
TORSDOF 2
ENDMDL
MODEL 5
REMARK VINA RESULT:      -6.8      4.291      4.892
REMARK  Name = 
REMARK  3 active torsions:
REMARK  status: ('A' for Active; 'I' for Inactive)
REMARK    1  A    between atoms: C_1  and  C_2
REMARK    2  A    between atoms: C_9  and  O_10
REMARK    3  A    between atoms: C_12  and  O_13
REMARK                            x       y       z     vdW  Elec       q    Type
REMARK                         _______ _______ _______ _____ _____    ______ ____
ROOT
ATOM      1  C   UNL     1      -0.122  10.488  20.655  0.00  0.00    +0.000 C 
ATOM      2  C   UNL     1       0.801   9.682  19.790  0.00  0.00    +0.000 A 
ATOM      3  C   UNL     1       1.349  10.196  18.609  0.00  0.00    +0.000 A 
ATOM      4  C   UNL     1       2.208   9.414  17.825  0.00  0.00    +0.000 A 
ATOM      5  C   UNL     1       2.525   8.111  18.214  0.00  0.00    +0.000 A 
ATOM      6  O   UNL     1       3.370   7.401  17.398  0.00  0.00    +0.000 OA
ATOM      7  C   UNL     1       3.698   6.114  17.761  0.00  0.00    +0.000 A 
ATOM      8  C   UNL     1       4.563   5.440  16.890  0.00  0.00    +0.000 A 
ATOM      9  C   UNL     1       4.947   4.135  17.182  0.00  0.00    +0.000 A 
ATOM     10  C   UNL     1       4.485   3.489  18.323  0.00  0.00    +0.000 A 
ATOM     11  C   UNL     1       3.624   4.160  19.189  0.00  0.00    +0.000 A 
ATOM     12  C   UNL     1       3.225   5.475  18.914  0.00  0.00    +0.000 A 
ATOM     13  C   UNL     1       2.314   6.233  19.794  0.00  0.00    +0.000 A 
ATOM     14  O   UNL     1       1.833   5.784  20.825  0.00  0.00    +0.000 OA
ATOM     15  C   UNL     1       1.981   7.602  19.386  0.00  0.00    +0.000 A 
ATOM     16  C   UNL     1       1.123   8.377  20.174  0.00  0.00    +0.000 A 
ENDROOT
BRANCH   9  17
ATOM     17  O   UNL     1       5.788   3.437  16.366  0.00  0.00    +0.000 OA
ATOM     18  H   UNL     1       5.322   3.209  15.544  0.00  0.00    +0.000 HD
ENDBRANCH   9  17
BRANCH  11  19
ATOM     19  O   UNL     1       3.180   3.511  20.305  0.00  0.00    +0.000 OA
ATOM     20  H   UNL     1       2.791   4.141  20.933  0.00  0.00    +0.000 HD
ENDBRANCH  11  19
TORSDOF 2
ENDMDL
MODEL 6
REMARK VINA RESULT:      -6.7      5.519      7.126
REMARK  Name = 
REMARK  3 active torsions:
REMARK  status: ('A' for Active; 'I' for Inactive)
REMARK    1  A    between atoms: C_1  and  C_2
REMARK    2  A    between atoms: C_9  and  O_10
REMARK    3  A    between atoms: C_12  and  O_13
REMARK                            x       y       z     vdW  Elec       q    Type
REMARK                         _______ _______ _______ _____ _____    ______ ____
ROOT
ATOM      1  C   UNL     1       4.249   3.946  17.052  0.00  0.00    +0.000 C 
ATOM      2  C   UNL     1       3.542   4.763  18.092  0.00  0.00    +0.000 A 
ATOM      3  C   UNL     1       3.240   4.250  19.359  0.00  0.00    +0.000 A 
ATOM      4  C   UNL     1       2.577   5.042  20.307  0.00  0.00    +0.000 A 
ATOM      5  C   UNL     1       2.209   6.353  19.996  0.00  0.00    +0.000 A 
ATOM      6  O   UNL     1       1.561   7.070  20.970  0.00  0.00    +0.000 OA
ATOM      7  C   UNL     1       1.188   8.365  20.687  0.00  0.00    +0.000 A 
ATOM      8  C   UNL     1       0.531   9.046  21.719  0.00  0.00    +0.000 A 
ATOM      9  C   UNL     1       0.120  10.361  21.518  0.00  0.00    +0.000 A 
ATOM     10  C   UNL     1       0.351  11.007  20.309  0.00  0.00    +0.000 A 
ATOM     11  C   UNL     1       1.005  10.329  19.283  0.00  0.00    +0.000 A 
ATOM     12  C   UNL     1       1.427   9.005  19.464  0.00  0.00    +0.000 A 
ATOM     13  C   UNL     1       2.121   8.237  18.411  0.00  0.00    +0.000 A 
ATOM     14  O   UNL     1       2.383   8.684  17.304  0.00  0.00    +0.000 OA
ATOM     15  C   UNL     1       2.508   6.861  18.739  0.00  0.00    +0.000 A 
ATOM     16  C   UNL     1       3.170   6.076  17.787  0.00  0.00    +0.000 A 
ENDROOT
BRANCH   9  17
ATOM     17  O   UNL     1      -0.522  11.066  22.492  0.00  0.00    +0.000 OA
ATOM     18  H   UNL     1      -0.875  10.450  23.156  0.00  0.00    +0.000 HD
ENDBRANCH   9  17
BRANCH  11  19
ATOM     19  O   UNL     1       1.223  10.979  18.101  0.00  0.00    +0.000 OA
ATOM     20  H   UNL     1       1.371  11.926  18.257  0.00  0.00    +0.000 HD
ENDBRANCH  11  19
TORSDOF 2
ENDMDL
MODEL 7
REMARK VINA RESULT:      -6.7      3.773      4.396
REMARK  Name = 
REMARK  3 active torsions:
REMARK  status: ('A' for Active; 'I' for Inactive)
REMARK    1  A    between atoms: C_1  and  C_2
REMARK    2  A    between atoms: C_9  and  O_10
REMARK    3  A    between atoms: C_12  and  O_13
REMARK                            x       y       z     vdW  Elec       q    Type
REMARK                         _______ _______ _______ _____ _____    ______ ____
ROOT
ATOM      1  C   UNL     1      -0.122   9.235  22.022  0.00  0.00    +0.000 C 
ATOM      2  C   UNL     1       0.731   8.658  20.931  0.00  0.00    +0.000 A 
ATOM      3  C   UNL     1       1.046   9.381  19.775  0.00  0.00    +0.000 A 
ATOM      4  C   UNL     1       1.845   8.810  18.775  0.00  0.00    +0.000 A 
ATOM      5  C   UNL     1       2.335   7.510  18.922  0.00  0.00    +0.000 A 
ATOM      6  O   UNL     1       3.110   7.013  17.904  0.00  0.00    +0.000 OA
ATOM      7  C   UNL     1       3.604   5.734  18.026  0.00  0.00    +0.000 A 
ATOM      8  C   UNL     1       4.387   5.282  16.957  0.00  0.00    +0.000 A 
ATOM      9  C   UNL     1       4.928   4.001  16.999  0.00  0.00    +0.000 A 
ATOM     10  C   UNL     1       4.704   3.163  18.085  0.00  0.00    +0.000 A 
ATOM     11  C   UNL     1       3.925   3.613  19.149  0.00  0.00    +0.000 A 
ATOM     12  C   UNL     1       3.370   4.900  19.127  0.00  0.00    +0.000 A 
ATOM     13  C   UNL     1       2.536   5.429  20.224  0.00  0.00    +0.000 A 
ATOM     14  O   UNL     1       2.259   4.797  21.233  0.00  0.00    +0.000 OA
ATOM     15  C   UNL     1       2.022   6.794  20.069  0.00  0.00    +0.000 A 
ATOM     16  C   UNL     1       1.225   7.357  21.072  0.00  0.00    +0.000 A 
ENDROOT
BRANCH   9  17
ATOM     17  O   UNL     1       5.697   3.515  15.983  0.00  0.00    +0.000 OA
ATOM     18  H   UNL     1       5.410   2.612  15.765  0.00  0.00    +0.000 HD
ENDBRANCH   9  17
BRANCH  11  19
ATOM     19  O   UNL     1       3.714   2.777  20.208  0.00  0.00    +0.000 OA
ATOM     20  H   UNL     1       4.534   2.656  20.714  0.00  0.00    +0.000 HD
ENDBRANCH  11  19
TORSDOF 2
ENDMDL
MODEL 8
REMARK VINA RESULT:      -6.7      2.174      5.655
REMARK  Name = 
REMARK  3 active torsions:
REMARK  status: ('A' for Active; 'I' for Inactive)
REMARK    1  A    between atoms: C_1  and  C_2
REMARK    2  A    between atoms: C_9  and  O_10
REMARK    3  A    between atoms: C_12  and  O_13
REMARK                            x       y       z     vdW  Elec       q    Type
REMARK                         _______ _______ _______ _____ _____    ______ ____
ROOT
ATOM      1  C   UNL     1       7.851   7.809  17.306  0.00  0.00    +0.000 C 
ATOM      2  C   UNL     1       6.887   6.661  17.253  0.00  0.00    +0.000 A 
ATOM      3  C   UNL     1       7.058   5.589  16.370  0.00  0.00    +0.000 A 
ATOM      4  C   UNL     1       6.137   4.533  16.347  0.00  0.00    +0.000 A 
ATOM      5  C   UNL     1       5.036   4.540  17.206  0.00  0.00    +0.000 A 
ATOM      6  O   UNL     1       4.173   3.476  17.129  0.00  0.00    +0.000 OA
ATOM      7  C   UNL     1       3.080   3.461  17.966  0.00  0.00    +0.000 A 
ATOM      8  C   UNL     1       2.236   2.350  17.842  0.00  0.00    +0.000 A 
ATOM      9  C   UNL     1       1.108   2.254  18.651  0.00  0.00    +0.000 A 
ATOM     10  C   UNL     1       0.806   3.243  19.580  0.00  0.00    +0.000 A 
ATOM     11  C   UNL     1       1.645   4.347  19.704  0.00  0.00    +0.000 A 
ATOM     12  C   UNL     1       2.786   4.464  18.898  0.00  0.00    +0.000 A 
ATOM     13  C   UNL     1       3.710   5.613  18.984  0.00  0.00    +0.000 A 
ATOM     14  O   UNL     1       3.560   6.550  19.754  0.00  0.00    +0.000 OA
ATOM     15  C   UNL     1       4.867   5.604  18.082  0.00  0.00    +0.000 A 
ATOM     16  C   UNL     1       5.783   6.662  18.111  0.00  0.00    +0.000 A 
ENDROOT
BRANCH   9  17
ATOM     17  O   UNL     1       0.257   1.192  18.568  0.00  0.00    +0.000 OA
ATOM     18  H   UNL     1      -0.642   1.482  18.797  0.00  0.00    +0.000 HD
ENDBRANCH   9  17
BRANCH  11  19
ATOM     19  O   UNL     1       1.334   5.309  20.622  0.00  0.00    +0.000 OA
ATOM     20  H   UNL     1       1.201   4.913  21.498  0.00  0.00    +0.000 HD
ENDBRANCH  11  19
TORSDOF 2
ENDMDL
MODEL 9
REMARK VINA RESULT:      -6.6      2.435      5.826
REMARK  Name = 
REMARK  3 active torsions:
REMARK  status: ('A' for Active; 'I' for Inactive)
REMARK    1  A    between atoms: C_1  and  C_2
REMARK    2  A    between atoms: C_9  and  O_10
REMARK    3  A    between atoms: C_12  and  O_13
REMARK                            x       y       z     vdW  Elec       q    Type
REMARK                         _______ _______ _______ _____ _____    ______ ____
ROOT
ATOM      1  C   UNL     1       8.148   8.748  17.617  0.00  0.00    +0.000 C 
ATOM      2  C   UNL     1       7.479   7.460  17.996  0.00  0.00    +0.000 A 
ATOM      3  C   UNL     1       8.176   6.417  18.617  0.00  0.00    +0.000 A 
ATOM      4  C   UNL     1       7.519   5.226  18.956  0.00  0.00    +0.000 A 
ATOM      5  C   UNL     1       6.160   5.068  18.678  0.00  0.00    +0.000 A 
ATOM      6  O   UNL     1       5.581   3.876  19.035  0.00  0.00    +0.000 OA
ATOM      7  C   UNL     1       4.241   3.697  18.770  0.00  0.00    +0.000 A 
ATOM      8  C   UNL     1       3.707   2.462  19.158  0.00  0.00    +0.000 A 
ATOM      9  C   UNL     1       2.360   2.197  18.929  0.00  0.00    +0.000 A 
ATOM     10  C   UNL     1       1.538   3.138  18.321  0.00  0.00    +0.000 A 
ATOM     11  C   UNL     1       2.070   4.367  17.936  0.00  0.00    +0.000 A 
ATOM     12  C   UNL     1       3.424   4.654  18.157  0.00  0.00    +0.000 A 
ATOM     13  C   UNL     1       4.042   5.937  17.768  0.00  0.00    +0.000 A 
ATOM     14  O   UNL     1       3.434   6.848  17.224  0.00  0.00    +0.000 OA
ATOM     15  C   UNL     1       5.469   6.103  18.062  0.00  0.00    +0.000 A 
ATOM     16  C   UNL     1       6.119   7.295  17.720  0.00  0.00    +0.000 A 
ENDROOT
BRANCH   9  17
ATOM     17  O   UNL     1       1.793   1.010  19.289  0.00  0.00    +0.000 OA
ATOM     18  H   UNL     1       0.957   0.895  18.807  0.00  0.00    +0.000 HD
ENDBRANCH   9  17
BRANCH  11  19
ATOM     19  O   UNL     1       1.248   5.280  17.340  0.00  0.00    +0.000 OA
ATOM     20  H   UNL     1       0.659   4.843  16.703  0.00  0.00    +0.000 HD
ENDBRANCH  11  19
TORSDOF 2
ENDMDL
