MODEL 1
REMARK VINA RESULT:      -8.0      0.000      0.000
REMARK  Name = 
REMARK  8 active torsions:
REMARK  status: ('A' for Active; 'I' for Inactive)
REMARK    1  A    between atoms: C_1  and  C_2
REMARK    2  A    between atoms: N_4  and  C_5
REMARK    3  A    between atoms: C_8  and  C_9
REMARK    4  A    between atoms: C_9  and  N_10
REMARK    5  A    between atoms: C_14  and  C_15
REMARK    6  A    between atoms: C_15  and  N_16
REMARK    7  A    between atoms: C_18  and  C_19
REMARK    8  A    between atoms: C_21  and  C_22
REMARK                            x       y       z     vdW  Elec       q    Type
REMARK                         _______ _______ _______ _____ _____    ______ ____
ROOT
ATOM      1  N   UNL     1       2.598   4.594  18.518  0.00  0.00    +0.000 NA
ATOM      2  C   UNL     1       1.269   3.970  18.375  0.00  0.00    +0.000 C 
ATOM      3  C   UNL     1       1.282   2.733  19.243  0.00  0.00    +0.000 C 
ATOM      4  C   UNL     1       2.704   2.234  19.121  0.00  0.00    +0.000 C 
ATOM      5  C   UNL     1       3.550   3.460  18.747  0.00  0.00    +0.000 C 
ENDROOT
BRANCH   1   6
ATOM      6  C   UNL     1       2.668   5.549  19.651  0.00  0.00    +0.000 C 
BRANCH   6  14
ATOM      7  C   UNL     1       1.215   9.103  22.351  0.00  0.00    +0.000 C 
ATOM      8  C   UNL     1       0.358   9.939  21.430  0.00  0.00    +0.000 C 
ATOM      9  O   UNL     1      -0.512  10.664  21.925  0.00  0.00    +0.000 OA
ATOM     10  N   UNL     1       0.600   9.919  20.048  0.00  0.00    +0.000 N 
ATOM     11  C   UNL     1      -0.208  10.792  19.203  0.00  0.00    +0.000 C 
ATOM     12  C   UNL     1       1.419   8.929  19.505  0.00  0.00    +0.000 A 
ATOM     13  N   UNL     1       1.735   7.795  20.079  0.00  0.00    +0.000 NA
ATOM     14  C   UNL     1       2.408   6.960  19.202  0.00  0.00    +0.000 A 
ATOM     15  C   UNL     1       2.726   7.553  17.995  0.00  0.00    +0.000 A 
ATOM     16  S   UNL     1       2.044   9.127  17.920  0.00  0.00    +0.000 S 
ENDBRANCH   6  14
ENDBRANCH   1   6
BRANCH   5  17
ATOM     17  C   UNL     1       4.399   3.200  17.488  0.00  0.00    +0.000 C 
BRANCH  17  18
ATOM     18  N   UNL     1       5.551   4.083  17.378  0.00  0.00    +0.000 N 
ATOM     19  N   UNL     1       6.191   4.451  18.507  0.00  0.00    +0.000 NA
ATOM     20  C   UNL     1       7.110   5.332  18.098  0.00  0.00    +0.000 A 
ATOM     21  C   UNL     1       7.989   6.017  19.074  0.00  0.00    +0.000 C 
ATOM     22  C   UNL     1       7.084   5.495  16.697  0.00  0.00    +0.000 A 
ATOM     23  C   UNL     1       6.079   4.665  16.249  0.00  0.00    +0.000 A 
ATOM     24  C   UNL     1       5.591   4.420  14.870  0.00  0.00    +0.000 C 
ENDBRANCH  17  18
ENDBRANCH   5  17
TORSDOF 4
ENDMDL
MODEL 2
REMARK VINA RESULT:      -7.5      0.980      1.038
REMARK  Name = 
REMARK  8 active torsions:
REMARK  status: ('A' for Active; 'I' for Inactive)
REMARK    1  A    between atoms: C_1  and  C_2
REMARK    2  A    between atoms: N_4  and  C_5
REMARK    3  A    between atoms: C_8  and  C_9
REMARK    4  A    between atoms: C_9  and  N_10
REMARK    5  A    between atoms: C_14  and  C_15
REMARK    6  A    between atoms: C_15  and  N_16
REMARK    7  A    between atoms: C_18  and  C_19
REMARK    8  A    between atoms: C_21  and  C_22
REMARK                            x       y       z     vdW  Elec       q    Type
REMARK                         _______ _______ _______ _____ _____    ______ ____
ROOT
ATOM      1  N   UNL     1       2.642   4.663  19.505  0.00  0.00    +0.000 NA
ATOM      2  C   UNL     1       1.308   4.145  19.147  0.00  0.00    +0.000 C 
ATOM      3  C   UNL     1       0.937   3.145  20.217  0.00  0.00    +0.000 C 
ATOM      4  C   UNL     1       2.260   2.506  20.575  0.00  0.00    +0.000 C 
ATOM      5  C   UNL     1       3.339   3.532  20.197  0.00  0.00    +0.000 C 
ENDROOT
BRANCH   1   6
ATOM      6  C   UNL     1       2.581   5.843  20.401  0.00  0.00    +0.000 C 
BRANCH   6  14
ATOM      7  C   UNL     1       0.730   9.805  22.108  0.00  0.00    +0.000 C 
ATOM      8  C   UNL     1      -0.051  10.377  20.947  0.00  0.00    +0.000 C 
ATOM      9  O   UNL     1      -0.992  11.140  21.186  0.00  0.00    +0.000 OA
ATOM     10  N   UNL     1       0.339  10.075  19.633  0.00  0.00    +0.000 N 
ATOM     11  C   UNL     1      -0.402  10.703  18.544  0.00  0.00    +0.000 C 
ATOM     12  C   UNL     1       1.243   9.039  19.402  0.00  0.00    +0.000 A 
ATOM     13  N   UNL     1       1.534   8.073  20.237  0.00  0.00    +0.000 NA
ATOM     14  C   UNL     1       2.324   7.110  19.633  0.00  0.00    +0.000 A 
ATOM     15  C   UNL     1       2.749   7.448  18.363  0.00  0.00    +0.000 A 
ATOM     16  S   UNL     1       2.028   8.930  17.880  0.00  0.00    +0.000 S 
ENDBRANCH   6  14
ENDBRANCH   1   6
BRANCH   5  17
ATOM     17  C   UNL     1       4.414   2.914  19.282  0.00  0.00    +0.000 C 
BRANCH  17  18
ATOM     18  N   UNL     1       5.249   3.907  18.623  0.00  0.00    +0.000 N 
ATOM     19  N   UNL     1       6.255   4.470  19.324  0.00  0.00    +0.000 NA
ATOM     20  C   UNL     1       6.753   5.401  18.504  0.00  0.00    +0.000 A 
ATOM     21  C   UNL     1       7.855   6.288  18.944  0.00  0.00    +0.000 C 
ATOM     22  C   UNL     1       6.089   5.404  17.259  0.00  0.00    +0.000 A 
ATOM     23  C   UNL     1       5.130   4.418  17.352  0.00  0.00    +0.000 A 
ATOM     24  C   UNL     1       4.129   3.966  16.354  0.00  0.00    +0.000 C 
ENDBRANCH  17  18
ENDBRANCH   5  17
TORSDOF 4
ENDMDL
MODEL 3
REMARK VINA RESULT:      -7.3      0.814      1.807
REMARK  Name = 
REMARK  8 active torsions:
REMARK  status: ('A' for Active; 'I' for Inactive)
REMARK    1  A    between atoms: C_1  and  C_2
REMARK    2  A    between atoms: N_4  and  C_5
REMARK    3  A    between atoms: C_8  and  C_9
REMARK    4  A    between atoms: C_9  and  N_10
REMARK    5  A    between atoms: C_14  and  C_15
REMARK    6  A    between atoms: C_15  and  N_16
REMARK    7  A    between atoms: C_18  and  C_19
REMARK    8  A    between atoms: C_21  and  C_22
REMARK                            x       y       z     vdW  Elec       q    Type
REMARK                         _______ _______ _______ _____ _____    ______ ____
ROOT
ATOM      1  N   UNL     1       2.744   4.602  19.019  0.00  0.00    +0.000 NA
ATOM      2  C   UNL     1       1.538   4.172  18.285  0.00  0.00    +0.000 C 
ATOM      3  C   UNL     1       0.941   3.030  19.075  0.00  0.00    +0.000 C 
ATOM      4  C   UNL     1       2.153   2.316  19.630  0.00  0.00    +0.000 C 
ATOM      5  C   UNL     1       3.276   3.364  19.675  0.00  0.00    +0.000 C 
ENDROOT
BRANCH   1   6
ATOM      6  C   UNL     1       2.458   5.634  20.044  0.00  0.00    +0.000 C 
BRANCH   6  14
ATOM      7  C   UNL     1       0.869   9.489  22.199  0.00  0.00    +0.000 C 
ATOM      8  C   UNL     1       0.140  10.245  21.113  0.00  0.00    +0.000 C 
ATOM      9  O   UNL     1      -0.748  11.040  21.438  0.00  0.00    +0.000 OA
ATOM     10  N   UNL     1       0.521  10.072  19.773  0.00  0.00    +0.000 N 
ATOM     11  C   UNL     1      -0.166  10.872  18.764  0.00  0.00    +0.000 C 
ATOM     12  C   UNL     1       1.353   9.010  19.423  0.00  0.00    +0.000 A 
ATOM     13  N   UNL     1       1.569   7.935  20.140  0.00  0.00    +0.000 NA
ATOM     14  C   UNL     1       2.296   6.996  19.429  0.00  0.00    +0.000 A 
ATOM     15  C   UNL     1       2.755   7.450  18.207  0.00  0.00    +0.000 A 
ATOM     16  S   UNL     1       2.143   9.024  17.900  0.00  0.00    +0.000 S 
ENDBRANCH   6  14
ENDBRANCH   1   6
BRANCH   5  17
ATOM     17  C   UNL     1       4.543   2.867  18.953  0.00  0.00    +0.000 C 
BRANCH  17  18
ATOM     18  N   UNL     1       5.028   3.792  17.939  0.00  0.00    +0.000 N 
ATOM     19  N   UNL     1       4.727   3.547  16.648  0.00  0.00    +0.000 NA
ATOM     20  C   UNL     1       5.394   4.485  15.966  0.00  0.00    +0.000 A 
ATOM     21  C   UNL     1       5.362   4.511  14.485  0.00  0.00    +0.000 C 
ATOM     22  C   UNL     1       6.090   5.357  16.829  0.00  0.00    +0.000 A 
ATOM     23  C   UNL     1       5.827   4.900  18.103  0.00  0.00    +0.000 A 
ATOM     24  C   UNL     1       6.289   5.417  19.414  0.00  0.00    +0.000 C 
ENDBRANCH  17  18
ENDBRANCH   5  17
TORSDOF 4
ENDMDL
MODEL 4
REMARK VINA RESULT:      -7.2      2.926      8.096
REMARK  Name = 
REMARK  8 active torsions:
REMARK  status: ('A' for Active; 'I' for Inactive)
REMARK    1  A    between atoms: C_1  and  C_2
REMARK    2  A    between atoms: N_4  and  C_5
REMARK    3  A    between atoms: C_8  and  C_9
REMARK    4  A    between atoms: C_9  and  N_10
REMARK    5  A    between atoms: C_14  and  C_15
REMARK    6  A    between atoms: C_15  and  N_16
REMARK    7  A    between atoms: C_18  and  C_19
REMARK    8  A    between atoms: C_21  and  C_22
REMARK                            x       y       z     vdW  Elec       q    Type
REMARK                         _______ _______ _______ _____ _____    ______ ____
ROOT
ATOM      1  N   UNL     1       1.222   8.885  21.045  0.00  0.00    +0.000 NA
ATOM      2  C   UNL     1       1.531   9.353  22.410  0.00  0.00    +0.000 C 
ATOM      3  C   UNL     1       0.206   9.485  23.126  0.00  0.00    +0.000 C 
ATOM      4  C   UNL     1      -0.738   9.944  22.037  0.00  0.00    +0.000 C 
ATOM      5  C   UNL     1      -0.118   9.469  20.715  0.00  0.00    +0.000 C 
ENDROOT
BRANCH   1   6
ATOM      6  C   UNL     1       1.168   7.407  20.941  0.00  0.00    +0.000 C 
BRANCH   6  14
ATOM      7  C   UNL     1       2.700   2.997  20.450  0.00  0.00    +0.000 C 
ATOM      8  C   UNL     1       4.083   3.150  19.861  0.00  0.00    +0.000 C 
ATOM      9  O   UNL     1       4.904   2.243  20.032  0.00  0.00    +0.000 OA
ATOM     10  N   UNL     1       4.387   4.284  19.093  0.00  0.00    +0.000 N 
ATOM     11  C   UNL     1       5.713   4.359  18.488  0.00  0.00    +0.000 C 
ATOM     12  C   UNL     1       3.530   5.384  19.115  0.00  0.00    +0.000 A 
ATOM     13  N   UNL     1       2.628   5.636  20.030  0.00  0.00    +0.000 NA
ATOM     14  C   UNL     1       2.078   6.895  19.858  0.00  0.00    +0.000 A 
ATOM     15  C   UNL     1       2.478   7.529  18.698  0.00  0.00    +0.000 A 
ATOM     16  S   UNL     1       3.666   6.583  17.896  0.00  0.00    +0.000 S 
ENDBRANCH   6  14
ENDBRANCH   1   6
BRANCH   5  17
ATOM     17  C   UNL     1       0.027  10.627  19.709  0.00  0.00    +0.000 C 
BRANCH  17  18
ATOM     18  N   UNL     1      -1.129  10.782  18.838  0.00  0.00    +0.000 N 
ATOM     19  N   UNL     1      -1.210  10.014  17.732  0.00  0.00    +0.000 NA
ATOM     20  C   UNL     1      -2.298  10.459  17.095  0.00  0.00    +0.000 A 
ATOM     21  C   UNL     1      -2.694   9.894  15.785  0.00  0.00    +0.000 C 
ATOM     22  C   UNL     1      -2.937  11.488  17.819  0.00  0.00    +0.000 A 
ATOM     23  C   UNL     1      -2.173  11.670  18.952  0.00  0.00    +0.000 A 
ATOM     24  C   UNL     1      -2.353  12.616  20.080  0.00  0.00    +0.000 C 
ENDBRANCH  17  18
ENDBRANCH   5  17
TORSDOF 4
ENDMDL
MODEL 5
REMARK VINA RESULT:      -7.2      1.073      1.985
REMARK  Name = 
REMARK  8 active torsions:
REMARK  status: ('A' for Active; 'I' for Inactive)
REMARK    1  A    between atoms: C_1  and  C_2
REMARK    2  A    between atoms: N_4  and  C_5
REMARK    3  A    between atoms: C_8  and  C_9
REMARK    4  A    between atoms: C_9  and  N_10
REMARK    5  A    between atoms: C_14  and  C_15
REMARK    6  A    between atoms: C_15  and  N_16
REMARK    7  A    between atoms: C_18  and  C_19
REMARK    8  A    between atoms: C_21  and  C_22
REMARK                            x       y       z     vdW  Elec       q    Type
REMARK                         _______ _______ _______ _____ _____    ______ ____
ROOT
ATOM      1  N   UNL     1       3.501   5.099  18.440  0.00  0.00    +0.000 NA
ATOM      2  C   UNL     1       2.584   4.359  17.552  0.00  0.00    +0.000 C 
ATOM      3  C   UNL     1       2.426   2.981  18.154  0.00  0.00    +0.000 C 
ATOM      4  C   UNL     1       3.789   2.697  18.744  0.00  0.00    +0.000 C 
ATOM      5  C   UNL     1       4.428   4.068  19.008  0.00  0.00    +0.000 C 
ENDROOT
BRANCH   1   6
ATOM      6  C   UNL     1       2.796   5.804  19.537  0.00  0.00    +0.000 C 
BRANCH   6  14
ATOM      7  C   UNL     1       1.141   9.145  22.390  0.00  0.00    +0.000 C 
ATOM      8  C   UNL     1       0.204   9.945  21.515  0.00  0.00    +0.000 C 
ATOM      9  O   UNL     1      -0.707  10.585  22.053  0.00  0.00    +0.000 OA
ATOM     10  N   UNL     1       0.417   9.990  20.129  0.00  0.00    +0.000 N 
ATOM     11  C   UNL     1      -0.472  10.829  19.332  0.00  0.00    +0.000 C 
ATOM     12  C   UNL     1       1.295   9.084  19.536  0.00  0.00    +0.000 A 
ATOM     13  N   UNL     1       1.708   7.958  20.063  0.00  0.00    +0.000 NA
ATOM     14  C   UNL     1       2.421   7.207  19.144  0.00  0.00    +0.000 A 
ATOM     15  C   UNL     1       2.668   7.862  17.953  0.00  0.00    +0.000 A 
ATOM     16  S   UNL     1       1.869   9.382  17.948  0.00  0.00    +0.000 S 
ENDBRANCH   6  14
ENDBRANCH   1   6
BRANCH   5  17
ATOM     17  C   UNL     1       5.823   4.177  18.363  0.00  0.00    +0.000 C 
BRANCH  17  18
ATOM     18  N   UNL     1       5.785   4.626  16.979  0.00  0.00    +0.000 N 
ATOM     19  N   UNL     1       5.589   3.709  16.010  0.00  0.00    +0.000 NA
ATOM     20  C   UNL     1       5.716   4.395  14.870  0.00  0.00    +0.000 A 
ATOM     21  C   UNL     1       5.625   3.711  13.559  0.00  0.00    +0.000 C 
ATOM     22  C   UNL     1       5.954   5.765  15.113  0.00  0.00    +0.000 A 
ATOM     23  C   UNL     1       5.978   5.895  16.485  0.00  0.00    +0.000 A 
ATOM     24  C   UNL     1       6.189   7.101  17.323  0.00  0.00    +0.000 C 
ENDBRANCH  17  18
ENDBRANCH   5  17
TORSDOF 4
ENDMDL
MODEL 6
REMARK VINA RESULT:      -7.0      1.554      2.586
REMARK  Name = 
REMARK  8 active torsions:
REMARK  status: ('A' for Active; 'I' for Inactive)
REMARK    1  A    between atoms: C_1  and  C_2
REMARK    2  A    between atoms: N_4  and  C_5
REMARK    3  A    between atoms: C_8  and  C_9
REMARK    4  A    between atoms: C_9  and  N_10
REMARK    5  A    between atoms: C_14  and  C_15
REMARK    6  A    between atoms: C_15  and  N_16
REMARK    7  A    between atoms: C_18  and  C_19
REMARK    8  A    between atoms: C_21  and  C_22
REMARK                            x       y       z     vdW  Elec       q    Type
REMARK                         _______ _______ _______ _____ _____    ______ ____
ROOT
ATOM      1  N   UNL     1       2.602   6.448  18.357  0.00  0.00    +0.000 NA
ATOM      2  C   UNL     1       2.071   5.126  17.974  0.00  0.00    +0.000 C 
ATOM      3  C   UNL     1       3.015   4.101  18.559  0.00  0.00    +0.000 C 
ATOM      4  C   UNL     1       4.368   4.769  18.455  0.00  0.00    +0.000 C 
ATOM      5  C   UNL     1       4.089   6.280  18.420  0.00  0.00    +0.000 C 
ENDROOT
BRANCH   1   6
ATOM      6  C   UNL     1       2.091   6.918  19.667  0.00  0.00    +0.000 C 
BRANCH   6  14
ATOM      7  C   UNL     1       0.374   9.451  23.227  0.00  0.00    +0.000 C 
ATOM      8  C   UNL     1      -0.616  10.386  22.570  0.00  0.00    +0.000 C 
ATOM      9  O   UNL     1      -1.538  10.846  23.252  0.00  0.00    +0.000 OA
ATOM     10  N   UNL     1      -0.438  10.752  21.227  0.00  0.00    +0.000 N 
ATOM     11  C   UNL     1      -1.379  11.709  20.654  0.00  0.00    +0.000 C 
ATOM     12  C   UNL     1       0.461  10.043  20.431  0.00  0.00    +0.000 A 
ATOM     13  N   UNL     1       0.931   8.846  20.683  0.00  0.00    +0.000 NA
ATOM     14  C   UNL     1       1.652   8.355  19.608  0.00  0.00    +0.000 A 
ATOM     15  C   UNL     1       1.842   9.273  18.593  0.00  0.00    +0.000 A 
ATOM     16  S   UNL     1       0.984  10.718  18.944  0.00  0.00    +0.000 S 
ENDBRANCH   6  14
ENDBRANCH   1   6
BRANCH   5  17
ATOM     17  C   UNL     1       4.765   6.953  17.210  0.00  0.00    +0.000 C 
BRANCH  17  18
ATOM     18  N   UNL     1       5.693   6.079  16.508  0.00  0.00    +0.000 N 
ATOM     19  N   UNL     1       5.294   5.513  15.350  0.00  0.00    +0.000 NA
ATOM     20  C   UNL     1       6.297   4.695  15.015  0.00  0.00    +0.000 A 
ATOM     21  C   UNL     1       6.205   3.838  13.810  0.00  0.00    +0.000 C 
ATOM     22  C   UNL     1       7.358   4.769  15.942  0.00  0.00    +0.000 A 
ATOM     23  C   UNL     1       6.953   5.683  16.891  0.00  0.00    +0.000 A 
ATOM     24  C   UNL     1       7.653   6.166  18.107  0.00  0.00    +0.000 C 
ENDBRANCH  17  18
ENDBRANCH   5  17
TORSDOF 4
ENDMDL
MODEL 7
REMARK VINA RESULT:      -6.7      2.847      4.992
REMARK  Name = 
REMARK  8 active torsions:
REMARK  status: ('A' for Active; 'I' for Inactive)
REMARK    1  A    between atoms: C_1  and  C_2
REMARK    2  A    between atoms: N_4  and  C_5
REMARK    3  A    between atoms: C_8  and  C_9
REMARK    4  A    between atoms: C_9  and  N_10
REMARK    5  A    between atoms: C_14  and  C_15
REMARK    6  A    between atoms: C_15  and  N_16
REMARK    7  A    between atoms: C_18  and  C_19
REMARK    8  A    between atoms: C_21  and  C_22
REMARK                            x       y       z     vdW  Elec       q    Type
REMARK                         _______ _______ _______ _____ _____    ______ ____
ROOT
ATOM      1  N   UNL     1       5.167   4.461  15.762  0.00  0.00    +0.000 NA
ATOM      2  C   UNL     1       5.208   4.283  14.298  0.00  0.00    +0.000 C 
ATOM      3  C   UNL     1       6.669   4.208  13.918  0.00  0.00    +0.000 C 
ATOM      4  C   UNL     1       7.334   5.158  14.888  0.00  0.00    +0.000 C 
ATOM      5  C   UNL     1       6.401   5.237  16.106  0.00  0.00    +0.000 C 
ENDROOT
BRANCH   1   6
ATOM      6  C   UNL     1       5.157   3.174  16.499  0.00  0.00    +0.000 C 
BRANCH   6  14
ATOM      7  C   UNL     1       2.630   6.808  18.064  0.00  0.00    +0.000 C 
ATOM      8  C   UNL     1       2.297   6.438  19.491  0.00  0.00    +0.000 C 
ATOM      9  O   UNL     1       2.047   7.342  20.295  0.00  0.00    +0.000 OA
ATOM     10  N   UNL     1       2.225   5.085  19.858  0.00  0.00    +0.000 N 
ATOM     11  C   UNL     1       1.834   4.773  21.229  0.00  0.00    +0.000 C 
ATOM     12  C   UNL     1       2.734   4.110  19.002  0.00  0.00    +0.000 A 
ATOM     13  N   UNL     1       3.587   4.312  18.028  0.00  0.00    +0.000 NA
ATOM     14  C   UNL     1       4.031   3.114  17.494  0.00  0.00    +0.000 A 
ATOM     15  C   UNL     1       3.377   2.002  17.988  0.00  0.00    +0.000 A 
ATOM     16  S   UNL     1       2.295   2.468  19.237  0.00  0.00    +0.000 S 
ENDBRANCH   6  14
ENDBRANCH   1   6
BRANCH   5  17
ATOM     17  C   UNL     1       6.047   6.695  16.456  0.00  0.00    +0.000 C 
BRANCH  17  18
ATOM     18  N   UNL     1       6.999   7.317  17.364  0.00  0.00    +0.000 N 
ATOM     19  N   UNL     1       7.274   8.628  17.212  0.00  0.00    +0.000 NA
ATOM     20  C   UNL     1       8.245   8.872  18.098  0.00  0.00    +0.000 A 
ATOM     21  C   UNL     1       8.864  10.215  18.193  0.00  0.00    +0.000 C 
ATOM     22  C   UNL     1       8.563   7.720  18.848  0.00  0.00    +0.000 A 
ATOM     23  C   UNL     1       7.734   6.729  18.368  0.00  0.00    +0.000 A 
ATOM     24  C   UNL     1       7.617   5.306  18.773  0.00  0.00    +0.000 C 
ENDBRANCH  17  18
ENDBRANCH   5  17
TORSDOF 4
ENDMDL
MODEL 8
REMARK VINA RESULT:      -6.7      1.587      2.025
REMARK  Name = 
REMARK  8 active torsions:
REMARK  status: ('A' for Active; 'I' for Inactive)
REMARK    1  A    between atoms: C_1  and  C_2
REMARK    2  A    between atoms: N_4  and  C_5
REMARK    3  A    between atoms: C_8  and  C_9
REMARK    4  A    between atoms: C_9  and  N_10
REMARK    5  A    between atoms: C_14  and  C_15
REMARK    6  A    between atoms: C_15  and  N_16
REMARK    7  A    between atoms: C_18  and  C_19
REMARK    8  A    between atoms: C_21  and  C_22
REMARK                            x       y       z     vdW  Elec       q    Type
REMARK                         _______ _______ _______ _____ _____    ______ ____
ROOT
ATOM      1  N   UNL     1       2.425   5.005  19.913  0.00  0.00    +0.000 NA
ATOM      2  C   UNL     1       1.259   4.264  19.395  0.00  0.00    +0.000 C 
ATOM      3  C   UNL     1       0.905   3.236  20.445  0.00  0.00    +0.000 C 
ATOM      4  C   UNL     1       2.248   2.835  21.011  0.00  0.00    +0.000 C 
ATOM      5  C   UNL     1       3.189   4.019  20.743  0.00  0.00    +0.000 C 
ENDROOT
BRANCH   1   6
ATOM      6  C   UNL     1       2.045   6.175  20.739  0.00  0.00    +0.000 C 
BRANCH   6  14
ATOM      7  C   UNL     1       0.211  10.265  22.134  0.00  0.00    +0.000 C 
ATOM      8  C   UNL     1      -0.439  10.821  20.889  0.00  0.00    +0.000 C 
ATOM      9  O   UNL     1      -1.365  11.628  21.014  0.00  0.00    +0.000 OA
ATOM     10  N   UNL     1       0.055  10.456  19.627  0.00  0.00    +0.000 N 
ATOM     11  C   UNL     1      -0.560  11.069  18.454  0.00  0.00    +0.000 C 
ATOM     12  C   UNL     1       0.933   9.379  19.514  0.00  0.00    +0.000 A 
ATOM     13  N   UNL     1       1.108   8.435  20.405  0.00  0.00    +0.000 NA
ATOM     14  C   UNL     1       1.909   7.420  19.908  0.00  0.00    +0.000 A 
ATOM     15  C   UNL     1       2.460   7.694  18.671  0.00  0.00    +0.000 A 
ATOM     16  S   UNL     1       1.846   9.183  18.075  0.00  0.00    +0.000 S 
ENDBRANCH   6  14
ENDBRANCH   1   6
BRANCH   5  17
ATOM     17  C   UNL     1       4.471   3.571  20.015  0.00  0.00    +0.000 C 
BRANCH  17  18
ATOM     18  N   UNL     1       4.493   3.942  18.607  0.00  0.00    +0.000 N 
ATOM     19  N   UNL     1       4.987   5.150  18.267  0.00  0.00    +0.000 NA
ATOM     20  C   UNL     1       4.770   5.242  16.951  0.00  0.00    +0.000 A 
ATOM     21  C   UNL     1       5.129   6.472  16.208  0.00  0.00    +0.000 C 
ATOM     22  C   UNL     1       4.172   4.069  16.442  0.00  0.00    +0.000 A 
ATOM     23  C   UNL     1       4.016   3.235  17.528  0.00  0.00    +0.000 A 
ATOM     24  C   UNL     1       3.442   1.869  17.605  0.00  0.00    +0.000 C 
ENDBRANCH  17  18
ENDBRANCH   5  17
TORSDOF 4
ENDMDL
MODEL 9
REMARK VINA RESULT:      -6.7      2.734      6.044
REMARK  Name = 
REMARK  8 active torsions:
REMARK  status: ('A' for Active; 'I' for Inactive)
REMARK    1  A    between atoms: C_1  and  C_2
REMARK    2  A    between atoms: N_4  and  C_5
REMARK    3  A    between atoms: C_8  and  C_9
REMARK    4  A    between atoms: C_9  and  N_10
REMARK    5  A    between atoms: C_14  and  C_15
REMARK    6  A    between atoms: C_15  and  N_16
REMARK    7  A    between atoms: C_18  and  C_19
REMARK    8  A    between atoms: C_21  and  C_22
REMARK                            x       y       z     vdW  Elec       q    Type
REMARK                         _______ _______ _______ _____ _____    ______ ____
ROOT
ATOM      1  N   UNL     1       3.314   3.818  19.753  0.00  0.00    +0.000 NA
ATOM      2  C   UNL     1       2.862   2.977  20.878  0.00  0.00    +0.000 C 
ATOM      3  C   UNL     1       1.354   3.084  20.912  0.00  0.00    +0.000 C 
ATOM      4  C   UNL     1       1.093   4.511  20.484  0.00  0.00    +0.000 C 
ATOM      5  C   UNL     1       2.320   4.935  19.662  0.00  0.00    +0.000 C 
ENDROOT
BRANCH   1   6
ATOM      6  C   UNL     1       3.365   3.081  18.467  0.00  0.00    +0.000 C 
BRANCH   6  14
ATOM      7  C   UNL     1       7.388   5.130  19.752  0.00  0.00    +0.000 C 
ATOM      8  C   UNL     1       7.624   6.178  18.689  0.00  0.00    +0.000 C 
ATOM      9  O   UNL     1       8.322   7.158  18.968  0.00  0.00    +0.000 OA
ATOM     10  N   UNL     1       7.097   5.990  17.402  0.00  0.00    +0.000 N 
ATOM     11  C   UNL     1       7.407   6.994  16.389  0.00  0.00    +0.000 C 
ATOM     12  C   UNL     1       6.133   5.007  17.187  0.00  0.00    +0.000 A 
ATOM     13  N   UNL     1       5.395   4.440  18.110  0.00  0.00    +0.000 NA
ATOM     14  C   UNL     1       4.412   3.645  17.547  0.00  0.00    +0.000 A 
ATOM     15  C   UNL     1       4.520   3.504  16.177  0.00  0.00    +0.000 A 
ATOM     16  S   UNL     1       5.789   4.498  15.585  0.00  0.00    +0.000 S 
ENDBRANCH   6  14
ENDBRANCH   1   6
BRANCH   5  17
ATOM     17  C   UNL     1       2.928   6.249  20.189  0.00  0.00    +0.000 C 
BRANCH  17  18
ATOM     18  N   UNL     1       2.356   7.437  19.572  0.00  0.00    +0.000 N 
ATOM     19  N   UNL     1       1.485   8.178  20.287  0.00  0.00    +0.000 NA
ATOM     20  C   UNL     1       1.058   9.111  19.430  0.00  0.00    +0.000 A 
ATOM     21  C   UNL     1       0.029  10.097  19.834  0.00  0.00    +0.000 C 
ATOM     22  C   UNL     1       1.690   8.989  18.174  0.00  0.00    +0.000 A 
ATOM     23  C   UNL     1       2.539   7.909  18.293  0.00  0.00    +0.000 A 
ATOM     24  C   UNL     1       3.458   7.307  17.297  0.00  0.00    +0.000 C 
ENDBRANCH  17  18
ENDBRANCH   5  17
TORSDOF 4
ENDMDL
