MODEL 1
REMARK VINA RESULT:      -7.3      0.000      0.000
REMARK  Name = 
REMARK  4 active torsions:
REMARK  status: ('A' for Active; 'I' for Inactive)
REMARK    1  A    between atoms: C_1  and  C_2
REMARK    2  A    between atoms: C_4  and  C_5
REMARK    3  A    between atoms: N_10  and  C_11
REMARK    4  A    between atoms: C_14  and  N_15
REMARK                            x       y       z     vdW  Elec       q    Type
REMARK                         _______ _______ _______ _____ _____    ______ ____
ROOT
ATOM      1  C   UNL     1       0.133   9.905  20.248  0.00  0.00    +0.000 C 
ATOM      2  O   UNL     1       0.182  10.172  21.447  0.00  0.00    +0.000 OA
ATOM      3  N   UNL     1       0.949   8.919  19.689  0.00  0.00    +0.000 N 
ATOM      4  C   UNL     1       1.789   8.136  20.606  0.00  0.00    +0.000 C 
ATOM      5  C   UNL     1       2.173   6.761  20.022  0.00  0.00    +0.000 C 
ATOM      6  N   UNL     1       2.720   6.931  18.668  0.00  0.00    +0.000 N 
ATOM      7  C   UNL     1       1.864   7.677  17.736  0.00  0.00    +0.000 C 
ATOM      8  C   UNL     1       1.518   9.044  18.337  0.00  0.00    +0.000 C 
ENDROOT
BRANCH   1  12
ATOM      9  C   UNL     1      -3.348  11.413  16.874  0.00  0.00    +0.000 C 
ATOM     10  C   UNL     1      -2.320  11.318  17.937  0.00  0.00    +0.000 A 
ATOM     11  C   UNL     1      -1.683  10.155  18.419  0.00  0.00    +0.000 A 
ATOM     12  C   UNL     1      -0.794  10.586  19.383  0.00  0.00    +0.000 A 
ATOM     13  N   UNL     1      -1.010  11.937  19.475  0.00  0.00    +0.000 N 
ATOM     14  N   UNL     1      -1.893  12.412  18.576  0.00  0.00    +0.000 NA
ATOM     15  H   UNL     1      -0.570  12.582  20.123  0.00  0.00    +0.000 HD
ENDBRANCH   1  12
BRANCH   6  16
ATOM     16  C   UNL     1       3.896   6.341  18.262  0.00  0.00    +0.000 A 
ATOM     17  C   UNL     1       4.562   5.395  19.056  0.00  0.00    +0.000 A 
ATOM     18  C   UNL     1       5.765   4.809  18.649  0.00  0.00    +0.000 A 
ATOM     19  C   UNL     1       6.328   5.178  17.426  0.00  0.00    +0.000 A 
ATOM     20  C   UNL     1       5.695   6.119  16.613  0.00  0.00    +0.000 A 
ATOM     21  C   UNL     1       4.491   6.687  17.036  0.00  0.00    +0.000 A 
BRANCH  19  22
ATOM     22  N   UNL     1       7.591   4.576  16.990  0.00  0.00    +0.000 N 
ATOM     23  O   UNL     1       7.836   4.566  15.773  0.00  0.00    +0.000 OA
ATOM     24  O   UNL     1       8.340   4.114  17.861  0.00  0.00    +0.000 OA
ENDBRANCH  19  22
ENDBRANCH   6  16
TORSDOF 3
ENDMDL
MODEL 2
REMARK VINA RESULT:      -7.2      0.494      1.117
REMARK  Name = 
REMARK  4 active torsions:
REMARK  status: ('A' for Active; 'I' for Inactive)
REMARK    1  A    between atoms: C_1  and  C_2
REMARK    2  A    between atoms: C_4  and  C_5
REMARK    3  A    between atoms: N_10  and  C_11
REMARK    4  A    between atoms: C_14  and  N_15
REMARK                            x       y       z     vdW  Elec       q    Type
REMARK                         _______ _______ _______ _____ _____    ______ ____
ROOT
ATOM      1  C   UNL     1      -0.034  10.052  19.910  0.00  0.00    +0.000 C 
ATOM      2  O   UNL     1      -0.064  10.403  21.087  0.00  0.00    +0.000 OA
ATOM      3  N   UNL     1       0.838   9.054  19.471  0.00  0.00    +0.000 N 
ATOM      4  C   UNL     1       1.639   8.361  20.488  0.00  0.00    +0.000 C 
ATOM      5  C   UNL     1       2.092   6.960  20.027  0.00  0.00    +0.000 C 
ATOM      6  N   UNL     1       2.715   7.051  18.698  0.00  0.00    +0.000 N 
ATOM      7  C   UNL     1       1.899   7.705  17.668  0.00  0.00    +0.000 C 
ATOM      8  C   UNL     1       1.484   9.101  18.149  0.00  0.00    +0.000 C 
ENDROOT
BRANCH   1  12
ATOM      9  C   UNL     1      -3.736  11.369  16.694  0.00  0.00    +0.000 C 
ATOM     10  C   UNL     1      -2.515  11.293  17.530  0.00  0.00    +0.000 A 
ATOM     11  C   UNL     1      -2.151  10.274  18.434  0.00  0.00    +0.000 A 
ATOM     12  C   UNL     1      -0.924  10.645  18.945  0.00  0.00    +0.000 A 
ATOM     13  N   UNL     1      -0.676  11.875  18.393  0.00  0.00    +0.000 N 
ATOM     14  N   UNL     1      -1.599  12.267  17.495  0.00  0.00    +0.000 NA
ATOM     15  H   UNL     1       0.116  12.480  18.582  0.00  0.00    +0.000 HD
ENDBRANCH   1  12
BRANCH   6  16
ATOM     16  C   UNL     1       3.927   6.469  18.404  0.00  0.00    +0.000 A 
ATOM     17  C   UNL     1       4.656   6.817  17.257  0.00  0.00    +0.000 A 
ATOM     18  C   UNL     1       5.880   6.212  16.951  0.00  0.00    +0.000 A 
ATOM     19  C   UNL     1       6.391   5.229  17.801  0.00  0.00    +0.000 A 
ATOM     20  C   UNL     1       5.690   4.856  18.948  0.00  0.00    +0.000 A 
ATOM     21  C   UNL     1       4.473   5.477  19.237  0.00  0.00    +0.000 A 
BRANCH  19  22
ATOM     22  N   UNL     1       7.669   4.585  17.490  0.00  0.00    +0.000 N 
ATOM     23  O   UNL     1       7.931   4.367  16.296  0.00  0.00    +0.000 OA
ATOM     24  O   UNL     1       8.414   4.294  18.435  0.00  0.00    +0.000 OA
ENDBRANCH  19  22
ENDBRANCH   6  16
TORSDOF 3
ENDMDL
MODEL 3
REMARK VINA RESULT:      -7.1      2.182      8.613
REMARK  Name = 
REMARK  4 active torsions:
REMARK  status: ('A' for Active; 'I' for Inactive)
REMARK    1  A    between atoms: C_1  and  C_2
REMARK    2  A    between atoms: C_4  and  C_5
REMARK    3  A    between atoms: N_10  and  C_11
REMARK    4  A    between atoms: C_14  and  N_15
REMARK                            x       y       z     vdW  Elec       q    Type
REMARK                         _______ _______ _______ _____ _____    ______ ____
ROOT
ATOM      1  C   UNL     1       4.192   4.169  17.231  0.00  0.00    +0.000 C 
ATOM      2  O   UNL     1       3.716   3.057  17.447  0.00  0.00    +0.000 OA
ATOM      3  N   UNL     1       3.664   5.315  17.830  0.00  0.00    +0.000 N 
ATOM      4  C   UNL     1       2.591   5.130  18.815  0.00  0.00    +0.000 C 
ATOM      5  C   UNL     1       2.492   6.307  19.806  0.00  0.00    +0.000 C 
ATOM      6  N   UNL     1       2.447   7.578  19.067  0.00  0.00    +0.000 N 
ATOM      7  C   UNL     1       3.544   7.785  18.112  0.00  0.00    +0.000 C 
ATOM      8  C   UNL     1       3.601   6.608  17.130  0.00  0.00    +0.000 C 
ENDROOT
BRANCH   1  12
ATOM      9  C   UNL     1       7.557   4.875  13.495  0.00  0.00    +0.000 C 
ATOM     10  C   UNL     1       6.866   4.635  14.783  0.00  0.00    +0.000 A 
ATOM     11  C   UNL     1       5.477   4.605  15.024  0.00  0.00    +0.000 A 
ATOM     12  C   UNL     1       5.335   4.321  16.368  0.00  0.00    +0.000 A 
ATOM     13  N   UNL     1       6.616   4.285  16.852  0.00  0.00    +0.000 N 
ATOM     14  N   UNL     1       7.563   4.422  15.905  0.00  0.00    +0.000 NA
ATOM     15  H   UNL     1       6.900   4.154  17.817  0.00  0.00    +0.000 HD
ENDBRANCH   1  12
BRANCH   6  16
ATOM     16  C   UNL     1       1.513   8.556  19.325  0.00  0.00    +0.000 A 
ATOM     17  C   UNL     1       0.988   8.756  20.611  0.00  0.00    +0.000 A 
ATOM     18  C   UNL     1       0.027   9.739  20.868  0.00  0.00    +0.000 A 
ATOM     19  C   UNL     1      -0.432  10.540  19.820  0.00  0.00    +0.000 A 
ATOM     20  C   UNL     1       0.065  10.365  18.528  0.00  0.00    +0.000 A 
ATOM     21  C   UNL     1       1.029   9.381  18.296  0.00  0.00    +0.000 A 
BRANCH  19  22
ATOM     22  N   UNL     1      -1.443  11.570  20.075  0.00  0.00    +0.000 N 
ATOM     23  O   UNL     1      -1.680  11.867  21.256  0.00  0.00    +0.000 OA
ATOM     24  O   UNL     1      -2.000  12.085  19.096  0.00  0.00    +0.000 OA
ENDBRANCH  19  22
ENDBRANCH   6  16
TORSDOF 3
ENDMDL
MODEL 4
REMARK VINA RESULT:      -7.0      2.284      8.656
REMARK  Name = 
REMARK  4 active torsions:
REMARK  status: ('A' for Active; 'I' for Inactive)
REMARK    1  A    between atoms: C_1  and  C_2
REMARK    2  A    between atoms: C_4  and  C_5
REMARK    3  A    between atoms: N_10  and  C_11
REMARK    4  A    between atoms: C_14  and  N_15
REMARK                            x       y       z     vdW  Elec       q    Type
REMARK                         _______ _______ _______ _____ _____    ______ ____
ROOT
ATOM      1  C   UNL     1       4.203   4.058  17.151  0.00  0.00    +0.000 C 
ATOM      2  O   UNL     1       3.711   2.941  17.295  0.00  0.00    +0.000 OA
ATOM      3  N   UNL     1       3.696   5.168  17.829  0.00  0.00    +0.000 N 
ATOM      4  C   UNL     1       2.624   4.933  18.806  0.00  0.00    +0.000 C 
ATOM      5  C   UNL     1       2.549   6.042  19.875  0.00  0.00    +0.000 C 
ATOM      6  N   UNL     1       2.519   7.360  19.224  0.00  0.00    +0.000 N 
ATOM      7  C   UNL     1       3.614   7.615  18.278  0.00  0.00    +0.000 C 
ATOM      8  C   UNL     1       3.648   6.507  17.219  0.00  0.00    +0.000 C 
ENDROOT
BRANCH   1  12
ATOM      9  C   UNL     1       7.557   4.888  13.431  0.00  0.00    +0.000 C 
ATOM     10  C   UNL     1       6.870   4.621  14.716  0.00  0.00    +0.000 A 
ATOM     11  C   UNL     1       5.481   4.543  14.951  0.00  0.00    +0.000 A 
ATOM     12  C   UNL     1       5.343   4.251  16.294  0.00  0.00    +0.000 A 
ATOM     13  N   UNL     1       6.623   4.257  16.783  0.00  0.00    +0.000 N 
ATOM     14  N   UNL     1       7.569   4.429  15.840  0.00  0.00    +0.000 NA
ATOM     15  H   UNL     1       6.907   4.133  17.749  0.00  0.00    +0.000 HD
ENDBRANCH   1  12
BRANCH   6  16
ATOM     16  C   UNL     1       1.602   8.332  19.553  0.00  0.00    +0.000 A 
ATOM     17  C   UNL     1       1.183   9.298  18.625  0.00  0.00    +0.000 A 
ATOM     18  C   UNL     1       0.263  10.295  18.965  0.00  0.00    +0.000 A 
ATOM     19  C   UNL     1      -0.249  10.341  20.264  0.00  0.00    +0.000 A 
ATOM     20  C   UNL     1       0.149   9.399  21.213  0.00  0.00    +0.000 A 
ATOM     21  C   UNL     1       1.064   8.408  20.849  0.00  0.00    +0.000 A 
BRANCH  19  22
ATOM     22  N   UNL     1      -1.209  11.383  20.636  0.00  0.00    +0.000 N 
ATOM     23  O   UNL     1      -1.402  11.587  21.845  0.00  0.00    +0.000 OA
ATOM     24  O   UNL     1      -1.773  12.001  19.722  0.00  0.00    +0.000 OA
ENDBRANCH  19  22
ENDBRANCH   6  16
TORSDOF 3
ENDMDL
MODEL 5
REMARK VINA RESULT:      -6.8      1.307      1.589
REMARK  Name = 
REMARK  4 active torsions:
REMARK  status: ('A' for Active; 'I' for Inactive)
REMARK    1  A    between atoms: C_1  and  C_2
REMARK    2  A    between atoms: C_4  and  C_5
REMARK    3  A    between atoms: N_10  and  C_11
REMARK    4  A    between atoms: C_14  and  N_15
REMARK                            x       y       z     vdW  Elec       q    Type
REMARK                         _______ _______ _______ _____ _____    ______ ____
ROOT
ATOM      1  C   UNL     1       0.249   9.330  21.263  0.00  0.00    +0.000 C 
ATOM      2  O   UNL     1       0.094   9.061  22.452  0.00  0.00    +0.000 OA
ATOM      3  N   UNL     1       1.044   8.535  20.435  0.00  0.00    +0.000 N 
ATOM      4  C   UNL     1       1.597   7.302  21.010  0.00  0.00    +0.000 C 
ATOM      5  C   UNL     1       1.933   6.249  19.934  0.00  0.00    +0.000 C 
ATOM      6  N   UNL     1       2.747   6.863  18.874  0.00  0.00    +0.000 N 
ATOM      7  C   UNL     1       2.176   8.072  18.267  0.00  0.00    +0.000 C 
ATOM      8  C   UNL     1       1.874   9.104  19.361  0.00  0.00    +0.000 C 
ENDROOT
BRANCH   1  12
ATOM      9  C   UNL     1      -1.631  13.845  19.903  0.00  0.00    +0.000 C 
ATOM     10  C   UNL     1      -1.260  12.415  20.015  0.00  0.00    +0.000 A 
ATOM     11  C   UNL     1      -0.428  11.814  20.981  0.00  0.00    +0.000 A 
ATOM     12  C   UNL     1      -0.412  10.467  20.678  0.00  0.00    +0.000 A 
ATOM     13  N   UNL     1      -1.149  10.363  19.527  0.00  0.00    +0.000 N 
ATOM     14  N   UNL     1      -1.714  11.519  19.133  0.00  0.00    +0.000 NA
ATOM     15  H   UNL     1      -1.310   9.523  18.981  0.00  0.00    +0.000 HD
ENDBRANCH   1  12
BRANCH   6  16
ATOM     16  C   UNL     1       3.907   6.291  18.402  0.00  0.00    +0.000 A 
ATOM     17  C   UNL     1       4.611   5.328  19.142  0.00  0.00    +0.000 A 
ATOM     18  C   UNL     1       5.798   4.760  18.668  0.00  0.00    +0.000 A 
ATOM     19  C   UNL     1       6.306   5.163  17.431  0.00  0.00    +0.000 A 
ATOM     20  C   UNL     1       5.633   6.121  16.672  0.00  0.00    +0.000 A 
ATOM     21  C   UNL     1       4.446   6.671  17.161  0.00  0.00    +0.000 A 
BRANCH  19  22
ATOM     22  N   UNL     1       7.550   4.580  16.925  0.00  0.00    +0.000 N 
ATOM     23  O   UNL     1       8.336   4.087  17.751  0.00  0.00    +0.000 OA
ATOM     24  O   UNL     1       7.747   4.611  15.703  0.00  0.00    +0.000 OA
ENDBRANCH  19  22
ENDBRANCH   6  16
TORSDOF 3
ENDMDL
MODEL 6
REMARK VINA RESULT:      -6.8      2.831      3.864
REMARK  Name = 
REMARK  4 active torsions:
REMARK  status: ('A' for Active; 'I' for Inactive)
REMARK    1  A    between atoms: C_1  and  C_2
REMARK    2  A    between atoms: C_4  and  C_5
REMARK    3  A    between atoms: N_10  and  C_11
REMARK    4  A    between atoms: C_14  and  N_15
REMARK                            x       y       z     vdW  Elec       q    Type
REMARK                         _______ _______ _______ _____ _____    ______ ____
ROOT
ATOM      1  C   UNL     1      -0.805  11.348  19.329  0.00  0.00    +0.000 C 
ATOM      2  O   UNL     1      -1.228  11.679  18.224  0.00  0.00    +0.000 OA
ATOM      3  N   UNL     1       0.099  10.295  19.475  0.00  0.00    +0.000 N 
ATOM      4  C   UNL     1       0.613   9.668  18.250  0.00  0.00    +0.000 C 
ATOM      5  C   UNL     1       1.971   8.972  18.470  0.00  0.00    +0.000 C 
ATOM      6  N   UNL     1       1.891   8.082  19.637  0.00  0.00    +0.000 N 
ATOM      7  C   UNL     1       1.419   8.716  20.876  0.00  0.00    +0.000 C 
ATOM      8  C   UNL     1       0.060   9.380  20.628  0.00  0.00    +0.000 C 
ENDROOT
BRANCH   1  12
ATOM      9  C   UNL     1      -1.282  14.017  23.621  0.00  0.00    +0.000 C 
ATOM     10  C   UNL     1      -1.497  13.237  22.380  0.00  0.00    +0.000 A 
ATOM     11  C   UNL     1      -0.518  12.737  21.496  0.00  0.00    +0.000 A 
ATOM     12  C   UNL     1      -1.211  12.061  20.512  0.00  0.00    +0.000 A 
ATOM     13  N   UNL     1      -2.532  12.266  20.815  0.00  0.00    +0.000 N 
ATOM     14  N   UNL     1      -2.732  12.932  21.968  0.00  0.00    +0.000 NA
ATOM     15  H   UNL     1      -3.336  11.959  20.278  0.00  0.00    +0.000 HD
ENDBRANCH   1  12
BRANCH   6  16
ATOM     16  C   UNL     1       2.330   6.777  19.610  0.00  0.00    +0.000 A 
ATOM     17  C   UNL     1       3.217   6.316  18.625  0.00  0.00    +0.000 A 
ATOM     18  C   UNL     1       3.650   4.987  18.588  0.00  0.00    +0.000 A 
ATOM     19  C   UNL     1       3.184   4.087  19.550  0.00  0.00    +0.000 A 
ATOM     20  C   UNL     1       2.298   4.511  20.541  0.00  0.00    +0.000 A 
ATOM     21  C   UNL     1       1.884   5.845  20.562  0.00  0.00    +0.000 A 
BRANCH  19  22
ATOM     22  N   UNL     1       3.625   2.690  19.521  0.00  0.00    +0.000 N 
ATOM     23  O   UNL     1       2.865   1.855  19.004  0.00  0.00    +0.000 OA
ATOM     24  O   UNL     1       4.730   2.424  20.011  0.00  0.00    +0.000 OA
ENDBRANCH  19  22
ENDBRANCH   6  16
TORSDOF 3
ENDMDL
MODEL 7
REMARK VINA RESULT:      -6.8      2.833      3.801
REMARK  Name = 
REMARK  4 active torsions:
REMARK  status: ('A' for Active; 'I' for Inactive)
REMARK    1  A    between atoms: C_1  and  C_2
REMARK    2  A    between atoms: C_4  and  C_5
REMARK    3  A    between atoms: N_10  and  C_11
REMARK    4  A    between atoms: C_14  and  N_15
REMARK                            x       y       z     vdW  Elec       q    Type
REMARK                         _______ _______ _______ _____ _____    ______ ____
ROOT
ATOM      1  C   UNL     1      -0.823  11.401  19.351  0.00  0.00    +0.000 C 
ATOM      2  O   UNL     1      -1.244  11.739  18.247  0.00  0.00    +0.000 OA
ATOM      3  N   UNL     1       0.072  10.339  19.494  0.00  0.00    +0.000 N 
ATOM      4  C   UNL     1       0.578   9.711  18.267  0.00  0.00    +0.000 C 
ATOM      5  C   UNL     1       1.930   9.001  18.483  0.00  0.00    +0.000 C 
ATOM      6  N   UNL     1       1.843   8.109  19.649  0.00  0.00    +0.000 N 
ATOM      7  C   UNL     1       1.378   8.744  20.889  0.00  0.00    +0.000 C 
ATOM      8  C   UNL     1       0.024   9.421  20.644  0.00  0.00    +0.000 C 
ENDROOT
BRANCH   1  12
ATOM      9  C   UNL     1      -1.276  14.104  23.624  0.00  0.00    +0.000 C 
ATOM     10  C   UNL     1      -1.497  13.303  22.398  0.00  0.00    +0.000 A 
ATOM     11  C   UNL     1      -0.526  12.824  21.494  0.00  0.00    +0.000 A 
ATOM     12  C   UNL     1      -1.222  12.115  20.536  0.00  0.00    +0.000 A 
ATOM     13  N   UNL     1      -2.540  12.281  20.871  0.00  0.00    +0.000 N 
ATOM     14  N   UNL     1      -2.732  12.954  22.021  0.00  0.00    +0.000 NA
ATOM     15  H   UNL     1      -3.347  11.942  20.358  0.00  0.00    +0.000 HD
ENDBRANCH   1  12
BRANCH   6  16
ATOM     16  C   UNL     1       2.270   6.801  19.618  0.00  0.00    +0.000 A 
ATOM     17  C   UNL     1       1.856   5.865  20.578  0.00  0.00    +0.000 A 
ATOM     18  C   UNL     1       2.304   4.540  20.555  0.00  0.00    +0.000 A 
ATOM     19  C   UNL     1       3.194   4.134  19.557  0.00  0.00    +0.000 A 
ATOM     20  C   UNL     1       3.629   5.040  18.590  0.00  0.00    +0.000 A 
ATOM     21  C   UNL     1       3.164   6.356  18.628  0.00  0.00    +0.000 A 
BRANCH  19  22
ATOM     22  N   UNL     1       3.675   2.751  19.525  0.00  0.00    +0.000 N 
ATOM     23  O   UNL     1       4.819   2.527  19.950  0.00  0.00    +0.000 OA
ATOM     24  O   UNL     1       2.912   1.885  19.075  0.00  0.00    +0.000 OA
ENDBRANCH  19  22
ENDBRANCH   6  16
TORSDOF 3
ENDMDL
MODEL 8
REMARK VINA RESULT:      -6.8      2.677      8.584
REMARK  Name = 
REMARK  4 active torsions:
REMARK  status: ('A' for Active; 'I' for Inactive)
REMARK    1  A    between atoms: C_1  and  C_2
REMARK    2  A    between atoms: C_4  and  C_5
REMARK    3  A    between atoms: N_10  and  C_11
REMARK    4  A    between atoms: C_14  and  N_15
REMARK                            x       y       z     vdW  Elec       q    Type
REMARK                         _______ _______ _______ _____ _____    ______ ____
ROOT
ATOM      1  C   UNL     1       3.564   3.978  17.334  0.00  0.00    +0.000 C 
ATOM      2  O   UNL     1       2.917   2.936  17.259  0.00  0.00    +0.000 OA
ATOM      3  N   UNL     1       3.171   5.018  18.179  0.00  0.00    +0.000 N 
ATOM      4  C   UNL     1       2.020   4.778  19.058  0.00  0.00    +0.000 C 
ATOM      5  C   UNL     1       2.029   5.688  20.303  0.00  0.00    +0.000 C 
ATOM      6  N   UNL     1       2.219   7.088  19.894  0.00  0.00    +0.000 N 
ATOM      7  C   UNL     1       3.395   7.339  19.050  0.00  0.00    +0.000 C 
ATOM      8  C   UNL     1       3.344   6.434  17.814  0.00  0.00    +0.000 C 
ENDROOT
BRANCH   1  12
ATOM      9  C   UNL     1       7.212   4.764  13.892  0.00  0.00    +0.000 C 
ATOM     10  C   UNL     1       6.422   4.495  15.116  0.00  0.00    +0.000 A 
ATOM     11  C   UNL     1       5.018   4.463  15.247  0.00  0.00    +0.000 A 
ATOM     12  C   UNL     1       4.771   4.147  16.568  0.00  0.00    +0.000 A 
ATOM     13  N   UNL     1       6.011   4.095  17.150  0.00  0.00    +0.000 N 
ATOM     14  N   UNL     1       7.029   4.253  16.283  0.00  0.00    +0.000 NA
ATOM     15  H   UNL     1       6.218   3.940  18.131  0.00  0.00    +0.000 HD
ENDBRANCH   1  12
BRANCH   6  16
ATOM     16  C   UNL     1       1.423   8.112  20.356  0.00  0.00    +0.000 A 
ATOM     17  C   UNL     1       1.023   9.169  19.525  0.00  0.00    +0.000 A 
ATOM     18  C   UNL     1       0.228  10.218  19.999  0.00  0.00    +0.000 A 
ATOM     19  C   UNL     1      -0.174  10.223  21.337  0.00  0.00    +0.000 A 
ATOM     20  C   UNL     1       0.210   9.189  22.192  0.00  0.00    +0.000 A 
ATOM     21  C   UNL     1       0.998   8.149  21.695  0.00  0.00    +0.000 A 
BRANCH  19  22
ATOM     22  N   UNL     1      -1.002  11.317  21.848  0.00  0.00    +0.000 N 
ATOM     23  O   UNL     1      -1.164  12.309  21.119  0.00  0.00    +0.000 OA
ATOM     24  O   UNL     1      -1.494  11.189  22.978  0.00  0.00    +0.000 OA
ENDBRANCH  19  22
ENDBRANCH   6  16
TORSDOF 3
ENDMDL
MODEL 9
REMARK VINA RESULT:      -6.8      2.876      3.684
REMARK  Name = 
REMARK  4 active torsions:
REMARK  status: ('A' for Active; 'I' for Inactive)
REMARK    1  A    between atoms: C_1  and  C_2
REMARK    2  A    between atoms: C_4  and  C_5
REMARK    3  A    between atoms: N_10  and  C_11
REMARK    4  A    between atoms: C_14  and  N_15
REMARK                            x       y       z     vdW  Elec       q    Type
REMARK                         _______ _______ _______ _____ _____    ______ ____
ROOT
ATOM      1  C   UNL     1      -0.544  11.374  19.433  0.00  0.00    +0.000 C 
ATOM      2  O   UNL     1      -0.997  11.779  18.365  0.00  0.00    +0.000 OA
ATOM      3  N   UNL     1       0.297  10.260  19.490  0.00  0.00    +0.000 N 
ATOM      4  C   UNL     1       0.711   9.659  18.216  0.00  0.00    +0.000 C 
ATOM      5  C   UNL     1       2.030   8.870  18.338  0.00  0.00    +0.000 C 
ATOM      6  N   UNL     1       1.948   7.935  19.470  0.00  0.00    +0.000 N 
ATOM      7  C   UNL     1       1.576   8.541  20.756  0.00  0.00    +0.000 C 
ATOM      8  C   UNL     1       0.252   9.299  20.604  0.00  0.00    +0.000 C 
ENDROOT
BRANCH   1  12
ATOM      9  C   UNL     1      -2.531  13.494  23.596  0.00  0.00    +0.000 C 
ATOM     10  C   UNL     1      -1.647  12.997  22.516  0.00  0.00    +0.000 A 
ATOM     11  C   UNL     1      -2.015  12.256  21.373  0.00  0.00    +0.000 A 
ATOM     12  C   UNL     1      -0.848  12.057  20.663  0.00  0.00    +0.000 A 
ATOM     13  N   UNL     1       0.133  12.602  21.449  0.00  0.00    +0.000 N 
ATOM     14  N   UNL     1      -0.329  13.221  22.551  0.00  0.00    +0.000 NA
ATOM     15  H   UNL     1       1.132  12.593  21.271  0.00  0.00    +0.000 HD
ENDBRANCH   1  12
BRANCH   6  16
ATOM     16  C   UNL     1       2.301   6.609  19.367  0.00  0.00    +0.000 A 
ATOM     17  C   UNL     1       2.049   5.694  20.401  0.00  0.00    +0.000 A 
ATOM     18  C   UNL     1       2.423   4.350  20.301  0.00  0.00    +0.000 A 
ATOM     19  C   UNL     1       3.072   3.902  19.148  0.00  0.00    +0.000 A 
ATOM     20  C   UNL     1       3.343   4.786  18.103  0.00  0.00    +0.000 A 
ATOM     21  C   UNL     1       2.954   6.123  18.222  0.00  0.00    +0.000 A 
BRANCH  19  22
ATOM     22  N   UNL     1       3.474   2.498  19.032  0.00  0.00    +0.000 N 
ATOM     23  O   UNL     1       2.958   1.822  18.129  0.00  0.00    +0.000 OA
ATOM     24  O   UNL     1       4.307   2.068  19.842  0.00  0.00    +0.000 OA
ENDBRANCH  19  22
ENDBRANCH   6  16
TORSDOF 3
ENDMDL
