MODEL 1
REMARK VINA RESULT:      -8.0      0.000      0.000
REMARK  Name = 
REMARK  7 active torsions:
REMARK  status: ('A' for Active; 'I' for Inactive)
REMARK    1  A    between atoms: C_1  and  O_2
REMARK    2  A    between atoms: O_2  and  N_3
REMARK    3  A    between atoms: N_3  and  C_4
REMARK    4  A    between atoms: N_13  and  C_14
REMARK    5  A    between atoms: C_16  and  C_17
REMARK    6  A    between atoms: C_22  and  O_23
REMARK    7  A    between atoms: C_24  and  O_25
REMARK                            x       y       z     vdW  Elec       q    Type
REMARK                         _______ _______ _______ _____ _____    ______ ____
ROOT
ATOM      1  C   UNL     1       1.126   9.926  18.939  0.00  0.00    +0.000 A 
ATOM      2  N   UNL     1       0.522   9.919  20.156  0.00  0.00    +0.000 NA
ATOM      3  C   UNL     1       0.725   8.859  20.958  0.00  0.00    +0.000 A 
ATOM      4 CL   UNL     1      -0.053   8.930  22.481  0.00  0.00    +0.000 Cl
ATOM      5  N   UNL     1       1.450   7.745  20.734  0.00  0.00    +0.000 NA
ATOM      6  C   UNL     1       2.012   7.789  19.516  0.00  0.00    +0.000 A 
ATOM      7  C   UNL     1       1.903   8.807  18.583  0.00  0.00    +0.000 A 
ATOM      8  N   UNL     1       2.637   8.519  17.451  0.00  0.00    +0.000 NA
ATOM      9  C   UNL     1       3.187   7.349  17.699  0.00  0.00    +0.000 A 
ATOM     10  N   UNL     1       2.836   6.863  18.935  0.00  0.00    +0.000 N 
ENDROOT
BRANCH  10  11
ATOM     11  C   UNL     1       3.304   5.611  19.497  0.00  0.00    +0.000 C 
ATOM     12  O   UNL     1       4.742   5.626  19.579  0.00  0.00    +0.000 OA
ATOM     13  C   UNL     1       5.239   4.331  19.151  0.00  0.00    +0.000 C 
ATOM     14  C   UNL     1       4.017   3.406  19.052  0.00  0.00    +0.000 C 
ATOM     15  C   UNL     1       2.878   4.361  18.735  0.00  0.00    +0.000 C 
BRANCH  13  16
ATOM     16  C   UNL     1       6.079   4.427  17.915  0.00  0.00    +0.000 A 
ATOM     17  C   UNL     1       5.647   4.641  16.583  0.00  0.00    +0.000 A 
ATOM     18  C   UNL     1       6.807   4.763  15.865  0.00  0.00    +0.000 A 
ATOM     19  O   UNL     1       7.868   4.621  16.695  0.00  0.00    +0.000 OA
ATOM     20  N   UNL     1       7.418   4.421  17.988  0.00  0.00    +0.000 NA
ENDBRANCH  13  16
BRANCH  14  21
ATOM     21  O   UNL     1       3.703   2.763  20.312  0.00  0.00    +0.000 OA
ATOM     22  H   UNL     1       4.454   2.860  20.924  0.00  0.00    +0.000 HD
ENDBRANCH  14  21
BRANCH  15  23
ATOM     23  O   UNL     1       1.626   3.851  19.206  0.00  0.00    +0.000 OA
ATOM     24  H   UNL     1       1.837   3.297  19.991  0.00  0.00    +0.000 HD
ENDBRANCH  15  23
ENDBRANCH  10  11
BRANCH   1  25
ATOM     25  N   UNL     1       0.982  11.031  18.069  0.00  0.00    +0.000 N 
ATOM     26  H   UNL     1       1.502  10.851  17.209  0.00  0.00    +0.000 HD
BRANCH  25  28
ATOM     27  C   UNL     1       2.535  12.684  18.171  0.00  0.00    +0.000 C 
ATOM     28  O   UNL     1       1.230  12.306  18.595  0.00  0.00    +0.000 OA
ENDBRANCH  25  28
ENDBRANCH   1  25
TORSDOF 6
ENDMDL
MODEL 2
REMARK VINA RESULT:      -7.4      1.112      1.171
REMARK  Name = 
REMARK  7 active torsions:
REMARK  status: ('A' for Active; 'I' for Inactive)
REMARK    1  A    between atoms: C_1  and  O_2
REMARK    2  A    between atoms: O_2  and  N_3
REMARK    3  A    between atoms: N_3  and  C_4
REMARK    4  A    between atoms: N_13  and  C_14
REMARK    5  A    between atoms: C_16  and  C_17
REMARK    6  A    between atoms: C_22  and  O_23
REMARK    7  A    between atoms: C_24  and  O_25
REMARK                            x       y       z     vdW  Elec       q    Type
REMARK                         _______ _______ _______ _____ _____    ______ ____
ROOT
ATOM      1  C   UNL     1       1.011  10.157  19.202  0.00  0.00    +0.000 A 
ATOM      2  N   UNL     1       0.514  10.197  20.466  0.00  0.00    +0.000 NA
ATOM      3  C   UNL     1       0.729   9.137  21.265  0.00  0.00    +0.000 A 
ATOM      4 CL   UNL     1       0.090   9.269  22.847  0.00  0.00    +0.000 Cl
ATOM      5  N   UNL     1       1.373   7.984  20.998  0.00  0.00    +0.000 NA
ATOM      6  C   UNL     1       1.829   7.982  19.736  0.00  0.00    +0.000 A 
ATOM      7  C   UNL     1       1.694   8.993  18.799  0.00  0.00    +0.000 A 
ATOM      8  N   UNL     1       2.311   8.651  17.614  0.00  0.00    +0.000 NA
ATOM      9  C   UNL     1       2.818   7.456  17.834  0.00  0.00    +0.000 A 
ATOM     10  N   UNL     1       2.550   7.005  19.103  0.00  0.00    +0.000 N 
ENDROOT
BRANCH  10  11
ATOM     11  C   UNL     1       2.998   5.737  19.644  0.00  0.00    +0.000 C 
ATOM     12  O   UNL     1       4.435   5.664  19.579  0.00  0.00    +0.000 OA
ATOM     13  C   UNL     1       4.806   4.333  19.133  0.00  0.00    +0.000 C 
ATOM     14  C   UNL     1       3.527   3.484  19.181  0.00  0.00    +0.000 C 
ATOM     15  C   UNL     1       2.421   4.502  18.959  0.00  0.00    +0.000 C 
BRANCH  13  16
ATOM     16  C   UNL     1       5.518   4.355  17.816  0.00  0.00    +0.000 A 
ATOM     17  C   UNL     1       6.852   4.757  17.554  0.00  0.00    +0.000 A 
ATOM     18  C   UNL     1       7.037   4.472  16.227  0.00  0.00    +0.000 A 
ATOM     19  O   UNL     1       5.898   3.948  15.715  0.00  0.00    +0.000 OA
ATOM     20  N   UNL     1       4.943   3.861  16.711  0.00  0.00    +0.000 NA
ENDBRANCH  13  16
BRANCH  14  21
ATOM     21  O   UNL     1       3.307   2.884  20.482  0.00  0.00    +0.000 OA
ATOM     22  H   UNL     1       2.904   3.539  21.080  0.00  0.00    +0.000 HD
ENDBRANCH  14  21
BRANCH  15  23
ATOM     23  O   UNL     1       1.196   4.080  19.568  0.00  0.00    +0.000 OA
ATOM     24  H   UNL     1       0.626   4.880  19.611  0.00  0.00    +0.000 HD
ENDBRANCH  15  23
ENDBRANCH  10  11
BRANCH   1  25
ATOM     25  N   UNL     1       0.851  11.257  18.329  0.00  0.00    +0.000 N 
ATOM     26  H   UNL     1       1.759  11.506  17.933  0.00  0.00    +0.000 HD
BRANCH  25  28
ATOM     27  C   UNL     1      -1.116  12.377  18.150  0.00  0.00    +0.000 C 
ATOM     28  O   UNL     1       0.146  12.368  18.810  0.00  0.00    +0.000 OA
ENDBRANCH  25  28
ENDBRANCH   1  25
TORSDOF 6
ENDMDL
MODEL 3
REMARK VINA RESULT:      -7.4      3.277      5.114
REMARK  Name = 
REMARK  7 active torsions:
REMARK  status: ('A' for Active; 'I' for Inactive)
REMARK    1  A    between atoms: C_1  and  O_2
REMARK    2  A    between atoms: O_2  and  N_3
REMARK    3  A    between atoms: N_3  and  C_4
REMARK    4  A    between atoms: N_13  and  C_14
REMARK    5  A    between atoms: C_16  and  C_17
REMARK    6  A    between atoms: C_22  and  O_23
REMARK    7  A    between atoms: C_24  and  O_25
REMARK                            x       y       z     vdW  Elec       q    Type
REMARK                         _______ _______ _______ _____ _____    ______ ____
ROOT
ATOM      1  C   UNL     1       1.579   3.976  20.514  0.00  0.00    +0.000 A 
ATOM      2  N   UNL     1       0.989   5.172  20.773  0.00  0.00    +0.000 NA
ATOM      3  C   UNL     1       1.691   6.292  20.527  0.00  0.00    +0.000 A 
ATOM      4 CL   UNL     1       0.874   7.758  20.859  0.00  0.00    +0.000 Cl
ATOM      5  N   UNL     1       2.948   6.426  20.059  0.00  0.00    +0.000 NA
ATOM      6  C   UNL     1       3.496   5.221  19.836  0.00  0.00    +0.000 A 
ATOM      7  C   UNL     1       2.903   3.985  20.033  0.00  0.00    +0.000 A 
ATOM      8  N   UNL     1       3.758   2.966  19.673  0.00  0.00    +0.000 NA
ATOM      9  C   UNL     1       4.848   3.576  19.257  0.00  0.00    +0.000 A 
ATOM     10  N   UNL     1       4.741   4.942  19.340  0.00  0.00    +0.000 N 
ENDROOT
BRANCH  10  11
ATOM     11  C   UNL     1       5.768   5.881  18.933  0.00  0.00    +0.000 C 
ATOM     12  O   UNL     1       5.483   6.363  17.606  0.00  0.00    +0.000 OA
ATOM     13  C   UNL     1       6.725   6.396  16.854  0.00  0.00    +0.000 C 
ATOM     14  C   UNL     1       7.855   6.165  17.868  0.00  0.00    +0.000 C 
ATOM     15  C   UNL     1       7.191   5.331  18.950  0.00  0.00    +0.000 C 
BRANCH  13  16
ATOM     16  C   UNL     1       6.704   5.462  15.684  0.00  0.00    +0.000 A 
ATOM     17  C   UNL     1       5.716   4.501  15.355  0.00  0.00    +0.000 A 
ATOM     18  C   UNL     1       6.115   4.007  14.141  0.00  0.00    +0.000 A 
ATOM     19  O   UNL     1       7.266   4.613  13.764  0.00  0.00    +0.000 OA
ATOM     20  N   UNL     1       7.636   5.537  14.724  0.00  0.00    +0.000 NA
ENDBRANCH  13  16
BRANCH  14  21
ATOM     21  O   UNL     1       8.307   7.394  18.487  0.00  0.00    +0.000 OA
ATOM     22  H   UNL     1       8.865   7.186  19.258  0.00  0.00    +0.000 HD
ENDBRANCH  14  21
BRANCH  15  23
ATOM     23  O   UNL     1       7.822   5.528  20.220  0.00  0.00    +0.000 OA
ATOM     24  H   UNL     1       8.430   4.765  20.342  0.00  0.00    +0.000 HD
ENDBRANCH  15  23
ENDBRANCH  10  11
BRANCH   1  25
ATOM     25  N   UNL     1       0.876   2.766  20.715  0.00  0.00    +0.000 N 
ATOM     26  H   UNL     1       1.533   2.041  21.007  0.00  0.00    +0.000 HD
BRANCH  25  28
ATOM     27  C   UNL     1       0.790   2.276  18.499  0.00  0.00    +0.000 C 
ATOM     28  O   UNL     1       0.017   2.340  19.694  0.00  0.00    +0.000 OA
ENDBRANCH  25  28
ENDBRANCH   1  25
TORSDOF 6
ENDMDL
MODEL 4
REMARK VINA RESULT:      -7.2      1.085      1.190
REMARK  Name = 
REMARK  7 active torsions:
REMARK  status: ('A' for Active; 'I' for Inactive)
REMARK    1  A    between atoms: C_1  and  O_2
REMARK    2  A    between atoms: O_2  and  N_3
REMARK    3  A    between atoms: N_3  and  C_4
REMARK    4  A    between atoms: N_13  and  C_14
REMARK    5  A    between atoms: C_16  and  C_17
REMARK    6  A    between atoms: C_22  and  O_23
REMARK    7  A    between atoms: C_24  and  O_25
REMARK                            x       y       z     vdW  Elec       q    Type
REMARK                         _______ _______ _______ _____ _____    ______ ____
ROOT
ATOM      1  C   UNL     1       1.231  10.441  19.277  0.00  0.00    +0.000 A 
ATOM      2  N   UNL     1       0.716  10.365  20.531  0.00  0.00    +0.000 NA
ATOM      3  C   UNL     1       0.753   9.177  21.160  0.00  0.00    +0.000 A 
ATOM      4 CL   UNL     1       0.103   9.164  22.743  0.00  0.00    +0.000 Cl
ATOM      5  N   UNL     1       1.227   7.994  20.723  0.00  0.00    +0.000 NA
ATOM      6  C   UNL     1       1.708   8.113  19.476  0.00  0.00    +0.000 A 
ATOM      7  C   UNL     1       1.746   9.262  18.703  0.00  0.00    +0.000 A 
ATOM      8  N   UNL     1       2.335   9.014  17.481  0.00  0.00    +0.000 NA
ATOM      9  C   UNL     1       2.655   7.738  17.518  0.00  0.00    +0.000 A 
ATOM     10  N   UNL     1       2.293   7.146  18.703  0.00  0.00    +0.000 N 
ENDROOT
BRANCH  10  11
ATOM     11  C   UNL     1       2.536   5.759  19.046  0.00  0.00    +0.000 C 
ATOM     12  O   UNL     1       3.768   5.653  19.785  0.00  0.00    +0.000 OA
ATOM     13  C   UNL     1       4.498   4.498  19.296  0.00  0.00    +0.000 C 
ATOM     14  C   UNL     1       3.531   3.722  18.389  0.00  0.00    +0.000 C 
ATOM     15  C   UNL     1       2.603   4.802  17.860  0.00  0.00    +0.000 C 
BRANCH  13  16
ATOM     16  C   UNL     1       5.806   4.877  18.672  0.00  0.00    +0.000 A 
ATOM     17  C   UNL     1       6.869   5.609  19.256  0.00  0.00    +0.000 A 
ATOM     18  C   UNL     1       7.863   5.573  18.313  0.00  0.00    +0.000 A 
ATOM     19  O   UNL     1       7.433   4.883  17.230  0.00  0.00    +0.000 OA
ATOM     20  N   UNL     1       6.144   4.433  17.453  0.00  0.00    +0.000 NA
ENDBRANCH  13  16
BRANCH  14  21
ATOM     21  O   UNL     1       2.717   2.777  19.126  0.00  0.00    +0.000 OA
ATOM     22  H   UNL     1       2.188   2.246  18.504  0.00  0.00    +0.000 HD
ENDBRANCH  14  21
BRANCH  15  23
ATOM     23  O   UNL     1       1.315   4.268  17.535  0.00  0.00    +0.000 OA
ATOM     24  H   UNL     1       0.676   5.005  17.664  0.00  0.00    +0.000 HD
ENDBRANCH  15  23
ENDBRANCH  10  11
BRANCH   1  25
ATOM     25  N   UNL     1       1.256  11.671  18.581  0.00  0.00    +0.000 N 
ATOM     26  H   UNL     1       1.572  11.509  17.623  0.00  0.00    +0.000 HD
BRANCH  25  28
ATOM     27  C   UNL     1       2.768  13.326  18.211  0.00  0.00    +0.000 C 
ATOM     28  O   UNL     1       1.912  12.748  19.192  0.00  0.00    +0.000 OA
ENDBRANCH  25  28
ENDBRANCH   1  25
TORSDOF 6
ENDMDL
MODEL 5
REMARK VINA RESULT:      -6.8      3.143      5.151
REMARK  Name = 
REMARK  7 active torsions:
REMARK  status: ('A' for Active; 'I' for Inactive)
REMARK    1  A    between atoms: C_1  and  O_2
REMARK    2  A    between atoms: O_2  and  N_3
REMARK    3  A    between atoms: N_3  and  C_4
REMARK    4  A    between atoms: N_13  and  C_14
REMARK    5  A    between atoms: C_16  and  C_17
REMARK    6  A    between atoms: C_22  and  O_23
REMARK    7  A    between atoms: C_24  and  O_25
REMARK                            x       y       z     vdW  Elec       q    Type
REMARK                         _______ _______ _______ _____ _____    ______ ____
ROOT
ATOM      1  C   UNL     1       1.367   4.273  20.028  0.00  0.00    +0.000 A 
ATOM      2  N   UNL     1       1.009   5.444  20.616  0.00  0.00    +0.000 NA
ATOM      3  C   UNL     1       1.776   6.526  20.393  0.00  0.00    +0.000 A 
ATOM      4 CL   UNL     1       1.250   7.967  21.151  0.00  0.00    +0.000 Cl
ATOM      5  N   UNL     1       2.901   6.638  19.659  0.00  0.00    +0.000 NA
ATOM      6  C   UNL     1       3.225   5.456  19.114  0.00  0.00    +0.000 A 
ATOM      7  C   UNL     1       2.537   4.260  19.244  0.00  0.00    +0.000 A 
ATOM      8  N   UNL     1       3.150   3.258  18.523  0.00  0.00    +0.000 NA
ATOM      9  C   UNL     1       4.188   3.840  17.958  0.00  0.00    +0.000 A 
ATOM     10  N   UNL     1       4.279   5.170  18.288  0.00  0.00    +0.000 N 
ENDROOT
BRANCH  10  11
ATOM     11  C   UNL     1       5.299   6.077  17.801  0.00  0.00    +0.000 C 
ATOM     12  O   UNL     1       5.060   6.372  16.412  0.00  0.00    +0.000 OA
ATOM     13  C   UNL     1       6.332   6.343  15.712  0.00  0.00    +0.000 C 
ATOM     14  C   UNL     1       7.423   6.281  16.791  0.00  0.00    +0.000 C 
ATOM     15  C   UNL     1       6.733   5.577  17.948  0.00  0.00    +0.000 C 
BRANCH  13  16
ATOM     16  C   UNL     1       6.385   5.264  14.676  0.00  0.00    +0.000 A 
ATOM     17  C   UNL     1       5.447   4.226  14.452  0.00  0.00    +0.000 A 
ATOM     18  C   UNL     1       5.902   3.594  13.325  0.00  0.00    +0.000 A 
ATOM     19  O   UNL     1       7.041   4.193  12.901  0.00  0.00    +0.000 OA
ATOM     20  N   UNL     1       7.344   5.251  13.739  0.00  0.00    +0.000 NA
ENDBRANCH  13  16
BRANCH  14  21
ATOM     21  O   UNL     1       7.817   7.594  17.260  0.00  0.00    +0.000 OA
ATOM     22  H   UNL     1       8.183   8.110  16.518  0.00  0.00    +0.000 HD
ENDBRANCH  14  21
BRANCH  15  23
ATOM     23  O   UNL     1       7.303   5.959  19.204  0.00  0.00    +0.000 OA
ATOM     24  H   UNL     1       7.048   5.255  19.842  0.00  0.00    +0.000 HD
ENDBRANCH  15  23
ENDBRANCH  10  11
BRANCH   1  25
ATOM     25  N   UNL     1       0.578   3.112  20.193  0.00  0.00    +0.000 N 
ATOM     26  H   UNL     1      -0.327   3.374  20.589  0.00  0.00    +0.000 HD
BRANCH  25  28
ATOM     27  C   UNL     1       1.883   2.544  21.962  0.00  0.00    +0.000 C 
ATOM     28  O   UNL     1       1.161   2.022  20.851  0.00  0.00    +0.000 OA
ENDBRANCH  25  28
ENDBRANCH   1  25
TORSDOF 6
ENDMDL
MODEL 6
REMARK VINA RESULT:      -6.8      3.005      8.144
REMARK  Name = 
REMARK  7 active torsions:
REMARK  status: ('A' for Active; 'I' for Inactive)
REMARK    1  A    between atoms: C_1  and  O_2
REMARK    2  A    between atoms: O_2  and  N_3
REMARK    3  A    between atoms: N_3  and  C_4
REMARK    4  A    between atoms: N_13  and  C_14
REMARK    5  A    between atoms: C_16  and  C_17
REMARK    6  A    between atoms: C_22  and  O_23
REMARK    7  A    between atoms: C_24  and  O_25
REMARK                            x       y       z     vdW  Elec       q    Type
REMARK                         _______ _______ _______ _____ _____    ______ ____
ROOT
ATOM      1  C   UNL     1       2.972   5.848  19.745  0.00  0.00    +0.000 A 
ATOM      2  N   UNL     1       3.666   5.889  18.578  0.00  0.00    +0.000 NA
ATOM      3  C   UNL     1       3.548   6.986  17.810  0.00  0.00    +0.000 A 
ATOM      4 CL   UNL     1       4.467   6.973  16.366  0.00  0.00    +0.000 Cl
ATOM      5  N   UNL     1       2.808   8.094  18.011  0.00  0.00    +0.000 NA
ATOM      6  C   UNL     1       2.127   8.001  19.164  0.00  0.00    +0.000 A 
ATOM      7  C   UNL     1       2.148   6.946  20.062  0.00  0.00    +0.000 A 
ATOM      8  N   UNL     1       1.343   7.209  21.149  0.00  0.00    +0.000 NA
ATOM      9  C   UNL     1       0.849   8.407  20.917  0.00  0.00    +0.000 A 
ATOM     10  N   UNL     1       1.291   8.928  19.726  0.00  0.00    +0.000 N 
ENDROOT
BRANCH  10  11
ATOM     11  C   UNL     1       0.941  10.237  19.212  0.00  0.00    +0.000 C 
ATOM     12  O   UNL     1       1.180  11.234  20.225  0.00  0.00    +0.000 OA
ATOM     13  C   UNL     1       0.066  12.166  20.221  0.00  0.00    +0.000 C 
ATOM     14  C   UNL     1      -0.759  11.856  18.963  0.00  0.00    +0.000 C 
ATOM     15  C   UNL     1      -0.499  10.378  18.728  0.00  0.00    +0.000 C 
BRANCH  13  16
ATOM     16  C   UNL     1      -0.691  12.148  21.512  0.00  0.00    +0.000 A 
ATOM     17  C   UNL     1      -1.949  12.738  21.792  0.00  0.00    +0.000 A 
ATOM     18  C   UNL     1      -2.240  12.328  23.066  0.00  0.00    +0.000 A 
ATOM     19  O   UNL     1      -1.229  11.558  23.534  0.00  0.00    +0.000 OA
ATOM     20  N   UNL     1      -0.258  11.430  22.558  0.00  0.00    +0.000 NA
ENDBRANCH  13  16
BRANCH  14  21
ATOM     21  O   UNL     1      -0.281  12.569  17.796  0.00  0.00    +0.000 OA
ATOM     22  H   UNL     1      -0.506  13.514  17.875  0.00  0.00    +0.000 HD
ENDBRANCH  14  21
BRANCH  15  23
ATOM     23  O   UNL     1      -0.630  10.040  17.343  0.00  0.00    +0.000 OA
ATOM     24  H   UNL     1      -0.354  10.841  16.842  0.00  0.00    +0.000 HD
ENDBRANCH  15  23
ENDBRANCH  10  11
BRANCH   1  25
ATOM     25  N   UNL     1       3.086   4.738  20.614  0.00  0.00    +0.000 N 
ATOM     26  H   UNL     1       4.074   4.554  20.795  0.00  0.00    +0.000 HD
BRANCH  25  28
ATOM     27  C   UNL     1       1.849   3.051  21.496  0.00  0.00    +0.000 C 
ATOM     28  O   UNL     1       2.372   3.580  20.282  0.00  0.00    +0.000 OA
ENDBRANCH  25  28
ENDBRANCH   1  25
TORSDOF 6
ENDMDL
MODEL 7
REMARK VINA RESULT:      -6.7      2.921      7.188
REMARK  Name = 
REMARK  7 active torsions:
REMARK  status: ('A' for Active; 'I' for Inactive)
REMARK    1  A    between atoms: C_1  and  O_2
REMARK    2  A    between atoms: O_2  and  N_3
REMARK    3  A    between atoms: N_3  and  C_4
REMARK    4  A    between atoms: N_13  and  C_14
REMARK    5  A    between atoms: C_16  and  C_17
REMARK    6  A    between atoms: C_22  and  O_23
REMARK    7  A    between atoms: C_24  and  O_25
REMARK                            x       y       z     vdW  Elec       q    Type
REMARK                         _______ _______ _______ _____ _____    ______ ____
ROOT
ATOM      1  C   UNL     1       3.230   4.990  18.537  0.00  0.00    +0.000 A 
ATOM      2  N   UNL     1       3.069   3.973  19.424  0.00  0.00    +0.000 NA
ATOM      3  C   UNL     1       2.421   4.231  20.573  0.00  0.00    +0.000 A 
ATOM      4 CL   UNL     1       2.240   2.897  21.630  0.00  0.00    +0.000 Cl
ATOM      5  N   UNL     1       1.895   5.391  21.015  0.00  0.00    +0.000 NA
ATOM      6  C   UNL     1       2.094   6.368  20.117  0.00  0.00    +0.000 A 
ATOM      7  C   UNL     1       2.733   6.259  18.893  0.00  0.00    +0.000 A 
ATOM      8  N   UNL     1       2.728   7.465  18.225  0.00  0.00    +0.000 NA
ATOM      9  C   UNL     1       2.089   8.289  19.029  0.00  0.00    +0.000 A 
ATOM     10  N   UNL     1       1.688   7.674  20.189  0.00  0.00    +0.000 N 
ENDROOT
BRANCH  10  11
ATOM     11  C   UNL     1       0.942   8.316  21.253  0.00  0.00    +0.000 C 
ATOM     12  O   UNL     1      -0.380   8.645  20.787  0.00  0.00    +0.000 OA
ATOM     13  C   UNL     1      -0.717   9.975  21.264  0.00  0.00    +0.000 C 
ATOM     14  C   UNL     1       0.363  10.357  22.287  0.00  0.00    +0.000 C 
ATOM     15  C   UNL     1       1.581   9.580  21.820  0.00  0.00    +0.000 C 
BRANCH  13  16
ATOM     16  C   UNL     1      -0.917  10.945  20.142  0.00  0.00    +0.000 A 
ATOM     17  C   UNL     1      -0.989  10.669  18.754  0.00  0.00    +0.000 A 
ATOM     18  C   UNL     1      -1.298  11.876  18.184  0.00  0.00    +0.000 A 
ATOM     19  O   UNL     1      -1.394  12.820  19.150  0.00  0.00    +0.000 OA
ATOM     20  N   UNL     1      -1.167  12.240  20.385  0.00  0.00    +0.000 NA
ENDBRANCH  13  16
BRANCH  14  21
ATOM     21  O   UNL     1       0.047   9.899  23.626  0.00  0.00    +0.000 OA
ATOM     22  H   UNL     1      -0.904  10.025  23.798  0.00  0.00    +0.000 HD
ENDBRANCH  14  21
BRANCH  15  23
ATOM     23  O   UNL     1       2.462   9.287  22.910  0.00  0.00    +0.000 OA
ATOM     24  H   UNL     1       2.116   8.466  23.325  0.00  0.00    +0.000 HD
ENDBRANCH  15  23
ENDBRANCH  10  11
BRANCH   1  25
ATOM     25  N   UNL     1       3.867   4.769  17.295  0.00  0.00    +0.000 N 
ATOM     26  H   UNL     1       3.772   3.786  17.038  0.00  0.00    +0.000 HD
BRANCH  25  28
ATOM     27  C   UNL     1       5.202   6.033  15.961  0.00  0.00    +0.000 C 
ATOM     28  O   UNL     1       5.177   5.244  17.147  0.00  0.00    +0.000 OA
ENDBRANCH  25  28
ENDBRANCH   1  25
TORSDOF 6
ENDMDL
MODEL 8
REMARK VINA RESULT:      -6.6      2.540      3.666
REMARK  Name = 
REMARK  7 active torsions:
REMARK  status: ('A' for Active; 'I' for Inactive)
REMARK    1  A    between atoms: C_1  and  O_2
REMARK    2  A    between atoms: O_2  and  N_3
REMARK    3  A    between atoms: N_3  and  C_4
REMARK    4  A    between atoms: N_13  and  C_14
REMARK    5  A    between atoms: C_16  and  C_17
REMARK    6  A    between atoms: C_22  and  O_23
REMARK    7  A    between atoms: C_24  and  O_25
REMARK                            x       y       z     vdW  Elec       q    Type
REMARK                         _______ _______ _______ _____ _____    ______ ____
ROOT
ATOM      1  C   UNL     1       1.442   7.233  20.624  0.00  0.00    +0.000 A 
ATOM      2  N   UNL     1       1.626   8.211  19.698  0.00  0.00    +0.000 NA
ATOM      3  C   UNL     1       2.445   7.956  18.663  0.00  0.00    +0.000 A 
ATOM      4 CL   UNL     1       2.611   9.228  17.529  0.00  0.00    +0.000 Cl
ATOM      5  N   UNL     1       3.157   6.845  18.390  0.00  0.00    +0.000 NA
ATOM      6  C   UNL     1       2.959   5.917  19.339  0.00  0.00    +0.000 A 
ATOM      7  C   UNL     1       2.146   6.025  20.455  0.00  0.00    +0.000 A 
ATOM      8  N   UNL     1       2.169   4.862  21.195  0.00  0.00    +0.000 NA
ATOM      9  C   UNL     1       2.976   4.060  20.533  0.00  0.00    +0.000 A 
ATOM     10  N   UNL     1       3.483   4.653  19.403  0.00  0.00    +0.000 N 
ENDROOT
BRANCH  10  11
ATOM     11  C   UNL     1       4.378   4.012  18.460  0.00  0.00    +0.000 C 
ATOM     12  O   UNL     1       5.744   4.252  18.850  0.00  0.00    +0.000 OA
ATOM     13  C   UNL     1       6.512   4.563  17.658  0.00  0.00    +0.000 C 
ATOM     14  C   UNL     1       5.609   4.239  16.459  0.00  0.00    +0.000 C 
ATOM     15  C   UNL     1       4.208   4.448  17.009  0.00  0.00    +0.000 C 
BRANCH  13  16
ATOM     16  C   UNL     1       7.070   5.952  17.690  0.00  0.00    +0.000 A 
ATOM     17  C   UNL     1       7.855   6.551  18.706  0.00  0.00    +0.000 A 
ATOM     18  C   UNL     1       8.198   7.774  18.192  0.00  0.00    +0.000 A 
ATOM     19  O   UNL     1       7.653   7.915  16.961  0.00  0.00    +0.000 OA
ATOM     20  N   UNL     1       6.952   6.769  16.633  0.00  0.00    +0.000 NA
ENDBRANCH  13  16
BRANCH  14  21
ATOM     21  O   UNL     1       5.708   2.853  16.047  0.00  0.00    +0.000 OA
ATOM     22  H   UNL     1       6.579   2.499  16.299  0.00  0.00    +0.000 HD
ENDBRANCH  14  21
BRANCH  15  23
ATOM     23  O   UNL     1       3.251   3.636  16.318  0.00  0.00    +0.000 OA
ATOM     24  H   UNL     1       3.353   2.729  16.684  0.00  0.00    +0.000 HD
ENDBRANCH  15  23
ENDBRANCH  10  11
BRANCH   1  25
ATOM     25  N   UNL     1       0.562   7.428  21.713  0.00  0.00    +0.000 N 
ATOM     26  H   UNL     1       0.116   6.540  21.947  0.00  0.00    +0.000 HD
BRANCH  25  28
ATOM     27  C   UNL     1      -0.136   9.316  22.764  0.00  0.00    +0.000 C 
ATOM     28  O   UNL     1      -0.351   8.487  21.626  0.00  0.00    +0.000 OA
ENDBRANCH  25  28
ENDBRANCH   1  25
TORSDOF 6
ENDMDL
MODEL 9
REMARK VINA RESULT:      -6.6      3.854      5.709
REMARK  Name = 
REMARK  7 active torsions:
REMARK  status: ('A' for Active; 'I' for Inactive)
REMARK    1  A    between atoms: C_1  and  O_2
REMARK    2  A    between atoms: O_2  and  N_3
REMARK    3  A    between atoms: N_3  and  C_4
REMARK    4  A    between atoms: N_13  and  C_14
REMARK    5  A    between atoms: C_16  and  C_17
REMARK    6  A    between atoms: C_22  and  O_23
REMARK    7  A    between atoms: C_24  and  O_25
REMARK                            x       y       z     vdW  Elec       q    Type
REMARK                         _______ _______ _______ _____ _____    ______ ____
ROOT
ATOM      1  C   UNL     1       2.211   3.099  20.411  0.00  0.00    +0.000 A 
ATOM      2  N   UNL     1       3.088   2.097  20.678  0.00  0.00    +0.000 NA
ATOM      3  C   UNL     1       4.395   2.321  20.452  0.00  0.00    +0.000 A 
ATOM      4 CL   UNL     1       5.439   1.019  20.830  0.00  0.00    +0.000 Cl
ATOM      5  N   UNL     1       5.000   3.423  19.966  0.00  0.00    +0.000 NA
ATOM      6  C   UNL     1       4.094   4.377  19.700  0.00  0.00    +0.000 A 
ATOM      7  C   UNL     1       2.724   4.300  19.885  0.00  0.00    +0.000 A 
ATOM      8  N   UNL     1       2.112   5.483  19.526  0.00  0.00    +0.000 NA
ATOM      9  C   UNL     1       3.098   6.265  19.139  0.00  0.00    +0.000 A 
ATOM     10  N   UNL     1       4.318   5.640  19.222  0.00  0.00    +0.000 N 
ENDROOT
BRANCH  10  11
ATOM     11  C   UNL     1       5.588   6.253  18.889  0.00  0.00    +0.000 C 
ATOM     12  O   UNL     1       5.569   6.690  17.516  0.00  0.00    +0.000 OA
ATOM     13  C   UNL     1       6.844   6.350  16.910  0.00  0.00    +0.000 C 
ATOM     14  C   UNL     1       7.771   5.916  18.055  0.00  0.00    +0.000 C 
ATOM     15  C   UNL     1       6.810   5.363  19.094  0.00  0.00    +0.000 C 
BRANCH  13  16
ATOM     16  C   UNL     1       6.694   5.366  15.791  0.00  0.00    +0.000 A 
ATOM     17  C   UNL     1       5.764   4.302  15.686  0.00  0.00    +0.000 A 
ATOM     18  C   UNL     1       5.971   3.793  14.432  0.00  0.00    +0.000 A 
ATOM     19  O   UNL     1       6.962   4.486  13.822  0.00  0.00    +0.000 OA
ATOM     20  N   UNL     1       7.414   5.483  14.666  0.00  0.00    +0.000 NA
ENDBRANCH  13  16
BRANCH  14  21
ATOM     21  O   UNL     1       8.465   7.034  18.662  0.00  0.00    +0.000 OA
ATOM     22  H   UNL     1       9.425   6.872  18.642  0.00  0.00    +0.000 HD
ENDBRANCH  14  21
BRANCH  15  23
ATOM     23  O   UNL     1       7.344   5.490  20.417  0.00  0.00    +0.000 OA
ATOM     24  H   UNL     1       7.767   6.377  20.453  0.00  0.00    +0.000 HD
ENDBRANCH  15  23
ENDBRANCH  10  11
BRANCH   1  25
ATOM     25  N   UNL     1       0.830   2.936  20.667  0.00  0.00    +0.000 N 
ATOM     26  H   UNL     1       0.699   2.164  21.323  0.00  0.00    +0.000 HD
BRANCH  25  28
ATOM     27  C   UNL     1       0.647   2.103  18.562  0.00  0.00    +0.000 C 
ATOM     28  O   UNL     1      -0.028   2.860  19.562  0.00  0.00    +0.000 OA
ENDBRANCH  25  28
ENDBRANCH   1  25
TORSDOF 6
ENDMDL
