MODEL 1
REMARK VINA RESULT:      -9.2      0.000      0.000
REMARK  Name = 
REMARK  11 active torsions:
REMARK  status: ('A' for Active; 'I' for Inactive)
REMARK    1  A    between atoms: C_1  and  C_2
REMARK    2  A    between atoms: C_2  and  C_3
REMARK    3  A    between atoms: C_2  and  C_4
REMARK    4  A    between atoms: C_2  and  CA_5
REMARK    5  A    between atoms: CA_5  and  C_6
REMARK    6  A    between atoms: CA_5  and  N_8
REMARK    7  A    between atoms: C_6  and  O_7
REMARK    8  A    between atoms: N_11  and  C_12
REMARK    9  A    between atoms: C_12  and  C_13
REMARK   10  A    between atoms: C_15  and  C_16
REMARK   11  A    between atoms: C_17  and  C_18
REMARK                            x       y       z     vdW  Elec       q    Type
REMARK                         _______ _______ _______ _____ _____    ______ ____
ROOT
ATOM      1  C   UNL     1       7.581   7.205  17.444  0.00  0.00    +0.000 C 
ATOM      2  C   UNL     1       7.517   5.695  17.796  0.00  0.00    +0.000 C 
ATOM      3  C   UNL     1       6.050   5.894  18.211  0.00  0.00    +0.000 C 
ATOM      4  C   UNL     1       6.033   7.138  17.287  0.00  0.00    +0.000 C 
ENDROOT
BRANCH   3   5
ATOM      5  C   UNL     1       4.965   4.858  17.909  0.00  0.00    +0.000 A 
ATOM      6  C   UNL     1       4.808   4.219  16.676  0.00  0.00    +0.000 A 
ATOM      7  N   UNL     1       3.733   3.365  16.836  0.00  0.00    +0.000 N 
ATOM      8  C   UNL     1       3.218   3.430  18.103  0.00  0.00    +0.000 A 
ATOM      9  C   UNL     1       2.146   2.729  18.665  0.00  0.00    +0.000 A 
ATOM     10  F   UNL     1       1.467   1.827  17.944  0.00  0.00    +0.000 F 
ATOM     11  C   UNL     1       1.784   2.980  19.980  0.00  0.00    +0.000 A 
ATOM     12  C   UNL     1       2.483   3.931  20.697  0.00  0.00    +0.000 A 
ATOM     13  F   UNL     1       2.129   4.188  21.963  0.00  0.00    +0.000 F 
ATOM     14  C   UNL     1       3.550   4.641  20.137  0.00  0.00    +0.000 A 
ATOM     15  C   UNL     1       3.956   4.381  18.809  0.00  0.00    +0.000 A 
ATOM     16  H   UNL     1       3.356   2.773  16.109  0.00  0.00    +0.000 HD
BRANCH   6  17
ATOM     17  C   UNL     1       5.522   4.294  15.386  0.00  0.00    +0.000 A 
ATOM     18  C   UNL     1       6.882   4.656  15.336  0.00  0.00    +0.000 A 
ATOM     19  C   UNL     1       7.576   4.699  14.119  0.00  0.00    +0.000 A 
ATOM     20  C   UNL     1       6.909   4.400  12.939  0.00  0.00    +0.000 A 
ATOM     21  F   UNL     1       7.568   4.444  11.774  0.00  0.00    +0.000 F 
ATOM     22  C   UNL     1       5.570   4.046  12.956  0.00  0.00    +0.000 A 
ATOM     23  C   UNL     1       4.890   3.972  14.177  0.00  0.00    +0.000 A 
ENDBRANCH   6  17
ENDBRANCH   3   5
BRANCH   1  24
ATOM     24  C   UNL     1       8.176   8.098  18.526  0.00  0.00    +0.000 C 
BRANCH  24  28
ATOM     25  N   UNL     1       9.286  11.491  17.807  0.00  0.00    +0.000 N 
ATOM     26  C   UNL     1       9.157  10.358  18.566  0.00  0.00    +0.000 C 
ATOM     27  O   UNL     1       9.587  10.250  19.705  0.00  0.00    +0.000 OA
ATOM     28  N   UNL     1       8.502   9.361  17.896  0.00  0.00    +0.000 N 
ATOM     29  H   UNL     1       8.789  11.528  16.929  0.00  0.00    +0.000 HD
ATOM     30  H   UNL     1       8.240   9.502  16.935  0.00  0.00    +0.000 HD
BRANCH  25  31
ATOM     31  CA  UNL     1       9.841  12.752  18.332  0.00  0.00    +0.000 C 
BRANCH  31  33
ATOM     32  C   UNL     1       9.350  15.243  17.956  0.00  0.00    +0.000 C 
ATOM     33  C   UNL     1       8.767  13.894  18.435  0.00  0.00    +0.000 C 
ATOM     34  C   UNL     1       8.256  14.075  19.876  0.00  0.00    +0.000 C 
ATOM     35  C   UNL     1       7.559  13.583  17.524  0.00  0.00    +0.000 C 
ENDBRANCH  31  33
BRANCH  31  36
ATOM     36  C   UNL     1      11.071  13.115  17.467  0.00  0.00    +0.000 C 
BRANCH  36  37
ATOM     37  O   UNL     1      11.936  11.987  17.311  0.00  0.00    +0.000 OA
ATOM     38  H   UNL     1      12.849  12.329  17.278  0.00  0.00    +0.000 HD
ENDBRANCH  36  37
ENDBRANCH  31  36
ENDBRANCH  25  31
ENDBRANCH  24  28
ENDBRANCH   1  24
TORSDOF 8
ENDMDL
MODEL 2
REMARK VINA RESULT:      -9.1      8.461     11.208
REMARK  Name = 
REMARK  11 active torsions:
REMARK  status: ('A' for Active; 'I' for Inactive)
REMARK    1  A    between atoms: C_1  and  C_2
REMARK    2  A    between atoms: C_2  and  C_3
REMARK    3  A    between atoms: C_2  and  C_4
REMARK    4  A    between atoms: C_2  and  CA_5
REMARK    5  A    between atoms: CA_5  and  C_6
REMARK    6  A    between atoms: CA_5  and  N_8
REMARK    7  A    between atoms: C_6  and  O_7
REMARK    8  A    between atoms: N_11  and  C_12
REMARK    9  A    between atoms: C_12  and  C_13
REMARK   10  A    between atoms: C_15  and  C_16
REMARK   11  A    between atoms: C_17  and  C_18
REMARK                            x       y       z     vdW  Elec       q    Type
REMARK                         _______ _______ _______ _____ _____    ______ ____
ROOT
ATOM      1  C   UNL     1       1.001   9.689  20.752  0.00  0.00    +0.000 C 
ATOM      2  C   UNL     1       0.893  11.229  20.596  0.00  0.00    +0.000 C 
ATOM      3  C   UNL     1      -0.477  11.026  19.928  0.00  0.00    +0.000 C 
ATOM      4  C   UNL     1      -0.554   9.665  20.666  0.00  0.00    +0.000 C 
ENDROOT
BRANCH   3   5
ATOM      5  C   UNL     1      -1.661  11.961  20.186  0.00  0.00    +0.000 A 
ATOM      6  C   UNL     1      -2.737  12.129  19.311  0.00  0.00    +0.000 A 
ATOM      7  N   UNL     1      -3.574  13.041  19.926  0.00  0.00    +0.000 N 
ATOM      8  C   UNL     1      -3.083  13.444  21.138  0.00  0.00    +0.000 A 
ATOM      9  C   UNL     1      -3.624  14.342  22.065  0.00  0.00    +0.000 A 
ATOM     10  F   UNL     1      -4.801  14.937  21.832  0.00  0.00    +0.000 F 
ATOM     11  C   UNL     1      -2.927  14.618  23.232  0.00  0.00    +0.000 A 
ATOM     12  C   UNL     1      -1.704  14.011  23.440  0.00  0.00    +0.000 A 
ATOM     13  F   UNL     1      -1.020  14.284  24.559  0.00  0.00    +0.000 F 
ATOM     14  C   UNL     1      -1.155  13.120  22.513  0.00  0.00    +0.000 A 
ATOM     15  C   UNL     1      -1.860  12.801  21.331  0.00  0.00    +0.000 A 
ATOM     16  H   UNL     1      -4.437  13.387  19.530  0.00  0.00    +0.000 HD
BRANCH   6  17
ATOM     17  C   UNL     1      -3.089  11.554  17.998  0.00  0.00    +0.000 A 
ATOM     18  C   UNL     1      -2.169  10.753  17.293  0.00  0.00    +0.000 A 
ATOM     19  C   UNL     1      -2.505  10.178  16.060  0.00  0.00    +0.000 A 
ATOM     20  C   UNL     1      -3.757  10.417  15.511  0.00  0.00    +0.000 A 
ATOM     21  F   UNL     1      -4.080   9.872  14.332  0.00  0.00    +0.000 F 
ATOM     22  C   UNL     1      -4.681  11.205  16.178  0.00  0.00    +0.000 A 
ATOM     23  C   UNL     1      -4.352  11.750  17.425  0.00  0.00    +0.000 A 
ENDBRANCH   6  17
ENDBRANCH   3   5
BRANCH   1  24
ATOM     24  C   UNL     1       1.811   8.982  19.672  0.00  0.00    +0.000 C 
BRANCH  24  28
ATOM     25  N   UNL     1       2.796   5.506  20.118  0.00  0.00    +0.000 N 
ATOM     26  C   UNL     1       2.553   6.648  19.403  0.00  0.00    +0.000 C 
ATOM     27  O   UNL     1       2.653   6.724  18.187  0.00  0.00    +0.000 OA
ATOM     28  N   UNL     1       2.197   7.694  20.210  0.00  0.00    +0.000 N 
ATOM     29  H   UNL     1       2.564   5.507  21.100  0.00  0.00    +0.000 HD
ATOM     30  H   UNL     1       2.204   7.572  21.208  0.00  0.00    +0.000 HD
BRANCH  25  31
ATOM     31  CA  UNL     1       3.076   4.204  19.483  0.00  0.00    +0.000 C 
BRANCH  31  33
ATOM     32  C   UNL     1       2.680   2.567  21.419  0.00  0.00    +0.000 C 
ATOM     33  C   UNL     1       2.172   3.047  20.041  0.00  0.00    +0.000 C 
ATOM     34  C   UNL     1       2.138   1.835  19.093  0.00  0.00    +0.000 C 
ATOM     35  C   UNL     1       0.724   3.545  20.250  0.00  0.00    +0.000 C 
ENDBRANCH  31  33
BRANCH  31  36
ATOM     36  C   UNL     1       4.594   3.941  19.612  0.00  0.00    +0.000 C 
BRANCH  36  37
ATOM     37  O   UNL     1       5.132   3.436  18.387  0.00  0.00    +0.000 OA
ATOM     38  H   UNL     1       4.406   3.433  17.735  0.00  0.00    +0.000 HD
ENDBRANCH  36  37
ENDBRANCH  31  36
ENDBRANCH  25  31
ENDBRANCH  24  28
ENDBRANCH   1  24
TORSDOF 8
ENDMDL
MODEL 3
REMARK VINA RESULT:      -9.1      8.347     11.330
REMARK  Name = 
REMARK  11 active torsions:
REMARK  status: ('A' for Active; 'I' for Inactive)
REMARK    1  A    between atoms: C_1  and  C_2
REMARK    2  A    between atoms: C_2  and  C_3
REMARK    3  A    between atoms: C_2  and  C_4
REMARK    4  A    between atoms: C_2  and  CA_5
REMARK    5  A    between atoms: CA_5  and  C_6
REMARK    6  A    between atoms: CA_5  and  N_8
REMARK    7  A    between atoms: C_6  and  O_7
REMARK    8  A    between atoms: N_11  and  C_12
REMARK    9  A    between atoms: C_12  and  C_13
REMARK   10  A    between atoms: C_15  and  C_16
REMARK   11  A    between atoms: C_17  and  C_18
REMARK                            x       y       z     vdW  Elec       q    Type
REMARK                         _______ _______ _______ _____ _____    ______ ____
ROOT
ATOM      1  C   UNL     1       0.812   9.268  21.226  0.00  0.00    +0.000 C 
ATOM      2  C   UNL     1       0.899  10.814  21.125  0.00  0.00    +0.000 C 
ATOM      3  C   UNL     1      -0.358  10.788  20.240  0.00  0.00    +0.000 C 
ATOM      4  C   UNL     1      -0.702   9.425  20.893  0.00  0.00    +0.000 C 
ENDROOT
BRANCH   3   5
ATOM      5  C   UNL     1      -1.458  11.846  20.350  0.00  0.00    +0.000 A 
ATOM      6  C   UNL     1      -2.454  12.048  19.391  0.00  0.00    +0.000 A 
ATOM      7  N   UNL     1      -3.237  13.077  19.882  0.00  0.00    +0.000 N 
ATOM      8  C   UNL     1      -2.788  13.520  21.097  0.00  0.00    +0.000 A 
ATOM      9  C   UNL     1      -3.298  14.529  21.921  0.00  0.00    +0.000 A 
ATOM     10  F   UNL     1      -4.394  15.213  21.565  0.00  0.00    +0.000 F 
ATOM     11  C   UNL     1      -2.655  14.825  23.113  0.00  0.00    +0.000 A 
ATOM     12  C   UNL     1      -1.513  14.124  23.448  0.00  0.00    +0.000 A 
ATOM     13  F   UNL     1      -0.879  14.414  24.592  0.00  0.00    +0.000 F 
ATOM     14  C   UNL     1      -0.994  13.120  22.624  0.00  0.00    +0.000 A 
ATOM     15  C   UNL     1      -1.649  12.782  21.419  0.00  0.00    +0.000 A 
ATOM     16  H   UNL     1      -4.034  13.472  19.403  0.00  0.00    +0.000 HD
BRANCH   6  17
ATOM     17  C   UNL     1      -2.775  11.414  18.097  0.00  0.00    +0.000 A 
ATOM     18  C   UNL     1      -1.898  10.476  17.519  0.00  0.00    +0.000 A 
ATOM     19  C   UNL     1      -2.208   9.845  16.306  0.00  0.00    +0.000 A 
ATOM     20  C   UNL     1      -3.389  10.165  15.651  0.00  0.00    +0.000 A 
ATOM     21  F   UNL     1      -3.686   9.567  14.490  0.00  0.00    +0.000 F 
ATOM     22  C   UNL     1      -4.268  11.087  16.192  0.00  0.00    +0.000 A 
ATOM     23  C   UNL     1      -3.970  11.690  17.420  0.00  0.00    +0.000 A 
ENDBRANCH   6  17
ENDBRANCH   3   5
BRANCH   1  24
ATOM     24  C   UNL     1       1.706   8.503  20.257  0.00  0.00    +0.000 C 
BRANCH  24  28
ATOM     25  N   UNL     1       2.113   4.893  20.492  0.00  0.00    +0.000 N 
ATOM     26  C   UNL     1       2.464   6.163  20.119  0.00  0.00    +0.000 C 
ATOM     27  O   UNL     1       3.453   6.427  19.452  0.00  0.00    +0.000 OA
ATOM     28  N   UNL     1       1.585   7.099  20.592  0.00  0.00    +0.000 N 
ATOM     29  H   UNL     1       1.214   4.763  20.932  0.00  0.00    +0.000 HD
ATOM     30  H   UNL     1       0.833   6.811  21.193  0.00  0.00    +0.000 HD
BRANCH  25  31
ATOM     31  CA  UNL     1       2.819   3.691  20.012  0.00  0.00    +0.000 C 
BRANCH  31  33
ATOM     32  C   UNL     1       0.603   2.787  19.086  0.00  0.00    +0.000 C 
ATOM     33  C   UNL     1       2.103   3.009  18.791  0.00  0.00    +0.000 C 
ATOM     34  C   UNL     1       2.731   1.648  18.441  0.00  0.00    +0.000 C 
ATOM     35  C   UNL     1       2.180   3.918  17.544  0.00  0.00    +0.000 C 
ENDBRANCH  31  33
BRANCH  31  36
ATOM     36  C   UNL     1       3.024   2.756  21.228  0.00  0.00    +0.000 C 
BRANCH  36  37
ATOM     37  O   UNL     1       1.951   2.891  22.163  0.00  0.00    +0.000 OA
ATOM     38  H   UNL     1       1.589   1.998  22.315  0.00  0.00    +0.000 HD
ENDBRANCH  36  37
ENDBRANCH  31  36
ENDBRANCH  25  31
ENDBRANCH  24  28
ENDBRANCH   1  24
TORSDOF 8
ENDMDL
MODEL 4
REMARK VINA RESULT:      -9.1      8.446     11.835
REMARK  Name = 
REMARK  11 active torsions:
REMARK  status: ('A' for Active; 'I' for Inactive)
REMARK    1  A    between atoms: C_1  and  C_2
REMARK    2  A    between atoms: C_2  and  C_3
REMARK    3  A    between atoms: C_2  and  C_4
REMARK    4  A    between atoms: C_2  and  CA_5
REMARK    5  A    between atoms: CA_5  and  C_6
REMARK    6  A    between atoms: CA_5  and  N_8
REMARK    7  A    between atoms: C_6  and  O_7
REMARK    8  A    between atoms: N_11  and  C_12
REMARK    9  A    between atoms: C_12  and  C_13
REMARK   10  A    between atoms: C_15  and  C_16
REMARK   11  A    between atoms: C_17  and  C_18
REMARK                            x       y       z     vdW  Elec       q    Type
REMARK                         _______ _______ _______ _____ _____    ______ ____
ROOT
ATOM      1  C   UNL     1       0.062   9.480  21.750  0.00  0.00    +0.000 C 
ATOM      2  C   UNL     1      -0.486  10.931  21.724  0.00  0.00    +0.000 C 
ATOM      3  C   UNL     1      -0.757  10.761  20.220  0.00  0.00    +0.000 C 
ATOM      4  C   UNL     1      -0.798   9.232  20.474  0.00  0.00    +0.000 C 
ENDROOT
BRANCH   3   5
ATOM      5  C   UNL     1      -2.006  11.330  19.544  0.00  0.00    +0.000 A 
ATOM      6  C   UNL     1      -2.844  12.290  20.118  0.00  0.00    +0.000 A 
ATOM      7  N   UNL     1      -3.830  12.528  19.179  0.00  0.00    +0.000 N 
ATOM      8  C   UNL     1      -3.648  11.777  18.049  0.00  0.00    +0.000 A 
ATOM      9  C   UNL     1      -4.412  11.730  16.878  0.00  0.00    +0.000 A 
ATOM     10  F   UNL     1      -5.493  12.507  16.737  0.00  0.00    +0.000 F 
ATOM     11  C   UNL     1      -4.044  10.863  15.860  0.00  0.00    +0.000 A 
ATOM     12  C   UNL     1      -2.939  10.054  16.038  0.00  0.00    +0.000 A 
ATOM     13  F   UNL     1      -2.586   9.204  15.063  0.00  0.00    +0.000 F 
ATOM     14  C   UNL     1      -2.177  10.091  17.210  0.00  0.00    +0.000 A 
ATOM     15  C   UNL     1      -2.515  10.987  18.248  0.00  0.00    +0.000 A 
ATOM     16  H   UNL     1      -4.604  13.165  19.308  0.00  0.00    +0.000 HD
BRANCH   6  17
ATOM     17  C   UNL     1      -2.844  13.010  21.407  0.00  0.00    +0.000 A 
ATOM     18  C   UNL     1      -3.556  12.507  22.512  0.00  0.00    +0.000 A 
ATOM     19  C   UNL     1      -3.537  13.167  23.748  0.00  0.00    +0.000 A 
ATOM     20  C   UNL     1      -2.823  14.350  23.882  0.00  0.00    +0.000 A 
ATOM     21  F   UNL     1      -2.806  14.985  25.060  0.00  0.00    +0.000 F 
ATOM     22  C   UNL     1      -2.117  14.872  22.811  0.00  0.00    +0.000 A 
ATOM     23  C   UNL     1      -2.112  14.191  21.587  0.00  0.00    +0.000 A 
ENDBRANCH   6  17
ENDBRANCH   3   5
BRANCH   1  24
ATOM     24  C   UNL     1       1.578   9.356  21.654  0.00  0.00    +0.000 C 
BRANCH  24  28
ATOM     25  N   UNL     1       2.299   6.000  20.441  0.00  0.00    +0.000 N 
ATOM     26  C   UNL     1       2.122   7.353  20.327  0.00  0.00    +0.000 C 
ATOM     27  O   UNL     1       2.185   7.960  19.268  0.00  0.00    +0.000 OA
ATOM     28  N   UNL     1       1.878   7.944  21.536  0.00  0.00    +0.000 N 
ATOM     29  H   UNL     1       2.103   5.574  21.335  0.00  0.00    +0.000 HD
ATOM     30  H   UNL     1       1.911   7.388  22.373  0.00  0.00    +0.000 HD
BRANCH  25  31
ATOM     31  CA  UNL     1       2.452   5.108  19.277  0.00  0.00    +0.000 C 
BRANCH  31  33
ATOM     32  C   UNL     1       1.238   3.549  20.914  0.00  0.00    +0.000 C 
ATOM     33  C   UNL     1       2.012   3.631  19.579  0.00  0.00    +0.000 C 
ATOM     34  C   UNL     1       3.217   2.677  19.663  0.00  0.00    +0.000 C 
ATOM     35  C   UNL     1       1.057   3.116  18.479  0.00  0.00    +0.000 C 
ENDBRANCH  31  33
BRANCH  31  36
ATOM     36  C   UNL     1       3.909   5.244  18.775  0.00  0.00    +0.000 C 
BRANCH  36  37
ATOM     37  O   UNL     1       3.982   6.123  17.650  0.00  0.00    +0.000 OA
ATOM     38  H   UNL     1       3.074   6.234  17.313  0.00  0.00    +0.000 HD
ENDBRANCH  36  37
ENDBRANCH  31  36
ENDBRANCH  25  31
ENDBRANCH  24  28
ENDBRANCH   1  24
TORSDOF 8
ENDMDL
MODEL 5
REMARK VINA RESULT:      -9.0      8.046     11.651
REMARK  Name = 
REMARK  11 active torsions:
REMARK  status: ('A' for Active; 'I' for Inactive)
REMARK    1  A    between atoms: C_1  and  C_2
REMARK    2  A    between atoms: C_2  and  C_3
REMARK    3  A    between atoms: C_2  and  C_4
REMARK    4  A    between atoms: C_2  and  CA_5
REMARK    5  A    between atoms: CA_5  and  C_6
REMARK    6  A    between atoms: CA_5  and  N_8
REMARK    7  A    between atoms: C_6  and  O_7
REMARK    8  A    between atoms: N_11  and  C_12
REMARK    9  A    between atoms: C_12  and  C_13
REMARK   10  A    between atoms: C_15  and  C_16
REMARK   11  A    between atoms: C_17  and  C_18
REMARK                            x       y       z     vdW  Elec       q    Type
REMARK                         _______ _______ _______ _____ _____    ______ ____
ROOT
ATOM      1  C   UNL     1       0.738   9.287  21.234  0.00  0.00    +0.000 C 
ATOM      2  C   UNL     1       0.581  10.741  20.715  0.00  0.00    +0.000 C 
ATOM      3  C   UNL     1      -0.289  10.197  19.570  0.00  0.00    +0.000 C 
ATOM      4  C   UNL     1      -0.585   8.973  20.473  0.00  0.00    +0.000 C 
ENDROOT
BRANCH   3   5
ATOM      5  C   UNL     1      -1.531  10.935  19.065  0.00  0.00    +0.000 A 
ATOM      6  C   UNL     1      -2.159  11.979  19.750  0.00  0.00    +0.000 A 
ATOM      7  N   UNL     1      -3.219  12.362  18.949  0.00  0.00    +0.000 N 
ATOM      8  C   UNL     1      -3.281  11.619  17.800  0.00  0.00    +0.000 A 
ATOM      9  C   UNL     1      -4.189  11.695  16.738  0.00  0.00    +0.000 A 
ATOM     10  F   UNL     1      -5.171  12.605  16.744  0.00  0.00    +0.000 F 
ATOM     11  C   UNL     1      -4.069  10.812  15.676  0.00  0.00    +0.000 A 
ATOM     12  C   UNL     1      -3.063   9.865  15.703  0.00  0.00    +0.000 A 
ATOM     13  F   UNL     1      -2.950   9.000  14.687  0.00  0.00    +0.000 F 
ATOM     14  C   UNL     1      -2.158   9.780  16.767  0.00  0.00    +0.000 A 
ATOM     15  C   UNL     1      -2.243  10.688  17.845  0.00  0.00    +0.000 A 
ATOM     16  H   UNL     1      -3.882  13.088  19.181  0.00  0.00    +0.000 HD
BRANCH   6  17
ATOM     17  C   UNL     1      -1.902  12.665  21.031  0.00  0.00    +0.000 A 
ATOM     18  C   UNL     1      -2.401  12.142  22.240  0.00  0.00    +0.000 A 
ATOM     19  C   UNL     1      -2.135  12.769  23.465  0.00  0.00    +0.000 A 
ATOM     20  C   UNL     1      -1.386  13.938  23.489  0.00  0.00    +0.000 A 
ATOM     21  F   UNL     1      -1.134  14.541  24.657  0.00  0.00    +0.000 F 
ATOM     22  C   UNL     1      -0.887  14.479  22.316  0.00  0.00    +0.000 A 
ATOM     23  C   UNL     1      -1.127  13.831  21.098  0.00  0.00    +0.000 A 
ENDBRANCH   6  17
ENDBRANCH   3   5
BRANCH   1  24
ATOM     24  C   UNL     1       2.019   8.580  20.808  0.00  0.00    +0.000 C 
BRANCH  24  28
ATOM     25  N   UNL     1       2.095   4.954  20.498  0.00  0.00    +0.000 N 
ATOM     26  C   UNL     1       2.552   6.229  20.298  0.00  0.00    +0.000 C 
ATOM     27  O   UNL     1       3.539   6.502  19.631  0.00  0.00    +0.000 OA
ATOM     28  N   UNL     1       1.780   7.158  20.941  0.00  0.00    +0.000 N 
ATOM     29  H   UNL     1       1.203   4.839  20.955  0.00  0.00    +0.000 HD
ATOM     30  H   UNL     1       1.024   6.850  21.529  0.00  0.00    +0.000 HD
BRANCH  25  31
ATOM     31  CA  UNL     1       2.671   3.779  19.817  0.00  0.00    +0.000 C 
BRANCH  31  33
ATOM     32  C   UNL     1       0.449   2.707  19.108  0.00  0.00    +0.000 C 
ATOM     33  C   UNL     1       1.794   3.284  18.611  0.00  0.00    +0.000 C 
ATOM     34  C   UNL     1       2.508   2.196  17.788  0.00  0.00    +0.000 C 
ATOM     35  C   UNL     1       1.452   4.461  17.672  0.00  0.00    +0.000 C 
ENDBRANCH  31  33
BRANCH  31  36
ATOM     36  C   UNL     1       2.934   2.700  20.893  0.00  0.00    +0.000 C 
BRANCH  36  37
ATOM     37  O   UNL     1       2.121   2.922  22.049  0.00  0.00    +0.000 OA
ATOM     38  H   UNL     1       1.849   3.858  22.032  0.00  0.00    +0.000 HD
ENDBRANCH  36  37
ENDBRANCH  31  36
ENDBRANCH  25  31
ENDBRANCH  24  28
ENDBRANCH   1  24
TORSDOF 8
ENDMDL
MODEL 6
REMARK VINA RESULT:      -9.0      7.774     11.471
REMARK  Name = 
REMARK  11 active torsions:
REMARK  status: ('A' for Active; 'I' for Inactive)
REMARK    1  A    between atoms: C_1  and  C_2
REMARK    2  A    between atoms: C_2  and  C_3
REMARK    3  A    between atoms: C_2  and  C_4
REMARK    4  A    between atoms: C_2  and  CA_5
REMARK    5  A    between atoms: CA_5  and  C_6
REMARK    6  A    between atoms: CA_5  and  N_8
REMARK    7  A    between atoms: C_6  and  O_7
REMARK    8  A    between atoms: N_11  and  C_12
REMARK    9  A    between atoms: C_12  and  C_13
REMARK   10  A    between atoms: C_15  and  C_16
REMARK   11  A    between atoms: C_17  and  C_18
REMARK                            x       y       z     vdW  Elec       q    Type
REMARK                         _______ _______ _______ _____ _____    ______ ____
ROOT
ATOM      1  C   UNL     1       0.211   9.009  21.158  0.00  0.00    +0.000 C 
ATOM      2  C   UNL     1       0.327  10.072  22.283  0.00  0.00    +0.000 C 
ATOM      3  C   UNL     1       0.268  11.165  21.203  0.00  0.00    +0.000 C 
ATOM      4  C   UNL     1      -0.445  10.129  20.297  0.00  0.00    +0.000 C 
ENDROOT
BRANCH   3   5
ATOM      5  C   UNL     1      -0.498  12.474  21.404  0.00  0.00    +0.000 A 
ATOM      6  C   UNL     1      -0.180  13.678  20.771  0.00  0.00    +0.000 A 
ATOM      7  N   UNL     1      -1.117  14.590  21.219  0.00  0.00    +0.000 N 
ATOM      8  C   UNL     1      -2.006  14.019  22.089  0.00  0.00    +0.000 A 
ATOM      9  C   UNL     1      -3.097  14.592  22.752  0.00  0.00    +0.000 A 
ATOM     10  F   UNL     1      -3.410  15.880  22.564  0.00  0.00    +0.000 F 
ATOM     11  C   UNL     1      -3.853  13.814  23.616  0.00  0.00    +0.000 A 
ATOM     12  C   UNL     1      -3.497  12.494  23.813  0.00  0.00    +0.000 A 
ATOM     13  F   UNL     1      -4.215  11.741  24.657  0.00  0.00    +0.000 F 
ATOM     14  C   UNL     1      -2.403  11.918  23.159  0.00  0.00    +0.000 A 
ATOM     15  C   UNL     1      -1.636  12.684  22.252  0.00  0.00    +0.000 A 
ATOM     16  H   UNL     1      -1.142  15.566  20.955  0.00  0.00    +0.000 HD
BRANCH   6  17
ATOM     17  C   UNL     1       0.865  14.085  19.811  0.00  0.00    +0.000 A 
ATOM     18  C   UNL     1       1.139  15.447  19.581  0.00  0.00    +0.000 A 
ATOM     19  C   UNL     1       2.150  15.843  18.694  0.00  0.00    +0.000 A 
ATOM     20  C   UNL     1       2.880  14.879  18.014  0.00  0.00    +0.000 A 
ATOM     21  F   UNL     1       3.844  15.254  17.163  0.00  0.00    +0.000 F 
ATOM     22  C   UNL     1       2.630  13.532  18.215  0.00  0.00    +0.000 A 
ATOM     23  C   UNL     1       1.642  13.141  19.127  0.00  0.00    +0.000 A 
ENDBRANCH   6  17
ENDBRANCH   3   5
BRANCH   1  24
ATOM     24  C   UNL     1       1.532   8.403  20.700  0.00  0.00    +0.000 C 
BRANCH  24  28
ATOM     25  N   UNL     1       1.940   4.791  20.483  0.00  0.00    +0.000 N 
ATOM     26  C   UNL     1       2.288   6.098  20.267  0.00  0.00    +0.000 C 
ATOM     27  O   UNL     1       3.271   6.443  19.628  0.00  0.00    +0.000 OA
ATOM     28  N   UNL     1       1.414   6.968  20.860  0.00  0.00    +0.000 N 
ATOM     29  H   UNL     1       1.045   4.608  20.913  0.00  0.00    +0.000 HD
ATOM     30  H   UNL     1       0.667   6.607  21.429  0.00  0.00    +0.000 HD
BRANCH  25  31
ATOM     31  CA  UNL     1       2.641   3.658  19.852  0.00  0.00    +0.000 C 
BRANCH  31  33
ATOM     32  C   UNL     1       1.531   4.225  17.609  0.00  0.00    +0.000 C 
ATOM     33  C   UNL     1       1.881   3.092  18.600  0.00  0.00    +0.000 C 
ATOM     34  C   UNL     1       0.575   2.378  18.994  0.00  0.00    +0.000 C 
ATOM     35  C   UNL     1       2.773   2.091  17.833  0.00  0.00    +0.000 C 
ENDBRANCH  31  33
BRANCH  31  36
ATOM     36  C   UNL     1       2.914   2.608  20.955  0.00  0.00    +0.000 C 
BRANCH  36  37
ATOM     37  O   UNL     1       2.206   2.931  22.155  0.00  0.00    +0.000 OA
ATOM     38  H   UNL     1       2.839   3.375  22.750  0.00  0.00    +0.000 HD
ENDBRANCH  36  37
ENDBRANCH  31  36
ENDBRANCH  25  31
ENDBRANCH  24  28
ENDBRANCH   1  24
TORSDOF 8
ENDMDL
MODEL 7
REMARK VINA RESULT:      -8.9      7.819     10.942
REMARK  Name = 
REMARK  11 active torsions:
REMARK  status: ('A' for Active; 'I' for Inactive)
REMARK    1  A    between atoms: C_1  and  C_2
REMARK    2  A    between atoms: C_2  and  C_3
REMARK    3  A    between atoms: C_2  and  C_4
REMARK    4  A    between atoms: C_2  and  CA_5
REMARK    5  A    between atoms: CA_5  and  C_6
REMARK    6  A    between atoms: CA_5  and  N_8
REMARK    7  A    between atoms: C_6  and  O_7
REMARK    8  A    between atoms: N_11  and  C_12
REMARK    9  A    between atoms: C_12  and  C_13
REMARK   10  A    between atoms: C_15  and  C_16
REMARK   11  A    between atoms: C_17  and  C_18
REMARK                            x       y       z     vdW  Elec       q    Type
REMARK                         _______ _______ _______ _____ _____    ______ ____
ROOT
ATOM      1  C   UNL     1      -0.002   8.776  21.455  0.00  0.00    +0.000 C 
ATOM      2  C   UNL     1      -0.528   9.635  22.636  0.00  0.00    +0.000 C 
ATOM      3  C   UNL     1       0.085  10.871  21.958  0.00  0.00    +0.000 C 
ATOM      4  C   UNL     1      -0.001  10.091  20.621  0.00  0.00    +0.000 C 
ENDROOT
BRANCH   3   5
ATOM      5  C   UNL     1      -0.616  12.232  21.951  0.00  0.00    +0.000 A 
ATOM      6  C   UNL     1      -0.159  13.349  21.245  0.00  0.00    +0.000 A 
ATOM      7  N   UNL     1      -1.079  14.348  21.500  0.00  0.00    +0.000 N 
ATOM      8  C   UNL     1      -2.087  13.914  22.318  0.00  0.00    +0.000 A 
ATOM      9  C   UNL     1      -3.203  14.606  22.803  0.00  0.00    +0.000 A 
ATOM     10  F   UNL     1      -3.414  15.884  22.462  0.00  0.00    +0.000 F 
ATOM     11  C   UNL     1      -4.090  13.959  23.649  0.00  0.00    +0.000 A 
ATOM     12  C   UNL     1      -3.839  12.648  24.007  0.00  0.00    +0.000 A 
ATOM     13  F   UNL     1      -4.686  12.022  24.834  0.00  0.00    +0.000 F 
ATOM     14  C   UNL     1      -2.721  11.955  23.532  0.00  0.00    +0.000 A 
ATOM     15  C   UNL     1      -1.819  12.584  22.646  0.00  0.00    +0.000 A 
ATOM     16  H   UNL     1      -1.016  15.292  21.145  0.00  0.00    +0.000 HD
BRANCH   6  17
ATOM     17  C   UNL     1       1.002  13.603  20.370  0.00  0.00    +0.000 A 
ATOM     18  C   UNL     1       2.190  14.149  20.892  0.00  0.00    +0.000 A 
ATOM     19  C   UNL     1       3.309  14.365  20.075  0.00  0.00    +0.000 A 
ATOM     20  C   UNL     1       3.239  14.057  18.724  0.00  0.00    +0.000 A 
ATOM     21  F   UNL     1       4.304  14.266  17.939  0.00  0.00    +0.000 F 
ATOM     22  C   UNL     1       2.082  13.524  18.180  0.00  0.00    +0.000 A 
ATOM     23  C   UNL     1       0.979  13.279  19.007  0.00  0.00    +0.000 A 
ENDBRANCH   6  17
ENDBRANCH   3   5
BRANCH   1  24
ATOM     24  C   UNL     1       1.320   8.062  21.711  0.00  0.00    +0.000 C 
BRANCH  24  28
ATOM     25  N   UNL     1       2.687   6.216  18.886  0.00  0.00    +0.000 N 
ATOM     26  C   UNL     1       2.134   6.356  20.131  0.00  0.00    +0.000 C 
ATOM     27  O   UNL     1       1.923   5.421  20.890  0.00  0.00    +0.000 OA
ATOM     28  N   UNL     1       1.837   7.660  20.419  0.00  0.00    +0.000 N 
ATOM     29  H   UNL     1       2.939   7.056  18.386  0.00  0.00    +0.000 HD
ATOM     30  H   UNL     1       1.976   8.365  19.715  0.00  0.00    +0.000 HD
BRANCH  25  31
ATOM     31  CA  UNL     1       3.212   4.935  18.378  0.00  0.00    +0.000 C 
BRANCH  31  33
ATOM     32  C   UNL     1       4.642   6.515  16.947  0.00  0.00    +0.000 C 
ATOM     33  C   UNL     1       4.547   5.102  17.566  0.00  0.00    +0.000 C 
ATOM     34  C   UNL     1       4.662   4.071  16.429  0.00  0.00    +0.000 C 
ATOM     35  C   UNL     1       5.768   4.942  18.497  0.00  0.00    +0.000 C 
ENDBRANCH  31  33
BRANCH  31  36
ATOM     36  C   UNL     1       2.073   4.246  17.590  0.00  0.00    +0.000 C 
BRANCH  36  37
ATOM     37  O   UNL     1       1.211   3.519  18.469  0.00  0.00    +0.000 OA
ATOM     38  H   UNL     1       0.295   3.748  18.225  0.00  0.00    +0.000 HD
ENDBRANCH  36  37
ENDBRANCH  31  36
ENDBRANCH  25  31
ENDBRANCH  24  28
ENDBRANCH   1  24
TORSDOF 8
ENDMDL
MODEL 8
REMARK VINA RESULT:      -8.9      7.739     11.487
REMARK  Name = 
REMARK  11 active torsions:
REMARK  status: ('A' for Active; 'I' for Inactive)
REMARK    1  A    between atoms: C_1  and  C_2
REMARK    2  A    between atoms: C_2  and  C_3
REMARK    3  A    between atoms: C_2  and  C_4
REMARK    4  A    between atoms: C_2  and  CA_5
REMARK    5  A    between atoms: CA_5  and  C_6
REMARK    6  A    between atoms: CA_5  and  N_8
REMARK    7  A    between atoms: C_6  and  O_7
REMARK    8  A    between atoms: N_11  and  C_12
REMARK    9  A    between atoms: C_12  and  C_13
REMARK   10  A    between atoms: C_15  and  C_16
REMARK   11  A    between atoms: C_17  and  C_18
REMARK                            x       y       z     vdW  Elec       q    Type
REMARK                         _______ _______ _______ _____ _____    ______ ____
ROOT
ATOM      1  C   UNL     1       0.238   9.005  21.061  0.00  0.00    +0.000 C 
ATOM      2  C   UNL     1       0.242   9.972  22.275  0.00  0.00    +0.000 C 
ATOM      3  C   UNL     1       0.332  11.147  21.287  0.00  0.00    +0.000 C 
ATOM      4  C   UNL     1      -0.290  10.207  20.224  0.00  0.00    +0.000 C 
ENDROOT
BRANCH   3   5
ATOM      5  C   UNL     1      -0.427  12.458  21.504  0.00  0.00    +0.000 A 
ATOM      6  C   UNL     1      -0.085  13.674  20.906  0.00  0.00    +0.000 A 
ATOM      7  N   UNL     1      -1.023  14.584  21.356  0.00  0.00    +0.000 N 
ATOM      8  C   UNL     1      -1.934  14.001  22.195  0.00  0.00    +0.000 A 
ATOM      9  C   UNL     1      -3.032  14.568  22.850  0.00  0.00    +0.000 A 
ATOM     10  F   UNL     1      -3.331  15.864  22.687  0.00  0.00    +0.000 F 
ATOM     11  C   UNL     1      -3.812  13.778  23.681  0.00  0.00    +0.000 A 
ATOM     12  C   UNL     1      -3.471  12.450  23.854  0.00  0.00    +0.000 A 
ATOM     13  F   UNL     1      -4.213  11.685  24.666  0.00  0.00    +0.000 F 
ATOM     14  C   UNL     1      -2.370  11.880  23.208  0.00  0.00    +0.000 A 
ATOM     15  C   UNL     1      -1.579  12.659  22.334  0.00  0.00    +0.000 A 
ATOM     16  H   UNL     1      -1.034  15.566  21.114  0.00  0.00    +0.000 HD
BRANCH   6  17
ATOM     17  C   UNL     1       0.981  14.094  19.976  0.00  0.00    +0.000 A 
ATOM     18  C   UNL     1       1.186  13.413  18.760  0.00  0.00    +0.000 A 
ATOM     19  C   UNL     1       2.175  13.823  17.857  0.00  0.00    +0.000 A 
ATOM     20  C   UNL     1       2.984  14.906  18.172  0.00  0.00    +0.000 A 
ATOM     21  F   UNL     1       3.933  15.298  17.313  0.00  0.00    +0.000 F 
ATOM     22  C   UNL     1       2.811  15.592  19.362  0.00  0.00    +0.000 A 
ATOM     23  C   UNL     1       1.799  15.199  20.247  0.00  0.00    +0.000 A 
ENDBRANCH   6  17
ENDBRANCH   3   5
BRANCH   1  24
ATOM     24  C   UNL     1       1.591   8.398  20.711  0.00  0.00    +0.000 C 
BRANCH  24  28
ATOM     25  N   UNL     1       1.960   4.785  20.452  0.00  0.00    +0.000 N 
ATOM     26  C   UNL     1       2.322   6.090  20.250  0.00  0.00    +0.000 C 
ATOM     27  O   UNL     1       3.306   6.432  19.612  0.00  0.00    +0.000 OA
ATOM     28  N   UNL     1       1.459   6.962  20.855  0.00  0.00    +0.000 N 
ATOM     29  H   UNL     1       1.064   4.606  20.882  0.00  0.00    +0.000 HD
ATOM     30  H   UNL     1       0.710   6.603  21.422  0.00  0.00    +0.000 HD
BRANCH  25  31
ATOM     31  CA  UNL     1       2.647   3.651  19.806  0.00  0.00    +0.000 C 
BRANCH  31  33
ATOM     32  C   UNL     1       2.715   2.051  17.800  0.00  0.00    +0.000 C 
ATOM     33  C   UNL     1       1.868   3.096  18.559  0.00  0.00    +0.000 C 
ATOM     34  C   UNL     1       1.489   4.216  17.573  0.00  0.00    +0.000 C 
ATOM     35  C   UNL     1       0.574   2.380  19.006  0.00  0.00    +0.000 C 
ENDBRANCH  31  33
BRANCH  31  36
ATOM     36  C   UNL     1       2.928   2.594  20.899  0.00  0.00    +0.000 C 
BRANCH  36  37
ATOM     37  O   UNL     1       2.338   2.976  22.144  0.00  0.00    +0.000 OA
ATOM     38  H   UNL     1       2.409   3.947  22.208  0.00  0.00    +0.000 HD
ENDBRANCH  36  37
ENDBRANCH  31  36
ENDBRANCH  25  31
ENDBRANCH  24  28
ENDBRANCH   1  24
TORSDOF 8
ENDMDL
MODEL 9
REMARK VINA RESULT:      -8.8      8.000     11.126
REMARK  Name = 
REMARK  11 active torsions:
REMARK  status: ('A' for Active; 'I' for Inactive)
REMARK    1  A    between atoms: C_1  and  C_2
REMARK    2  A    between atoms: C_2  and  C_3
REMARK    3  A    between atoms: C_2  and  C_4
REMARK    4  A    between atoms: C_2  and  CA_5
REMARK    5  A    between atoms: CA_5  and  C_6
REMARK    6  A    between atoms: CA_5  and  N_8
REMARK    7  A    between atoms: C_6  and  O_7
REMARK    8  A    between atoms: N_11  and  C_12
REMARK    9  A    between atoms: C_12  and  C_13
REMARK   10  A    between atoms: C_15  and  C_16
REMARK   11  A    between atoms: C_17  and  C_18
REMARK                            x       y       z     vdW  Elec       q    Type
REMARK                         _______ _______ _______ _____ _____    ______ ____
ROOT
ATOM      1  C   UNL     1       0.014   8.912  21.686  0.00  0.00    +0.000 C 
ATOM      2  C   UNL     1      -0.410   9.854  22.843  0.00  0.00    +0.000 C 
ATOM      3  C   UNL     1       0.010  11.049  21.972  0.00  0.00    +0.000 C 
ATOM      4  C   UNL     1      -0.197  10.131  20.740  0.00  0.00    +0.000 C 
ENDROOT
BRANCH   3   5
ATOM      5  C   UNL     1      -0.785  12.356  21.937  0.00  0.00    +0.000 A 
ATOM      6  C   UNL     1      -0.426  13.476  21.182  0.00  0.00    +0.000 A 
ATOM      7  N   UNL     1      -1.409  14.417  21.427  0.00  0.00    +0.000 N 
ATOM      8  C   UNL     1      -2.363  13.943  22.286  0.00  0.00    +0.000 A 
ATOM      9  C   UNL     1      -3.513  14.572  22.775  0.00  0.00    +0.000 A 
ATOM     10  F   UNL     1      -3.823  15.819  22.396  0.00  0.00    +0.000 F 
ATOM     11  C   UNL     1      -4.332  13.895  23.666  0.00  0.00    +0.000 A 
ATOM     12  C   UNL     1      -3.980  12.619  24.061  0.00  0.00    +0.000 A 
ATOM     13  F   UNL     1      -4.760  11.965  24.932  0.00  0.00    +0.000 F 
ATOM     14  C   UNL     1      -2.828  11.989  23.581  0.00  0.00    +0.000 A 
ATOM     15  C   UNL     1      -1.994  12.648  22.651  0.00  0.00    +0.000 A 
ATOM     16  H   UNL     1      -1.421  15.350  21.038  0.00  0.00    +0.000 HD
BRANCH   6  17
ATOM     17  C   UNL     1       0.693  13.780  20.269  0.00  0.00    +0.000 A 
ATOM     18  C   UNL     1       0.827  13.099  19.043  0.00  0.00    +0.000 A 
ATOM     19  C   UNL     1       1.868  13.403  18.155  0.00  0.00    +0.000 A 
ATOM     20  C   UNL     1       2.798  14.375  18.497  0.00  0.00    +0.000 A 
ATOM     21  F   UNL     1       3.796  14.664  17.653  0.00  0.00    +0.000 F 
ATOM     22  C   UNL     1       2.696  15.057  19.698  0.00  0.00    +0.000 A 
ATOM     23  C   UNL     1       1.635  14.774  20.566  0.00  0.00    +0.000 A 
ENDBRANCH   6  17
ENDBRANCH   3   5
BRANCH   1  24
ATOM     24  C   UNL     1       1.409   8.311  21.816  0.00  0.00    +0.000 C 
BRANCH  24  28
ATOM     25  N   UNL     1       2.421   6.284  18.966  0.00  0.00    +0.000 N 
ATOM     26  C   UNL     1       1.994   6.502  20.249  0.00  0.00    +0.000 C 
ATOM     27  O   UNL     1       1.812   5.612  21.066  0.00  0.00    +0.000 OA
ATOM     28  N   UNL     1       1.785   7.830  20.503  0.00  0.00    +0.000 N 
ATOM     29  H   UNL     1       2.664   7.089  18.408  0.00  0.00    +0.000 HD
ATOM     30  H   UNL     1       1.889   8.498  19.758  0.00  0.00    +0.000 HD
BRANCH  25  31
ATOM     31  CA  UNL     1       2.838   4.958  18.473  0.00  0.00    +0.000 C 
BRANCH  31  33
ATOM     32  C   UNL     1       4.350   3.919  16.678  0.00  0.00    +0.000 C 
ATOM     33  C   UNL     1       4.258   4.977  17.800  0.00  0.00    +0.000 C 
ATOM     34  C   UNL     1       5.380   4.699  18.817  0.00  0.00    +0.000 C 
ATOM     35  C   UNL     1       4.525   6.348  17.141  0.00  0.00    +0.000 C 
ENDBRANCH  31  33
BRANCH  31  36
ATOM     36  C   UNL     1       1.710   4.428  17.556  0.00  0.00    +0.000 C 
BRANCH  36  37
ATOM     37  O   UNL     1       1.153   3.219  18.079  0.00  0.00    +0.000 OA
ATOM     38  H   UNL     1       0.491   2.906  17.434  0.00  0.00    +0.000 HD
ENDBRANCH  36  37
ENDBRANCH  31  36
ENDBRANCH  25  31
ENDBRANCH  24  28
ENDBRANCH   1  24
TORSDOF 8
ENDMDL
