MODEL 1
REMARK VINA RESULT:      -8.4      0.000      0.000
REMARK  Name = 
REMARK  8 active torsions:
REMARK  status: ('A' for Active; 'I' for Inactive)
REMARK    1  A    between atoms: C_2  and  C_4
REMARK    2  A    between atoms: C_4  and  N_5
REMARK    3  A    between atoms: C_4  and  C_6
REMARK    4  A    between atoms: C_6  and  C_7
REMARK    5  A    between atoms: C_10  and  C_11
REMARK    6  A    between atoms: N_13  and  C_14
REMARK    7  A    between atoms: C_16  and  C_17
REMARK    8  A    between atoms: C_24  and  N_25
REMARK                            x       y       z     vdW  Elec       q    Type
REMARK                         _______ _______ _______ _____ _____    ______ ____
ROOT
ATOM      1  C   UNL     1       7.661   7.835  18.066  0.00  0.00    +0.000 C 
ATOM      2  O   UNL     1       8.161   6.931  18.735  0.00  0.00    +0.000 OA
ATOM      3  N   UNL     1       6.605   7.702  17.178  0.00  0.00    +0.000 N 
ATOM      4  H   UNL     1       6.478   8.431  16.489  0.00  0.00    +0.000 HD
ENDROOT
BRANCH   1   8
ATOM      5  C   UNL     1       9.567  11.643  18.568  0.00  0.00    +0.000 A 
ATOM      6  C   UNL     1       9.861  10.564  19.407  0.00  0.00    +0.000 A 
ATOM      7  C   UNL     1       9.241   9.336  19.207  0.00  0.00    +0.000 A 
ATOM      8  C   UNL     1       8.304   9.167  18.178  0.00  0.00    +0.000 A 
ATOM      9  C   UNL     1       7.961  10.254  17.369  0.00  0.00    +0.000 A 
ATOM     10  C   UNL     1       8.594  11.488  17.567  0.00  0.00    +0.000 A 
BRANCH   5  11
ATOM     11  C   UNL     1      10.341  12.939  18.704  0.00  0.00    +0.000 C 
BRANCH  11  12
ATOM     12  C   UNL     1      10.828  13.451  17.334  0.00  0.00    +0.000 C 
BRANCH  12  14
ATOM     13  N   UNL     1      11.196  15.534  16.093  0.00  0.00    +0.000 N 
ATOM     14  C   UNL     1      10.897  14.992  17.313  0.00  0.00    +0.000 C 
ATOM     15  O   UNL     1      10.801  15.704  18.308  0.00  0.00    +0.000 OA
ATOM     16  H   UNL     1      11.180  16.545  16.029  0.00  0.00    +0.000 HD
ATOM     17  H   UNL     1      11.111  15.005  15.237  0.00  0.00    +0.000 HD
ENDBRANCH  12  14
BRANCH  12  18
ATOM     18  N   UNL     1      12.167  12.918  17.003  0.00  0.00    +0.000 NA
ATOM     19  H   UNL     1      12.604  13.555  16.334  0.00  0.00    +0.000 HD
ATOM     20  H   UNL     1      12.050  12.041  16.494  0.00  0.00    +0.000 HD
ENDBRANCH  12  18
ENDBRANCH  11  12
ENDBRANCH   5  11
ENDBRANCH   1   8
BRANCH   3  21
ATOM     21  C   UNL     1       5.865   6.503  16.973  0.00  0.00    +0.000 A 
ATOM     22  C   UNL     1       4.716   6.227  17.733  0.00  0.00    +0.000 A 
ATOM     23  C   UNL     1       4.034   5.005  17.654  0.00  0.00    +0.000 A 
ATOM     24  C   UNL     1       4.476   4.069  16.719  0.00  0.00    +0.000 A 
ATOM     25  C   UNL     1       5.593   4.339  15.921  0.00  0.00    +0.000 A 
ATOM     26  C   UNL     1       6.289   5.558  16.013  0.00  0.00    +0.000 A 
BRANCH  23  27
ATOM     27  C   UNL     1       2.973   4.708  18.632  0.00  0.00    +0.000 A 
ATOM     28  C   UNL     1       2.879   5.156  19.941  0.00  0.00    +0.000 A 
ATOM     29  C   UNL     1       1.755   4.621  20.635  0.00  0.00    +0.000 A 
ATOM     30  C   UNL     1       1.007   3.796  19.828  0.00  0.00    +0.000 A 
ATOM     31  S   UNL     1       1.650   3.686  18.246  0.00  0.00    +0.000 S 
ENDBRANCH  23  27
BRANCH  26  32
ATOM     32  N   UNL     1       7.514   5.668  15.325  0.00  0.00    +0.000 N 
ATOM     33  H   UNL     1       8.322   5.528  15.921  0.00  0.00    +0.000 HD
ATOM     34  H   UNL     1       7.580   5.123  14.476  0.00  0.00    +0.000 HD
ENDBRANCH  26  32
ENDBRANCH   3  21
TORSDOF 8
ENDMDL
MODEL 2
REMARK VINA RESULT:      -7.9      0.669      1.212
REMARK  Name = 
REMARK  8 active torsions:
REMARK  status: ('A' for Active; 'I' for Inactive)
REMARK    1  A    between atoms: C_2  and  C_4
REMARK    2  A    between atoms: C_4  and  N_5
REMARK    3  A    between atoms: C_4  and  C_6
REMARK    4  A    between atoms: C_6  and  C_7
REMARK    5  A    between atoms: C_10  and  C_11
REMARK    6  A    between atoms: N_13  and  C_14
REMARK    7  A    between atoms: C_16  and  C_17
REMARK    8  A    between atoms: C_24  and  N_25
REMARK                            x       y       z     vdW  Elec       q    Type
REMARK                         _______ _______ _______ _____ _____    ______ ____
ROOT
ATOM      1  C   UNL     1       7.705   7.816  18.114  0.00  0.00    +0.000 C 
ATOM      2  O   UNL     1       8.247   6.924  18.765  0.00  0.00    +0.000 OA
ATOM      3  N   UNL     1       6.653   7.652  17.225  0.00  0.00    +0.000 N 
ATOM      4  H   UNL     1       6.491   8.387  16.551  0.00  0.00    +0.000 HD
ENDROOT
BRANCH   1   8
ATOM      5  C   UNL     1       9.321  11.783  18.332  0.00  0.00    +0.000 A 
ATOM      6  C   UNL     1       8.311  11.455  17.423  0.00  0.00    +0.000 A 
ATOM      7  C   UNL     1       7.793  10.165  17.390  0.00  0.00    +0.000 A 
ATOM      8  C   UNL     1       8.286   9.174  18.250  0.00  0.00    +0.000 A 
ATOM      9  C   UNL     1       9.334   9.476  19.124  0.00  0.00    +0.000 A 
ATOM     10  C   UNL     1       9.847  10.779  19.162  0.00  0.00    +0.000 A 
BRANCH   5  11
ATOM     11  C   UNL     1       9.788  13.219  18.459  0.00  0.00    +0.000 C 
BRANCH  11  12
ATOM     12  C   UNL     1      10.467  13.706  17.164  0.00  0.00    +0.000 C 
BRANCH  12  14
ATOM     13  N   UNL     1      10.974  15.868  16.123  0.00  0.00    +0.000 N 
ATOM     14  C   UNL     1      10.925  15.173  17.300  0.00  0.00    +0.000 C 
ATOM     15  O   UNL     1      11.320  15.683  18.344  0.00  0.00    +0.000 OA
ATOM     16  H   UNL     1      11.202  16.853  16.185  0.00  0.00    +0.000 HD
ATOM     17  H   UNL     1      10.502  15.544  15.290  0.00  0.00    +0.000 HD
ENDBRANCH  12  14
BRANCH  12  18
ATOM     18  N   UNL     1      11.646  12.878  16.828  0.00  0.00    +0.000 NA
ATOM     19  H   UNL     1      11.343  11.903  16.780  0.00  0.00    +0.000 HD
ATOM     20  H   UNL     1      12.300  12.913  17.611  0.00  0.00    +0.000 HD
ENDBRANCH  12  18
ENDBRANCH  11  12
ENDBRANCH   5  11
ENDBRANCH   1   8
BRANCH   3  21
ATOM     21  C   UNL     1       5.968   6.425  16.999  0.00  0.00    +0.000 A 
ATOM     22  C   UNL     1       4.857   6.066  17.780  0.00  0.00    +0.000 A 
ATOM     23  C   UNL     1       4.235   4.815  17.677  0.00  0.00    +0.000 A 
ATOM     24  C   UNL     1       4.695   3.934  16.698  0.00  0.00    +0.000 A 
ATOM     25  C   UNL     1       5.774   4.286  15.881  0.00  0.00    +0.000 A 
ATOM     26  C   UNL     1       6.411   5.535  15.995  0.00  0.00    +0.000 A 
BRANCH  23  27
ATOM     27  C   UNL     1       3.217   4.432  18.672  0.00  0.00    +0.000 A 
ATOM     28  C   UNL     1       2.808   3.152  19.014  0.00  0.00    +0.000 A 
ATOM     29  C   UNL     1       1.751   3.140  19.969  0.00  0.00    +0.000 A 
ATOM     30  C   UNL     1       1.396   4.413  20.349  0.00  0.00    +0.000 A 
ATOM     31  S   UNL     1       2.347   5.605  19.571  0.00  0.00    +0.000 S 
ENDBRANCH  23  27
BRANCH  26  32
ATOM     32  N   UNL     1       7.609   5.730  15.280  0.00  0.00    +0.000 N 
ATOM     33  H   UNL     1       7.705   5.111  14.482  0.00  0.00    +0.000 HD
ATOM     34  H   UNL     1       7.809   6.690  15.032  0.00  0.00    +0.000 HD
ENDBRANCH  26  32
ENDBRANCH   3  21
TORSDOF 8
ENDMDL
MODEL 3
REMARK VINA RESULT:      -7.9      1.040      1.174
REMARK  Name = 
REMARK  8 active torsions:
REMARK  status: ('A' for Active; 'I' for Inactive)
REMARK    1  A    between atoms: C_2  and  C_4
REMARK    2  A    between atoms: C_4  and  N_5
REMARK    3  A    between atoms: C_4  and  C_6
REMARK    4  A    between atoms: C_6  and  C_7
REMARK    5  A    between atoms: C_10  and  C_11
REMARK    6  A    between atoms: N_13  and  C_14
REMARK    7  A    between atoms: C_16  and  C_17
REMARK    8  A    between atoms: C_24  and  N_25
REMARK                            x       y       z     vdW  Elec       q    Type
REMARK                         _______ _______ _______ _____ _____    ______ ____
ROOT
ATOM      1  C   UNL     1       7.641   7.741  17.995  0.00  0.00    +0.000 C 
ATOM      2  O   UNL     1       8.147   6.837  18.657  0.00  0.00    +0.000 OA
ATOM      3  N   UNL     1       6.608   7.600  17.080  0.00  0.00    +0.000 N 
ATOM      4  H   UNL     1       6.479   8.339  16.403  0.00  0.00    +0.000 HD
ENDROOT
BRANCH   1   8
ATOM      5  C   UNL     1       9.440  11.584  18.615  0.00  0.00    +0.000 A 
ATOM      6  C   UNL     1       9.750  10.493  19.432  0.00  0.00    +0.000 A 
ATOM      7  C   UNL     1       9.165   9.254  19.194  0.00  0.00    +0.000 A 
ATOM      8  C   UNL     1       8.247   9.086  18.148  0.00  0.00    +0.000 A 
ATOM      9  C   UNL     1       7.888  10.183  17.359  0.00  0.00    +0.000 A 
ATOM     10  C   UNL     1       8.486  11.427  17.596  0.00  0.00    +0.000 A 
BRANCH   5  11
ATOM     11  C   UNL     1      10.178  12.896  18.792  0.00  0.00    +0.000 C 
BRANCH  11  12
ATOM     12  C   UNL     1       9.792  13.912  17.700  0.00  0.00    +0.000 C 
BRANCH  12  14
ATOM     13  N   UNL     1       8.614  16.053  17.487  0.00  0.00    +0.000 N 
ATOM     14  C   UNL     1       9.335  15.246  18.325  0.00  0.00    +0.000 C 
ATOM     15  O   UNL     1       9.657  15.635  19.444  0.00  0.00    +0.000 OA
ATOM     16  H   UNL     1       8.239  16.904  17.887  0.00  0.00    +0.000 HD
ATOM     17  H   UNL     1       8.190  15.702  16.640  0.00  0.00    +0.000 HD
ENDBRANCH  12  14
BRANCH  12  18
ATOM     18  N   UNL     1      10.926  14.186  16.792  0.00  0.00    +0.000 NA
ATOM     19  H   UNL     1      11.636  14.700  17.318  0.00  0.00    +0.000 HD
ATOM     20  H   UNL     1      10.613  14.835  16.069  0.00  0.00    +0.000 HD
ENDBRANCH  12  18
ENDBRANCH  11  12
ENDBRANCH   5  11
ENDBRANCH   1   8
BRANCH   3  21
ATOM     21  C   UNL     1       5.903   6.388  16.835  0.00  0.00    +0.000 A 
ATOM     22  C   UNL     1       4.744   6.069  17.561  0.00  0.00    +0.000 A 
ATOM     23  C   UNL     1       4.095   4.833  17.442  0.00  0.00    +0.000 A 
ATOM     24  C   UNL     1       4.582   3.926  16.501  0.00  0.00    +0.000 A 
ATOM     25  C   UNL     1       5.711   4.239  15.736  0.00  0.00    +0.000 A 
ATOM     26  C   UNL     1       6.373   5.473  15.867  0.00  0.00    +0.000 A 
BRANCH  23  27
ATOM     27  C   UNL     1       3.017   4.491  18.389  0.00  0.00    +0.000 A 
ATOM     28  C   UNL     1       2.117   3.441  18.301  0.00  0.00    +0.000 A 
ATOM     29  C   UNL     1       1.157   3.439  19.353  0.00  0.00    +0.000 A 
ATOM     30  C   UNL     1       1.365   4.477  20.231  0.00  0.00    +0.000 A 
ATOM     31  S   UNL     1       2.718   5.429  19.793  0.00  0.00    +0.000 S 
ENDBRANCH  23  27
BRANCH  26  32
ATOM     32  N   UNL     1       7.612   5.625  15.213  0.00  0.00    +0.000 N 
ATOM     33  H   UNL     1       7.857   4.834  14.628  0.00  0.00    +0.000 HD
ATOM     34  H   UNL     1       7.732   6.502  14.721  0.00  0.00    +0.000 HD
ENDBRANCH  26  32
ENDBRANCH   3  21
TORSDOF 8
ENDMDL
MODEL 4
REMARK VINA RESULT:      -7.8      6.636     10.092
REMARK  Name = 
REMARK  8 active torsions:
REMARK  status: ('A' for Active; 'I' for Inactive)
REMARK    1  A    between atoms: C_2  and  C_4
REMARK    2  A    between atoms: C_4  and  N_5
REMARK    3  A    between atoms: C_4  and  C_6
REMARK    4  A    between atoms: C_6  and  C_7
REMARK    5  A    between atoms: C_10  and  C_11
REMARK    6  A    between atoms: N_13  and  C_14
REMARK    7  A    between atoms: C_16  and  C_17
REMARK    8  A    between atoms: C_24  and  N_25
REMARK                            x       y       z     vdW  Elec       q    Type
REMARK                         _______ _______ _______ _____ _____    ______ ____
ROOT
ATOM      1  C   UNL     1       1.760   8.829  18.511  0.00  0.00    +0.000 C 
ATOM      2  O   UNL     1       1.917   9.442  17.456  0.00  0.00    +0.000 OA
ATOM      3  N   UNL     1       0.989   9.243  19.587  0.00  0.00    +0.000 N 
ATOM      4  H   UNL     1       1.166   8.812  20.484  0.00  0.00    +0.000 HD
ENDROOT
BRANCH   1   8
ATOM      5  C   UNL     1       4.019   5.191  18.753  0.00  0.00    +0.000 A 
ATOM      6  C   UNL     1       4.177   6.080  17.685  0.00  0.00    +0.000 A 
ATOM      7  C   UNL     1       3.445   7.260  17.645  0.00  0.00    +0.000 A 
ATOM      8  C   UNL     1       2.528   7.569  18.660  0.00  0.00    +0.000 A 
ATOM      9  C   UNL     1       2.320   6.662  19.703  0.00  0.00    +0.000 A 
ATOM     10  C   UNL     1       3.067   5.477  19.746  0.00  0.00    +0.000 A 
BRANCH   5  11
ATOM     11  C   UNL     1       4.913   3.973  18.863  0.00  0.00    +0.000 C 
BRANCH  11  12
ATOM     12  C   UNL     1       4.184   2.798  19.544  0.00  0.00    +0.000 C 
BRANCH  12  14
ATOM     13  N   UNL     1       4.047   0.723  18.244  0.00  0.00    +0.000 N 
ATOM     14  C   UNL     1       3.450   1.927  18.504  0.00  0.00    +0.000 C 
ATOM     15  O   UNL     1       2.468   2.290  17.865  0.00  0.00    +0.000 OA
ATOM     16  H   UNL     1       3.554   0.097  17.619  0.00  0.00    +0.000 HD
ATOM     17  H   UNL     1       4.741   0.325  18.862  0.00  0.00    +0.000 HD
ENDBRANCH  12  14
BRANCH  12  18
ATOM     18  N   UNL     1       5.127   1.939  20.293  0.00  0.00    +0.000 NA
ATOM     19  H   UNL     1       5.668   1.398  19.615  0.00  0.00    +0.000 HD
ATOM     20  H   UNL     1       4.588   1.245  20.814  0.00  0.00    +0.000 HD
ENDBRANCH  12  18
ENDBRANCH  11  12
ENDBRANCH   5  11
ENDBRANCH   1   8
BRANCH   3  21
ATOM     21  C   UNL     1       0.173  10.410  19.597  0.00  0.00    +0.000 A 
ATOM     22  C   UNL     1      -1.112  10.395  19.031  0.00  0.00    +0.000 A 
ATOM     23  C   UNL     1      -1.895  11.551  18.905  0.00  0.00    +0.000 A 
ATOM     24  C   UNL     1      -1.398  12.738  19.443  0.00  0.00    +0.000 A 
ATOM     25  C   UNL     1      -0.138  12.768  20.049  0.00  0.00    +0.000 A 
ATOM     26  C   UNL     1       0.656  11.612  20.160  0.00  0.00    +0.000 A 
BRANCH  23  27
ATOM     27  C   UNL     1      -3.136  11.498  18.112  0.00  0.00    +0.000 A 
ATOM     28  C   UNL     1      -3.276  11.118  16.785  0.00  0.00    +0.000 A 
ATOM     29  C   UNL     1      -4.611  11.249  16.306  0.00  0.00    +0.000 A 
ATOM     30  C   UNL     1      -5.461  11.703  17.287  0.00  0.00    +0.000 A 
ATOM     31  S   UNL     1      -4.652  11.950  18.775  0.00  0.00    +0.000 S 
ENDBRANCH  23  27
BRANCH  26  32
ATOM     32  N   UNL     1       1.986  11.769  20.596  0.00  0.00    +0.000 N 
ATOM     33  H   UNL     1       2.655  11.821  19.835  0.00  0.00    +0.000 HD
ATOM     34  H   UNL     1       2.132  12.509  21.271  0.00  0.00    +0.000 HD
ENDBRANCH  26  32
ENDBRANCH   3  21
TORSDOF 8
ENDMDL
MODEL 5
REMARK VINA RESULT:      -7.7      6.069      8.433
REMARK  Name = 
REMARK  8 active torsions:
REMARK  status: ('A' for Active; 'I' for Inactive)
REMARK    1  A    between atoms: C_2  and  C_4
REMARK    2  A    between atoms: C_4  and  N_5
REMARK    3  A    between atoms: C_4  and  C_6
REMARK    4  A    between atoms: C_6  and  C_7
REMARK    5  A    between atoms: C_10  and  C_11
REMARK    6  A    between atoms: N_13  and  C_14
REMARK    7  A    between atoms: C_16  and  C_17
REMARK    8  A    between atoms: C_24  and  N_25
REMARK                            x       y       z     vdW  Elec       q    Type
REMARK                         _______ _______ _______ _____ _____    ______ ____
ROOT
ATOM      1  C   UNL     1       3.337   6.626  18.389  0.00  0.00    +0.000 C 
ATOM      2  O   UNL     1       3.099   5.488  18.792  0.00  0.00    +0.000 OA
ATOM      3  N   UNL     1       4.467   7.023  17.691  0.00  0.00    +0.000 N 
ATOM      4  H   UNL     1       4.682   8.011  17.671  0.00  0.00    +0.000 HD
ENDROOT
BRANCH   1   8
ATOM      5  C   UNL     1       0.536   9.747  19.286  0.00  0.00    +0.000 A 
ATOM      6  C   UNL     1       1.074   9.596  18.005  0.00  0.00    +0.000 A 
ATOM      7  C   UNL     1       1.965   8.562  17.740  0.00  0.00    +0.000 A 
ATOM      8  C   UNL     1       2.349   7.671  18.753  0.00  0.00    +0.000 A 
ATOM      9  C   UNL     1       1.860   7.847  20.050  0.00  0.00    +0.000 A 
ATOM     10  C   UNL     1       0.955   8.883  20.312  0.00  0.00    +0.000 A 
BRANCH   5  11
ATOM     11  C   UNL     1      -0.535  10.789  19.539  0.00  0.00    +0.000 C 
BRANCH  11  12
ATOM     12  C   UNL     1      -1.007  11.442  18.225  0.00  0.00    +0.000 C 
BRANCH  12  14
ATOM     13  N   UNL     1      -3.296  11.858  17.449  0.00  0.00    +0.000 N 
ATOM     14  C   UNL     1      -2.388  10.899  17.804  0.00  0.00    +0.000 C 
ATOM     15  O   UNL     1      -2.718   9.718  17.868  0.00  0.00    +0.000 OA
ATOM     16  H   UNL     1      -4.190  11.533  17.101  0.00  0.00    +0.000 HD
ATOM     17  H   UNL     1      -3.016  12.802  17.222  0.00  0.00    +0.000 HD
ENDBRANCH  12  14
BRANCH  12  18
ATOM     18  N   UNL     1      -1.103  12.912  18.356  0.00  0.00    +0.000 NA
ATOM     19  H   UNL     1      -2.091  13.157  18.445  0.00  0.00    +0.000 HD
ATOM     20  H   UNL     1      -0.804  13.336  17.476  0.00  0.00    +0.000 HD
ENDBRANCH  12  18
ENDBRANCH  11  12
ENDBRANCH   5  11
ENDBRANCH   1   8
BRANCH   3  21
ATOM     21  C   UNL     1       5.494   6.144  17.244  0.00  0.00    +0.000 A 
ATOM     22  C   UNL     1       5.623   5.820  15.884  0.00  0.00    +0.000 A 
ATOM     23  C   UNL     1       6.534   4.863  15.419  0.00  0.00    +0.000 A 
ATOM     24  C   UNL     1       7.397   4.278  16.345  0.00  0.00    +0.000 A 
ATOM     25  C   UNL     1       7.315   4.616  17.700  0.00  0.00    +0.000 A 
ATOM     26  C   UNL     1       6.389   5.564  18.170  0.00  0.00    +0.000 A 
BRANCH  23  27
ATOM     27  C   UNL     1       6.463   4.423  14.014  0.00  0.00    +0.000 A 
ATOM     28  C   UNL     1       5.510   3.601  13.432  0.00  0.00    +0.000 A 
ATOM     29  C   UNL     1       5.779   3.318  12.062  0.00  0.00    +0.000 A 
ATOM     30  C   UNL     1       6.920   3.952  11.627  0.00  0.00    +0.000 A 
ATOM     31  S   UNL     1       7.643   4.891  12.860  0.00  0.00    +0.000 S 
ENDBRANCH  23  27
BRANCH  26  32
ATOM     32  N   UNL     1       6.234   5.695  19.564  0.00  0.00    +0.000 N 
ATOM     33  H   UNL     1       5.415   6.232  19.828  0.00  0.00    +0.000 HD
ATOM     34  H   UNL     1       6.296   4.831  20.086  0.00  0.00    +0.000 HD
ENDBRANCH  26  32
ENDBRANCH   3  21
TORSDOF 8
ENDMDL
MODEL 6
REMARK VINA RESULT:      -7.7      6.044      8.755
REMARK  Name = 
REMARK  8 active torsions:
REMARK  status: ('A' for Active; 'I' for Inactive)
REMARK    1  A    between atoms: C_2  and  C_4
REMARK    2  A    between atoms: C_4  and  N_5
REMARK    3  A    between atoms: C_4  and  C_6
REMARK    4  A    between atoms: C_6  and  C_7
REMARK    5  A    between atoms: C_10  and  C_11
REMARK    6  A    between atoms: N_13  and  C_14
REMARK    7  A    between atoms: C_16  and  C_17
REMARK    8  A    between atoms: C_24  and  N_25
REMARK                            x       y       z     vdW  Elec       q    Type
REMARK                         _______ _______ _______ _____ _____    ______ ____
ROOT
ATOM      1  C   UNL     1       1.819   8.911  18.379  0.00  0.00    +0.000 C 
ATOM      2  O   UNL     1       1.729   9.505  17.304  0.00  0.00    +0.000 OA
ATOM      3  N   UNL     1       1.175   9.257  19.557  0.00  0.00    +0.000 N 
ATOM      4  H   UNL     1       1.544   8.882  20.419  0.00  0.00    +0.000 HD
ENDROOT
BRANCH   1   8
ATOM      5  C   UNL     1       4.586   5.636  18.315  0.00  0.00    +0.000 A 
ATOM      6  C   UNL     1       4.646   6.660  17.365  0.00  0.00    +0.000 A 
ATOM      7  C   UNL     1       3.747   7.719  17.424  0.00  0.00    +0.000 A 
ATOM      8  C   UNL     1       2.761   7.766  18.420  0.00  0.00    +0.000 A 
ATOM      9  C   UNL     1       2.657   6.720  19.340  0.00  0.00    +0.000 A 
ATOM     10  C   UNL     1       3.570   5.659  19.285  0.00  0.00    +0.000 A 
BRANCH   5  11
ATOM     11  C   UNL     1       5.649   4.555  18.329  0.00  0.00    +0.000 C 
BRANCH  11  12
ATOM     12  C   UNL     1       7.040   5.128  17.997  0.00  0.00    +0.000 C 
BRANCH  12  14
ATOM     13  N   UNL     1       8.335   6.986  18.939  0.00  0.00    +0.000 N 
ATOM     14  C   UNL     1       7.653   5.834  19.224  0.00  0.00    +0.000 C 
ATOM     15  O   UNL     1       7.641   5.380  20.364  0.00  0.00    +0.000 OA
ATOM     16  H   UNL     1       8.690   7.512  19.728  0.00  0.00    +0.000 HD
ATOM     17  H   UNL     1       8.221   7.472  18.060  0.00  0.00    +0.000 HD
ENDBRANCH  12  14
BRANCH  12  18
ATOM     18  N   UNL     1       7.970   4.066  17.556  0.00  0.00    +0.000 NA
ATOM     19  H   UNL     1       8.681   3.947  18.281  0.00  0.00    +0.000 HD
ATOM     20  H   UNL     1       8.482   4.403  16.739  0.00  0.00    +0.000 HD
ENDBRANCH  12  18
ENDBRANCH  11  12
ENDBRANCH   5  11
ENDBRANCH   1   8
BRANCH   3  21
ATOM     21  C   UNL     1       0.222  10.308  19.680  0.00  0.00    +0.000 A 
ATOM     22  C   UNL     1      -0.988  10.271  18.969  0.00  0.00    +0.000 A 
ATOM     23  C   UNL     1      -1.893  11.341  18.962  0.00  0.00    +0.000 A 
ATOM     24  C   UNL     1      -1.605  12.446  19.764  0.00  0.00    +0.000 A 
ATOM     25  C   UNL     1      -0.425  12.487  20.514  0.00  0.00    +0.000 A 
ATOM     26  C   UNL     1       0.492  11.421  20.508  0.00  0.00    +0.000 A 
BRANCH  23  27
ATOM     27  C   UNL     1      -3.032  11.316  18.027  0.00  0.00    +0.000 A 
ATOM     28  C   UNL     1      -3.011  10.997  16.678  0.00  0.00    +0.000 A 
ATOM     29  C   UNL     1      -4.283  11.140  16.051  0.00  0.00    +0.000 A 
ATOM     30  C   UNL     1      -5.247  11.542  16.946  0.00  0.00    +0.000 A 
ATOM     31  S   UNL     1      -4.620  11.726  18.528  0.00  0.00    +0.000 S 
ENDBRANCH  23  27
BRANCH  26  32
ATOM     32  N   UNL     1       1.742  11.626  21.124  0.00  0.00    +0.000 N 
ATOM     33  H   UNL     1       2.173  12.509  20.873  0.00  0.00    +0.000 HD
ATOM     34  H   UNL     1       1.757  11.477  22.125  0.00  0.00    +0.000 HD
ENDBRANCH  26  32
ENDBRANCH   3  21
TORSDOF 8
ENDMDL
MODEL 7
REMARK VINA RESULT:      -7.5      6.063      8.979
REMARK  Name = 
REMARK  8 active torsions:
REMARK  status: ('A' for Active; 'I' for Inactive)
REMARK    1  A    between atoms: C_2  and  C_4
REMARK    2  A    between atoms: C_4  and  N_5
REMARK    3  A    between atoms: C_4  and  C_6
REMARK    4  A    between atoms: C_6  and  C_7
REMARK    5  A    between atoms: C_10  and  C_11
REMARK    6  A    between atoms: N_13  and  C_14
REMARK    7  A    between atoms: C_16  and  C_17
REMARK    8  A    between atoms: C_24  and  N_25
REMARK                            x       y       z     vdW  Elec       q    Type
REMARK                         _______ _______ _______ _____ _____    ______ ____
ROOT
ATOM      1  C   UNL     1       1.627   8.718  19.253  0.00  0.00    +0.000 C 
ATOM      2  O   UNL     1       1.192   8.653  20.402  0.00  0.00    +0.000 OA
ATOM      3  N   UNL     1       1.322   9.700  18.322  0.00  0.00    +0.000 N 
ATOM      4  H   UNL     1       1.502   9.494  17.349  0.00  0.00    +0.000 HD
ENDROOT
BRANCH   1   8
ATOM      5  C   UNL     1       4.154   5.428  18.168  0.00  0.00    +0.000 A 
ATOM      6  C   UNL     1       3.432   5.430  19.366  0.00  0.00    +0.000 A 
ATOM      7  C   UNL     1       2.605   6.503  19.680  0.00  0.00    +0.000 A 
ATOM      8  C   UNL     1       2.498   7.601  18.815  0.00  0.00    +0.000 A 
ATOM      9  C   UNL     1       3.258   7.635  17.643  0.00  0.00    +0.000 A 
ATOM     10  C   UNL     1       4.083   6.548  17.324  0.00  0.00    +0.000 A 
BRANCH   5  11
ATOM     11  C   UNL     1       4.948   4.201  17.766  0.00  0.00    +0.000 C 
BRANCH  11  12
ATOM     12  C   UNL     1       5.753   4.450  16.475  0.00  0.00    +0.000 C 
BRANCH  12  14
ATOM     13  N   UNL     1       7.874   4.328  17.701  0.00  0.00    +0.000 N 
ATOM     14  C   UNL     1       7.140   5.045  16.797  0.00  0.00    +0.000 C 
ATOM     15  O   UNL     1       7.546   6.123  16.375  0.00  0.00    +0.000 OA
ATOM     16  H   UNL     1       8.816   4.652  17.882  0.00  0.00    +0.000 HD
ATOM     17  H   UNL     1       7.652   3.369  17.931  0.00  0.00    +0.000 HD
ENDBRANCH  12  14
BRANCH  12  18
ATOM     18  N   UNL     1       5.947   3.199  15.710  0.00  0.00    +0.000 NA
ATOM     19  H   UNL     1       6.230   3.451  14.761  0.00  0.00    +0.000 HD
ATOM     20  H   UNL     1       5.039   2.743  15.602  0.00  0.00    +0.000 HD
ENDBRANCH  12  18
ENDBRANCH  11  12
ENDBRANCH   5  11
ENDBRANCH   1   8
BRANCH   3  21
ATOM     21  C   UNL     1       0.525  10.849  18.588  0.00  0.00    +0.000 A 
ATOM     22  C   UNL     1      -0.873  10.750  18.685  0.00  0.00    +0.000 A 
ATOM     23  C   UNL     1      -1.702  11.872  18.818  0.00  0.00    +0.000 A 
ATOM     24  C   UNL     1      -1.095  13.122  18.941  0.00  0.00    +0.000 A 
ATOM     25  C   UNL     1       0.297  13.241  18.890  0.00  0.00    +0.000 A 
ATOM     26  C   UNL     1       1.130  12.117  18.739  0.00  0.00    +0.000 A 
BRANCH  23  27
ATOM     27  C   UNL     1      -3.162  11.707  18.697  0.00  0.00    +0.000 A 
ATOM     28  C   UNL     1      -4.145  12.283  19.487  0.00  0.00    +0.000 A 
ATOM     29  C   UNL     1      -5.460  11.857  19.139  0.00  0.00    +0.000 A 
ATOM     30  C   UNL     1      -5.446  10.983  18.077  0.00  0.00    +0.000 A 
ATOM     31  S   UNL     1      -3.860  10.699  17.498  0.00  0.00    +0.000 S 
ENDBRANCH  23  27
BRANCH  26  32
ATOM     32  N   UNL     1       2.499  12.342  18.492  0.00  0.00    +0.000 N 
ATOM     33  H   UNL     1       3.054  11.494  18.509  0.00  0.00    +0.000 HD
ATOM     34  H   UNL     1       2.701  12.902  17.675  0.00  0.00    +0.000 HD
ENDBRANCH  26  32
ENDBRANCH   3  21
TORSDOF 8
ENDMDL
MODEL 8
REMARK VINA RESULT:      -7.5      6.484      9.985
REMARK  Name = 
REMARK  8 active torsions:
REMARK  status: ('A' for Active; 'I' for Inactive)
REMARK    1  A    between atoms: C_2  and  C_4
REMARK    2  A    between atoms: C_4  and  N_5
REMARK    3  A    between atoms: C_4  and  C_6
REMARK    4  A    between atoms: C_6  and  C_7
REMARK    5  A    between atoms: C_10  and  C_11
REMARK    6  A    between atoms: N_13  and  C_14
REMARK    7  A    between atoms: C_16  and  C_17
REMARK    8  A    between atoms: C_24  and  N_25
REMARK                            x       y       z     vdW  Elec       q    Type
REMARK                         _______ _______ _______ _____ _____    ______ ____
ROOT
ATOM      1  C   UNL     1       1.848   8.822  18.432  0.00  0.00    +0.000 C 
ATOM      2  O   UNL     1       1.948   9.503  17.412  0.00  0.00    +0.000 OA
ATOM      3  N   UNL     1       1.077   9.129  19.543  0.00  0.00    +0.000 N 
ATOM      4  H   UNL     1       1.297   8.657  20.410  0.00  0.00    +0.000 HD
ENDROOT
BRANCH   1   8
ATOM      5  C   UNL     1       4.233   5.277  18.791  0.00  0.00    +0.000 A 
ATOM      6  C   UNL     1       3.238   5.584  19.724  0.00  0.00    +0.000 A 
ATOM      7  C   UNL     1       2.467   6.731  19.569  0.00  0.00    +0.000 A 
ATOM      8  C   UNL     1       2.688   7.601  18.493  0.00  0.00    +0.000 A 
ATOM      9  C   UNL     1       3.717   7.333  17.586  0.00  0.00    +0.000 A 
ATOM     10  C   UNL     1       4.485   6.172  17.738  0.00  0.00    +0.000 A 
BRANCH   5  11
ATOM     11  C   UNL     1       4.979   3.961  18.887  0.00  0.00    +0.000 C 
BRANCH  11  12
ATOM     12  C   UNL     1       4.136   2.885  19.599  0.00  0.00    +0.000 C 
BRANCH  12  14
ATOM     13  N   UNL     1       2.016   1.771  19.070  0.00  0.00    +0.000 N 
ATOM     14  C   UNL     1       3.247   2.126  18.592  0.00  0.00    +0.000 C 
ATOM     15  O   UNL     1       3.615   1.762  17.479  0.00  0.00    +0.000 OA
ATOM     16  H   UNL     1       1.381   1.333  18.414  0.00  0.00    +0.000 HD
ATOM     17  H   UNL     1       1.621   2.194  19.899  0.00  0.00    +0.000 HD
ENDBRANCH  12  14
BRANCH  12  18
ATOM     18  N   UNL     1       4.991   1.904  20.300  0.00  0.00    +0.000 NA
ATOM     19  H   UNL     1       5.928   1.956  19.894  0.00  0.00    +0.000 HD
ATOM     20  H   UNL     1       4.658   0.965  20.075  0.00  0.00    +0.000 HD
ENDBRANCH  12  18
ENDBRANCH  11  12
ENDBRANCH   5  11
ENDBRANCH   1   8
BRANCH   3  21
ATOM     21  C   UNL     1       0.198  10.245  19.636  0.00  0.00    +0.000 A 
ATOM     22  C   UNL     1      -1.020  10.263  18.936  0.00  0.00    +0.000 A 
ATOM     23  C   UNL     1      -1.851  11.390  18.897  0.00  0.00    +0.000 A 
ATOM     24  C   UNL     1      -1.484  12.500  19.657  0.00  0.00    +0.000 A 
ATOM     25  C   UNL     1      -0.297  12.490  20.396  0.00  0.00    +0.000 A 
ATOM     26  C   UNL     1       0.548  11.365  20.421  0.00  0.00    +0.000 A 
BRANCH  23  27
ATOM     27  C   UNL     1      -2.999  11.407  17.971  0.00  0.00    +0.000 A 
ATOM     28  C   UNL     1      -4.312  11.747  18.259  0.00  0.00    +0.000 A 
ATOM     29  C   UNL     1      -5.186  11.589  17.145  0.00  0.00    +0.000 A 
ATOM     30  C   UNL     1      -4.511  11.154  16.028  0.00  0.00    +0.000 A 
ATOM     31  S   UNL     1      -2.836  10.958  16.324  0.00  0.00    +0.000 S 
ENDBRANCH  23  27
BRANCH  26  32
ATOM     32  N   UNL     1       1.815  11.509  21.021  0.00  0.00    +0.000 N 
ATOM     33  H   UNL     1       1.862  12.277  21.681  0.00  0.00    +0.000 HD
ATOM     34  H   UNL     1       2.205  10.660  21.410  0.00  0.00    +0.000 HD
ENDBRANCH  26  32
ENDBRANCH   3  21
TORSDOF 8
ENDMDL
MODEL 9
REMARK VINA RESULT:      -7.5      1.621      1.766
REMARK  Name = 
REMARK  8 active torsions:
REMARK  status: ('A' for Active; 'I' for Inactive)
REMARK    1  A    between atoms: C_2  and  C_4
REMARK    2  A    between atoms: C_4  and  N_5
REMARK    3  A    between atoms: C_4  and  C_6
REMARK    4  A    between atoms: C_6  and  C_7
REMARK    5  A    between atoms: C_10  and  C_11
REMARK    6  A    between atoms: N_13  and  C_14
REMARK    7  A    between atoms: C_16  and  C_17
REMARK    8  A    between atoms: C_24  and  N_25
REMARK                            x       y       z     vdW  Elec       q    Type
REMARK                         _______ _______ _______ _____ _____    ______ ____
ROOT
ATOM      1  C   UNL     1       7.648   7.823  17.984  0.00  0.00    +0.000 C 
ATOM      2  O   UNL     1       8.175   6.921  18.634  0.00  0.00    +0.000 OA
ATOM      3  N   UNL     1       6.602   7.675  17.086  0.00  0.00    +0.000 N 
ATOM      4  H   UNL     1       6.453   8.416  16.415  0.00  0.00    +0.000 HD
ENDROOT
BRANCH   1   8
ATOM      5  C   UNL     1       9.414  11.683  18.593  0.00  0.00    +0.000 A 
ATOM      6  C   UNL     1       9.740  10.594  19.408  0.00  0.00    +0.000 A 
ATOM      7  C   UNL     1       9.165   9.351  19.173  0.00  0.00    +0.000 A 
ATOM      8  C   UNL     1       8.242   9.174  18.133  0.00  0.00    +0.000 A 
ATOM      9  C   UNL     1       7.867  10.267  17.348  0.00  0.00    +0.000 A 
ATOM     10  C   UNL     1       8.455  11.517  17.580  0.00  0.00    +0.000 A 
BRANCH   5  11
ATOM     11  C   UNL     1      10.141  13.002  18.766  0.00  0.00    +0.000 C 
BRANCH  11  12
ATOM     12  C   UNL     1       9.284  14.020  19.543  0.00  0.00    +0.000 C 
BRANCH  12  14
ATOM     13  N   UNL     1       8.719  15.231  17.486  0.00  0.00    +0.000 N 
ATOM     14  C   UNL     1       8.221  14.660  18.626  0.00  0.00    +0.000 C 
ATOM     15  O   UNL     1       7.032  14.762  18.909  0.00  0.00    +0.000 OA
ATOM     16  H   UNL     1       8.043  15.599  16.829  0.00  0.00    +0.000 HD
ATOM     17  H   UNL     1       9.646  15.020  17.143  0.00  0.00    +0.000 HD
ENDBRANCH  12  14
BRANCH  12  18
ATOM     18  N   UNL     1       8.593  13.384  20.686  0.00  0.00    +0.000 NA
ATOM     19  H   UNL     1       8.927  12.420  20.760  0.00  0.00    +0.000 HD
ATOM     20  H   UNL     1       7.601  13.301  20.459  0.00  0.00    +0.000 HD
ENDBRANCH  12  18
ENDBRANCH  11  12
ENDBRANCH   5  11
ENDBRANCH   1   8
BRANCH   3  21
ATOM     21  C   UNL     1       5.906   6.456  16.847  0.00  0.00    +0.000 A 
ATOM     22  C   UNL     1       4.750   6.132  17.576  0.00  0.00    +0.000 A 
ATOM     23  C   UNL     1       4.110   4.890  17.463  0.00  0.00    +0.000 A 
ATOM     24  C   UNL     1       4.603   3.983  16.525  0.00  0.00    +0.000 A 
ATOM     25  C   UNL     1       5.728   4.302  15.757  0.00  0.00    +0.000 A 
ATOM     26  C   UNL     1       6.382   5.541  15.882  0.00  0.00    +0.000 A 
BRANCH  23  27
ATOM     27  C   UNL     1       3.037   4.544  18.412  0.00  0.00    +0.000 A 
ATOM     28  C   UNL     1       2.109   3.519  18.303  0.00  0.00    +0.000 A 
ATOM     29  C   UNL     1       1.163   3.507  19.367  0.00  0.00    +0.000 A 
ATOM     30  C   UNL     1       1.408   4.510  20.276  0.00  0.00    +0.000 A 
ATOM     31  S   UNL     1       2.779   5.442  19.850  0.00  0.00    +0.000 S 
ENDBRANCH  23  27
BRANCH  26  32
ATOM     32  N   UNL     1       7.618   5.700  15.225  0.00  0.00    +0.000 N 
ATOM     33  H   UNL     1       7.829   6.665  14.996  0.00  0.00    +0.000 HD
ATOM     34  H   UNL     1       8.403   5.245  15.672  0.00  0.00    +0.000 HD
ENDBRANCH  26  32
ENDBRANCH   3  21
TORSDOF 8
ENDMDL
