MODEL 1
REMARK VINA RESULT:      -7.4      0.000      0.000
REMARK  Name = 
REMARK  7 active torsions:
REMARK  status: ('A' for Active; 'I' for Inactive)
REMARK    1  A    between atoms: C_1  and  C_2
REMARK    2  A    between atoms: C_2  and  C_3
REMARK    3  A    between atoms: C_2  and  N_4
REMARK    4  A    between atoms: C_9  and  C_10
REMARK    5  A    between atoms: C_9  and  C_11
REMARK    6  A    between atoms: N_13  and  C_14
REMARK    7  A    between atoms: C_14  and  C_15
REMARK                            x       y       z     vdW  Elec       q    Type
REMARK                         _______ _______ _______ _____ _____    ______ ____
ROOT
ATOM      1  C   UNL     1       4.054   6.541  17.294  0.00  0.00    +0.000 C 
ATOM      2  O   UNL     1       4.340   7.219  16.311  0.00  0.00    +0.000 OA
ATOM      3  N   UNL     1       3.144   6.972  18.238  0.00  0.00    +0.000 N 
ATOM      4  H   UNL     1       2.832   6.318  18.942  0.00  0.00    +0.000 HD
ENDROOT
BRANCH   1  10
ATOM      5  N   UNL     1       6.262   5.368  17.637  0.00  0.00    +0.000 N 
ATOM      6  C   UNL     1       6.885   4.433  16.823  0.00  0.00    +0.000 C 
ATOM      7  O   UNL     1       8.078   4.196  16.748  0.00  0.00    +0.000 OA
ATOM      8  C   UNL     1       5.848   3.827  15.926  0.00  0.00    +0.000 C 
ATOM      9  C   UNL     1       4.516   4.152  16.582  0.00  0.00    +0.000 C 
ATOM     10  C   UNL     1       4.800   5.224  17.658  0.00  0.00    +0.000 C 
ATOM     11  C   UNL     1       4.296   4.693  19.008  0.00  0.00    +0.000 C 
BRANCH   5  13
ATOM     12  C   UNL     1       8.001   5.710  19.420  0.00  0.00    +0.000 C 
ATOM     13  C   UNL     1       6.985   6.342  18.473  0.00  0.00    +0.000 C 
ATOM     14  C   UNL     1       7.682   7.405  17.613  0.00  0.00    +0.000 C 
ENDBRANCH   5  13
ENDBRANCH   1  10
BRANCH   3  15
ATOM     15  C   UNL     1       2.406   8.214  18.082  0.00  0.00    +0.000 C 
BRANCH  15  16
ATOM     16  C   UNL     1       1.675   8.594  19.345  0.00  0.00    +0.000 A 
ATOM     17  C   UNL     1       1.709   7.723  20.448  0.00  0.00    +0.000 A 
ATOM     18  C   UNL     1       1.076   8.062  21.649  0.00  0.00    +0.000 A 
ATOM     19  C   UNL     1       0.428   9.288  21.765  0.00  0.00    +0.000 A 
ATOM     20 CL   UNL     1      -0.307   9.728  23.257  0.00  0.00    +0.000 Cl
ATOM     21  C   UNL     1       0.362  10.158  20.681  0.00  0.00    +0.000 A 
ATOM     22  C   UNL     1       0.959   9.798  19.469  0.00  0.00    +0.000 A 
ATOM     23 CL   UNL     1       0.747  10.865  18.125  0.00  0.00    +0.000 Cl
ENDBRANCH  15  16
ENDBRANCH   3  15
TORSDOF 4
ENDMDL
MODEL 2
REMARK VINA RESULT:      -6.7      2.633      4.258
REMARK  Name = 
REMARK  7 active torsions:
REMARK  status: ('A' for Active; 'I' for Inactive)
REMARK    1  A    between atoms: C_1  and  C_2
REMARK    2  A    between atoms: C_2  and  C_3
REMARK    3  A    between atoms: C_2  and  N_4
REMARK    4  A    between atoms: C_9  and  C_10
REMARK    5  A    between atoms: C_9  and  C_11
REMARK    6  A    between atoms: N_13  and  C_14
REMARK    7  A    between atoms: C_14  and  C_15
REMARK                            x       y       z     vdW  Elec       q    Type
REMARK                         _______ _______ _______ _____ _____    ______ ____
ROOT
ATOM      1  C   UNL     1       1.916   6.043  20.219  0.00  0.00    +0.000 C 
ATOM      2  O   UNL     1       0.962   5.536  20.801  0.00  0.00    +0.000 OA
ATOM      3  N   UNL     1       2.235   7.378  20.368  0.00  0.00    +0.000 N 
ATOM      4  H   UNL     1       3.112   7.710  19.990  0.00  0.00    +0.000 HD
ENDROOT
BRANCH   1  10
ATOM      5  N   UNL     1       3.222   3.975  19.600  0.00  0.00    +0.000 N 
ATOM      6  C   UNL     1       4.594   3.821  19.469  0.00  0.00    +0.000 C 
ATOM      7  O   UNL     1       5.239   2.794  19.596  0.00  0.00    +0.000 OA
ATOM      8  C   UNL     1       5.202   5.176  19.267  0.00  0.00    +0.000 C 
ATOM      9  C   UNL     1       4.046   6.070  18.845  0.00  0.00    +0.000 C 
ATOM     10  C   UNL     1       2.748   5.288  19.141  0.00  0.00    +0.000 C 
ATOM     11  C   UNL     1       1.943   5.183  17.838  0.00  0.00    +0.000 C 
BRANCH   5  13
ATOM     12  C   UNL     1       2.299   1.680  19.149  0.00  0.00    +0.000 C 
ATOM     13  C   UNL     1       2.315   2.907  20.057  0.00  0.00    +0.000 C 
ATOM     14  C   UNL     1       2.640   2.476  21.493  0.00  0.00    +0.000 C 
ENDBRANCH   5  13
ENDBRANCH   1  10
BRANCH   3  15
ATOM     15  C   UNL     1       1.515   8.241  21.288  0.00  0.00    +0.000 C 
BRANCH  15  16
ATOM     16  C   UNL     1       0.768   9.333  20.563  0.00  0.00    +0.000 A 
ATOM     17  C   UNL     1       1.008   9.538  19.194  0.00  0.00    +0.000 A 
ATOM     18  C   UNL     1       0.304  10.514  18.481  0.00  0.00    +0.000 A 
ATOM     19  C   UNL     1      -0.666  11.275  19.127  0.00  0.00    +0.000 A 
ATOM     20 CL   UNL     1      -1.569  12.441  18.240  0.00  0.00    +0.000 Cl
ATOM     21  C   UNL     1      -0.906  11.106  20.487  0.00  0.00    +0.000 A 
ATOM     22  C   UNL     1      -0.171  10.159  21.206  0.00  0.00    +0.000 A 
ATOM     23 CL   UNL     1      -0.431  10.073  22.913  0.00  0.00    +0.000 Cl
ENDBRANCH  15  16
ENDBRANCH   3  15
TORSDOF 4
ENDMDL
MODEL 3
REMARK VINA RESULT:      -6.6      3.759      6.255
REMARK  Name = 
REMARK  7 active torsions:
REMARK  status: ('A' for Active; 'I' for Inactive)
REMARK    1  A    between atoms: C_1  and  C_2
REMARK    2  A    between atoms: C_2  and  C_3
REMARK    3  A    between atoms: C_2  and  N_4
REMARK    4  A    between atoms: C_9  and  C_10
REMARK    5  A    between atoms: C_9  and  C_11
REMARK    6  A    between atoms: N_13  and  C_14
REMARK    7  A    between atoms: C_14  and  C_15
REMARK                            x       y       z     vdW  Elec       q    Type
REMARK                         _______ _______ _______ _____ _____    ______ ____
ROOT
ATOM      1  C   UNL     1       3.933   3.613  17.601  0.00  0.00    +0.000 C 
ATOM      2  O   UNL     1       3.335   4.553  17.085  0.00  0.00    +0.000 OA
ATOM      3  N   UNL     1       5.227   3.288  17.247  0.00  0.00    +0.000 N 
ATOM      4  H   UNL     1       5.724   2.608  17.806  0.00  0.00    +0.000 HD
ENDROOT
BRANCH   1  10
ATOM      5  N   UNL     1       2.697   3.250  19.771  0.00  0.00    +0.000 N 
ATOM      6  C   UNL     1       3.158   2.679  20.949  0.00  0.00    +0.000 C 
ATOM      7  O   UNL     1       2.746   2.880  22.078  0.00  0.00    +0.000 OA
ATOM      8  C   UNL     1       4.363   1.849  20.627  0.00  0.00    +0.000 C 
ATOM      9  C   UNL     1       4.299   1.621  19.125  0.00  0.00    +0.000 C 
ATOM     10  C   UNL     1       3.247   2.606  18.570  0.00  0.00    +0.000 C 
ATOM     11  C   UNL     1       2.183   1.796  17.816  0.00  0.00    +0.000 C 
BRANCH   5  13
ATOM     12  C   UNL     1       0.320   3.910  20.257  0.00  0.00    +0.000 C 
ATOM     13  C   UNL     1       1.687   4.322  19.717  0.00  0.00    +0.000 C 
ATOM     14  C   UNL     1       2.169   5.578  20.453  0.00  0.00    +0.000 C 
ENDBRANCH   5  13
ENDBRANCH   1  10
BRANCH   3  15
ATOM     15  C   UNL     1       5.989   4.091  16.306  0.00  0.00    +0.000 C 
BRANCH  15  16
ATOM     16  C   UNL     1       6.609   5.295  16.971  0.00  0.00    +0.000 A 
ATOM     17  C   UNL     1       7.531   5.105  18.014  0.00  0.00    +0.000 A 
ATOM     18  C   UNL     1       8.156   6.197  18.626  0.00  0.00    +0.000 A 
ATOM     19  C   UNL     1       7.883   7.487  18.180  0.00  0.00    +0.000 A 
ATOM     20 CL   UNL     1       8.689   8.828  18.897  0.00  0.00    +0.000 Cl
ATOM     21  C   UNL     1       6.958   7.702  17.163  0.00  0.00    +0.000 A 
ATOM     22  C   UNL     1       6.304   6.611  16.583  0.00  0.00    +0.000 A 
ATOM     23 CL   UNL     1       5.081   6.946  15.406  0.00  0.00    +0.000 Cl
ENDBRANCH  15  16
ENDBRANCH   3  15
TORSDOF 4
ENDMDL
MODEL 4
REMARK VINA RESULT:      -6.6      3.754      6.354
REMARK  Name = 
REMARK  7 active torsions:
REMARK  status: ('A' for Active; 'I' for Inactive)
REMARK    1  A    between atoms: C_1  and  C_2
REMARK    2  A    between atoms: C_2  and  C_3
REMARK    3  A    between atoms: C_2  and  N_4
REMARK    4  A    between atoms: C_9  and  C_10
REMARK    5  A    between atoms: C_9  and  C_11
REMARK    6  A    between atoms: N_13  and  C_14
REMARK    7  A    between atoms: C_14  and  C_15
REMARK                            x       y       z     vdW  Elec       q    Type
REMARK                         _______ _______ _______ _____ _____    ______ ____
ROOT
ATOM      1  C   UNL     1       4.488   3.150  19.014  0.00  0.00    +0.000 C 
ATOM      2  O   UNL     1       5.342   2.796  19.821  0.00  0.00    +0.000 OA
ATOM      3  N   UNL     1       4.823   3.714  17.799  0.00  0.00    +0.000 N 
ATOM      4  H   UNL     1       4.094   3.848  17.112  0.00  0.00    +0.000 HD
ENDROOT
BRANCH   1  10
ATOM      5  N   UNL     1       2.391   4.508  19.370  0.00  0.00    +0.000 N 
ATOM      6  C   UNL     1       1.727   4.786  20.555  0.00  0.00    +0.000 C 
ATOM      7  O   UNL     1       1.010   5.742  20.794  0.00  0.00    +0.000 OA
ATOM      8  C   UNL     1       2.140   3.768  21.575  0.00  0.00    +0.000 C 
ATOM      9  C   UNL     1       2.741   2.625  20.774  0.00  0.00    +0.000 C 
ATOM     10  C   UNL     1       2.966   3.155  19.341  0.00  0.00    +0.000 C 
ATOM     11  C   UNL     1       2.218   2.235  18.365  0.00  0.00    +0.000 C 
BRANCH   5  13
ATOM     12  C   UNL     1       1.144   5.458  17.404  0.00  0.00    +0.000 C 
ATOM     13  C   UNL     1       2.435   5.425  18.217  0.00  0.00    +0.000 C 
ATOM     14  C   UNL     1       2.801   6.849  18.653  0.00  0.00    +0.000 C 
ENDBRANCH   5  13
ENDBRANCH   1  10
BRANCH   3  15
ATOM     15  C   UNL     1       6.203   3.842  17.367  0.00  0.00    +0.000 C 
BRANCH  15  16
ATOM     16  C   UNL     1       6.746   5.225  17.628  0.00  0.00    +0.000 A 
ATOM     17  C   UNL     1       7.667   5.416  18.674  0.00  0.00    +0.000 A 
ATOM     18  C   UNL     1       8.221   6.677  18.919  0.00  0.00    +0.000 A 
ATOM     19  C   UNL     1       7.879   7.751  18.103  0.00  0.00    +0.000 A 
ATOM     20 CL   UNL     1       8.599   9.291  18.372  0.00  0.00    +0.000 Cl
ATOM     21  C   UNL     1       6.954   7.593  17.077  0.00  0.00    +0.000 A 
ATOM     22  C   UNL     1       6.369   6.341  16.861  0.00  0.00    +0.000 A 
ATOM     23 CL   UNL     1       5.142   6.230  15.647  0.00  0.00    +0.000 Cl
ENDBRANCH  15  16
ENDBRANCH   3  15
TORSDOF 4
ENDMDL
MODEL 5
REMARK VINA RESULT:      -6.5      4.096      6.880
REMARK  Name = 
REMARK  7 active torsions:
REMARK  status: ('A' for Active; 'I' for Inactive)
REMARK    1  A    between atoms: C_1  and  C_2
REMARK    2  A    between atoms: C_2  and  C_3
REMARK    3  A    between atoms: C_2  and  N_4
REMARK    4  A    between atoms: C_9  and  C_10
REMARK    5  A    between atoms: C_9  and  C_11
REMARK    6  A    between atoms: N_13  and  C_14
REMARK    7  A    between atoms: C_14  and  C_15
REMARK                            x       y       z     vdW  Elec       q    Type
REMARK                         _______ _______ _______ _____ _____    ______ ____
ROOT
ATOM      1  C   UNL     1       3.909   4.580  19.734  0.00  0.00    +0.000 C 
ATOM      2  O   UNL     1       3.357   5.651  19.499  0.00  0.00    +0.000 OA
ATOM      3  N   UNL     1       5.244   4.371  19.453  0.00  0.00    +0.000 N 
ATOM      4  H   UNL     1       5.685   3.532  19.803  0.00  0.00    +0.000 HD
ENDROOT
BRANCH   1  10
ATOM      5  N   UNL     1       2.252   2.762  19.173  0.00  0.00    +0.000 N 
ATOM      6  C   UNL     1       0.940   2.620  19.602  0.00  0.00    +0.000 C 
ATOM      7  O   UNL     1       0.037   2.030  19.034  0.00  0.00    +0.000 OA
ATOM      8  C   UNL     1       0.761   3.435  20.847  0.00  0.00    +0.000 C 
ATOM      9  C   UNL     1       2.170   3.698  21.354  0.00  0.00    +0.000 C 
ATOM     10  C   UNL     1       3.134   3.316  20.209  0.00  0.00    +0.000 C 
ATOM     11  C   UNL     1       4.121   2.268  20.743  0.00  0.00    +0.000 C 
BRANCH   5  13
ATOM     12  C   UNL     1       3.074   3.458  16.902  0.00  0.00    +0.000 C 
ATOM     13  C   UNL     1       2.740   2.315  17.857  0.00  0.00    +0.000 C 
ATOM     14  C   UNL     1       3.959   1.395  17.998  0.00  0.00    +0.000 C 
ENDBRANCH   5  13
ENDBRANCH   1  10
BRANCH   3  15
ATOM     15  C   UNL     1       6.096   5.431  18.943  0.00  0.00    +0.000 C 
BRANCH  15  16
ATOM     16  C   UNL     1       6.286   5.328  17.450  0.00  0.00    +0.000 A 
ATOM     17  C   UNL     1       7.289   4.486  16.941  0.00  0.00    +0.000 A 
ATOM     18  C   UNL     1       7.467   4.334  15.562  0.00  0.00    +0.000 A 
ATOM     19  C   UNL     1       6.624   5.004  14.680  0.00  0.00    +0.000 A 
ATOM     20 CL   UNL     1       6.808   4.780  12.984  0.00  0.00    +0.000 Cl
ATOM     21  C   UNL     1       5.637   5.861  15.159  0.00  0.00    +0.000 A 
ATOM     22  C   UNL     1       5.490   6.042  16.538  0.00  0.00    +0.000 A 
ATOM     23 CL   UNL     1       4.326   7.205  17.071  0.00  0.00    +0.000 Cl
ENDBRANCH  15  16
ENDBRANCH   3  15
TORSDOF 4
ENDMDL
MODEL 6
REMARK VINA RESULT:      -6.5      2.416      3.221
REMARK  Name = 
REMARK  7 active torsions:
REMARK  status: ('A' for Active; 'I' for Inactive)
REMARK    1  A    between atoms: C_1  and  C_2
REMARK    2  A    between atoms: C_2  and  C_3
REMARK    3  A    between atoms: C_2  and  N_4
REMARK    4  A    between atoms: C_9  and  C_10
REMARK    5  A    between atoms: C_9  and  C_11
REMARK    6  A    between atoms: N_13  and  C_14
REMARK    7  A    between atoms: C_14  and  C_15
REMARK                            x       y       z     vdW  Elec       q    Type
REMARK                         _______ _______ _______ _____ _____    ______ ____
ROOT
ATOM      1  C   UNL     1       2.125   5.635  19.072  0.00  0.00    +0.000 C 
ATOM      2  O   UNL     1       2.028   5.806  17.861  0.00  0.00    +0.000 OA
ATOM      3  N   UNL     1       2.191   6.694  19.956  0.00  0.00    +0.000 N 
ATOM      4  H   UNL     1       2.117   6.502  20.945  0.00  0.00    +0.000 HD
ENDROOT
BRANCH   1  10
ATOM      5  N   UNL     1       3.308   3.408  18.968  0.00  0.00    +0.000 N 
ATOM      6  C   UNL     1       2.797   2.168  18.616  0.00  0.00    +0.000 C 
ATOM      7  O   UNL     1       3.409   1.218  18.160  0.00  0.00    +0.000 OA
ATOM      8  C   UNL     1       1.306   2.215  18.766  0.00  0.00    +0.000 C 
ATOM      9  C   UNL     1       1.034   3.421  19.652  0.00  0.00    +0.000 C 
ATOM     10  C   UNL     1       2.347   4.233  19.713  0.00  0.00    +0.000 C 
ATOM     11  C   UNL     1       2.746   4.389  21.187  0.00  0.00    +0.000 C 
BRANCH   5  13
ATOM     12  C   UNL     1       5.006   4.089  17.244  0.00  0.00    +0.000 C 
ATOM     13  C   UNL     1       4.699   3.827  18.715  0.00  0.00    +0.000 C 
ATOM     14  C   UNL     1       5.066   5.065  19.543  0.00  0.00    +0.000 C 
ENDBRANCH   5  13
ENDBRANCH   1  10
BRANCH   3  15
ATOM     15  C   UNL     1       2.065   8.071  19.513  0.00  0.00    +0.000 C 
BRANCH  15  16
ATOM     16  C   UNL     1       1.141   8.863  20.404  0.00  0.00    +0.000 A 
ATOM     17  C   UNL     1       1.191   8.667  21.795  0.00  0.00    +0.000 A 
ATOM     18  C   UNL     1       0.378   9.413  22.654  0.00  0.00    +0.000 A 
ATOM     19  C   UNL     1      -0.475  10.380  22.131  0.00  0.00    +0.000 A 
ATOM     20 CL   UNL     1      -1.439  11.333  23.190  0.00  0.00    +0.000 Cl
ATOM     21  C   UNL     1      -0.559  10.578  20.756  0.00  0.00    +0.000 A 
ATOM     22  C   UNL     1       0.225   9.801  19.897  0.00  0.00    +0.000 A 
ATOM     23 CL   UNL     1      -0.006  10.010  18.196  0.00  0.00    +0.000 Cl
ENDBRANCH  15  16
ENDBRANCH   3  15
TORSDOF 4
ENDMDL
MODEL 7
REMARK VINA RESULT:      -6.5      4.064      7.430
REMARK  Name = 
REMARK  7 active torsions:
REMARK  status: ('A' for Active; 'I' for Inactive)
REMARK    1  A    between atoms: C_1  and  C_2
REMARK    2  A    between atoms: C_2  and  C_3
REMARK    3  A    between atoms: C_2  and  N_4
REMARK    4  A    between atoms: C_9  and  C_10
REMARK    5  A    between atoms: C_9  and  C_11
REMARK    6  A    between atoms: N_13  and  C_14
REMARK    7  A    between atoms: C_14  and  C_15
REMARK                            x       y       z     vdW  Elec       q    Type
REMARK                         _______ _______ _______ _____ _____    ______ ____
ROOT
ATOM      1  C   UNL     1       1.500   9.550  18.467  0.00  0.00    +0.000 C 
ATOM      2  O   UNL     1       1.919   9.950  17.385  0.00  0.00    +0.000 OA
ATOM      3  N   UNL     1       1.930   8.362  19.022  0.00  0.00    +0.000 N 
ATOM      4  H   UNL     1       1.672   8.154  19.977  0.00  0.00    +0.000 HD
ENDROOT
BRANCH   1  10
ATOM      5  N   UNL     1       0.688  11.589  19.713  0.00  0.00    +0.000 N 
ATOM      6  C   UNL     1       0.475  11.748  21.074  0.00  0.00    +0.000 C 
ATOM      7  O   UNL     1       0.506  12.786  21.712  0.00  0.00    +0.000 OA
ATOM      8  C   UNL     1       0.324  10.388  21.687  0.00  0.00    +0.000 C 
ATOM      9  C   UNL     1       0.019   9.460  20.522  0.00  0.00    +0.000 C 
ATOM     10  C   UNL     1       0.336  10.246  19.231  0.00  0.00    +0.000 C 
ATOM     11  C   UNL     1      -0.927  10.264  18.358  0.00  0.00    +0.000 C 
BRANCH   5  13
ATOM     12  C   UNL     1       0.126  13.821  18.700  0.00  0.00    +0.000 C 
ATOM     13  C   UNL     1       1.127  12.675  18.817  0.00  0.00    +0.000 C 
ATOM     14  C   UNL     1       2.492  13.229  19.243  0.00  0.00    +0.000 C 
ENDBRANCH   5  13
ENDBRANCH   1  10
BRANCH   3  15
ATOM     15  C   UNL     1       2.968   7.557  18.402  0.00  0.00    +0.000 C 
BRANCH  15  16
ATOM     16  C   UNL     1       2.744   6.082  18.630  0.00  0.00    +0.000 A 
ATOM     17  C   UNL     1       1.893   5.669  19.670  0.00  0.00    +0.000 A 
ATOM     18  C   UNL     1       1.631   4.312  19.885  0.00  0.00    +0.000 A 
ATOM     19  C   UNL     1       2.198   3.358  19.045  0.00  0.00    +0.000 A 
ATOM     20 CL   UNL     1       1.836   1.692  19.277  0.00  0.00    +0.000 Cl
ATOM     21  C   UNL     1       3.061   3.741  18.023  0.00  0.00    +0.000 A 
ATOM     22  C   UNL     1       3.354   5.095  17.837  0.00  0.00    +0.000 A 
ATOM     23 CL   UNL     1       4.522   5.502  16.628  0.00  0.00    +0.000 Cl
ENDBRANCH  15  16
ENDBRANCH   3  15
TORSDOF 4
ENDMDL
MODEL 8
REMARK VINA RESULT:      -6.4      1.620      2.933
REMARK  Name = 
REMARK  7 active torsions:
REMARK  status: ('A' for Active; 'I' for Inactive)
REMARK    1  A    between atoms: C_1  and  C_2
REMARK    2  A    between atoms: C_2  and  C_3
REMARK    3  A    between atoms: C_2  and  N_4
REMARK    4  A    between atoms: C_9  and  C_10
REMARK    5  A    between atoms: C_9  and  C_11
REMARK    6  A    between atoms: N_13  and  C_14
REMARK    7  A    between atoms: C_14  and  C_15
REMARK                            x       y       z     vdW  Elec       q    Type
REMARK                         _______ _______ _______ _____ _____    ______ ____
ROOT
ATOM      1  C   UNL     1       4.258   6.520  16.926  0.00  0.00    +0.000 C 
ATOM      2  O   UNL     1       4.497   7.200  15.933  0.00  0.00    +0.000 OA
ATOM      3  N   UNL     1       3.444   6.975  17.945  0.00  0.00    +0.000 N 
ATOM      4  H   UNL     1       3.158   6.324  18.662  0.00  0.00    +0.000 HD
ENDROOT
BRANCH   1  10
ATOM      5  N   UNL     1       4.142   4.242  18.006  0.00  0.00    +0.000 N 
ATOM      6  C   UNL     1       4.786   3.788  19.148  0.00  0.00    +0.000 C 
ATOM      7  O   UNL     1       4.428   2.891  19.892  0.00  0.00    +0.000 OA
ATOM      8  C   UNL     1       5.961   4.680  19.411  0.00  0.00    +0.000 C 
ATOM      9  C   UNL     1       6.210   5.405  18.097  0.00  0.00    +0.000 C 
ATOM     10  C   UNL     1       4.967   5.164  17.213  0.00  0.00    +0.000 C 
ATOM     11  C   UNL     1       5.432   4.528  15.895  0.00  0.00    +0.000 C 
BRANCH   5  13
ATOM     12  C   UNL     1       2.726   2.272  17.348  0.00  0.00    +0.000 C 
ATOM     13  C   UNL     1       2.812   3.778  17.572  0.00  0.00    +0.000 C 
ATOM     14  C   UNL     1       1.723   4.210  18.563  0.00  0.00    +0.000 C 
ENDBRANCH   5  13
ENDBRANCH   1  10
BRANCH   3  15
ATOM     15  C   UNL     1       2.755   8.251  17.863  0.00  0.00    +0.000 C 
BRANCH  15  16
ATOM     16  C   UNL     1       1.935   8.525  19.099  0.00  0.00    +0.000 A 
ATOM     17  C   UNL     1       1.881   7.557  20.116  0.00  0.00    +0.000 A 
ATOM     18  C   UNL     1       1.164   7.794  21.294  0.00  0.00    +0.000 A 
ATOM     19  C   UNL     1       0.517   9.013  21.475  0.00  0.00    +0.000 A 
ATOM     20 CL   UNL     1      -0.323   9.325  22.944  0.00  0.00    +0.000 Cl
ATOM     21  C   UNL     1       0.538   9.979  20.474  0.00  0.00    +0.000 A 
ATOM     22  C   UNL     1       1.220   9.722  19.280  0.00  0.00    +0.000 A 
ATOM     23 CL   UNL     1       1.116  10.910  18.029  0.00  0.00    +0.000 Cl
ENDBRANCH  15  16
ENDBRANCH   3  15
TORSDOF 4
ENDMDL
MODEL 9
REMARK VINA RESULT:      -6.3      4.178      8.346
REMARK  Name = 
REMARK  7 active torsions:
REMARK  status: ('A' for Active; 'I' for Inactive)
REMARK    1  A    between atoms: C_1  and  C_2
REMARK    2  A    between atoms: C_2  and  C_3
REMARK    3  A    between atoms: C_2  and  N_4
REMARK    4  A    between atoms: C_9  and  C_10
REMARK    5  A    between atoms: C_9  and  C_11
REMARK    6  A    between atoms: N_13  and  C_14
REMARK    7  A    between atoms: C_14  and  C_15
REMARK                            x       y       z     vdW  Elec       q    Type
REMARK                         _______ _______ _______ _____ _____    ______ ____
ROOT
ATOM      1  C   UNL     1       0.236   9.478  20.271  0.00  0.00    +0.000 C 
ATOM      2  O   UNL     1      -0.418   9.077  21.229  0.00  0.00    +0.000 OA
ATOM      3  N   UNL     1       1.371   8.823  19.836  0.00  0.00    +0.000 N 
ATOM      4  H   UNL     1       1.784   9.103  18.958  0.00  0.00    +0.000 HD
ENDROOT
BRANCH   1  10
ATOM      5  N   UNL     1      -0.744  11.798  20.428  0.00  0.00    +0.000 N 
ATOM      6  C   UNL     1      -1.910  12.289  19.859  0.00  0.00    +0.000 C 
ATOM      7  O   UNL     1      -2.592  13.219  20.254  0.00  0.00    +0.000 OA
ATOM      8  C   UNL     1      -2.289  11.394  18.718  0.00  0.00    +0.000 C 
ATOM      9  C   UNL     1      -1.026  10.614  18.388  0.00  0.00    +0.000 C 
ATOM     10  C   UNL     1      -0.047  10.835  19.563  0.00  0.00    +0.000 C 
ATOM     11  C   UNL     1       1.258  11.413  18.998  0.00  0.00    +0.000 C 
BRANCH   5  13
ATOM     12  C   UNL     1       0.216  13.728  21.722  0.00  0.00    +0.000 C 
ATOM     13  C   UNL     1      -0.201  12.260  21.717  0.00  0.00    +0.000 C 
ATOM     14  C   UNL     1      -1.191  12.006  22.861  0.00  0.00    +0.000 C 
ENDBRANCH   5  13
ENDBRANCH   1  10
BRANCH   3  15
ATOM     15  C   UNL     1       1.811   7.573  20.433  0.00  0.00    +0.000 C 
BRANCH  15  16
ATOM     16  C   UNL     1       2.483   6.677  19.422  0.00  0.00    +0.000 A 
ATOM     17  C   UNL     1       3.133   7.254  18.317  0.00  0.00    +0.000 A 
ATOM     18  C   UNL     1       3.802   6.456  17.383  0.00  0.00    +0.000 A 
ATOM     19  C   UNL     1       3.848   5.076  17.561  0.00  0.00    +0.000 A 
ATOM     20 CL   UNL     1       4.713   4.098  16.440  0.00  0.00    +0.000 Cl
ATOM     21  C   UNL     1       3.194   4.480  18.635  0.00  0.00    +0.000 A 
ATOM     22  C   UNL     1       2.491   5.277  19.544  0.00  0.00    +0.000 A 
ATOM     23 CL   UNL     1       1.603   4.473  20.790  0.00  0.00    +0.000 Cl
ENDBRANCH  15  16
ENDBRANCH   3  15
TORSDOF 4
ENDMDL
