MODEL 1
REMARK VINA RESULT:      -6.7      0.000      0.000
REMARK  Name = 
REMARK  2 active torsions:
REMARK  status: ('A' for Active; 'I' for Inactive)
REMARK    1  A    between atoms: C_1  and  N_2
REMARK    2  A    between atoms: C_10  and  N_11
REMARK                            x       y       z     vdW  Elec       q    Type
REMARK                         _______ _______ _______ _____ _____    ______ ____
ROOT
ATOM      1  C   UNL     1       3.499   1.494  18.505  0.00  0.00    +0.000 C 
ATOM      2  N   UNL     1       3.846   2.909  18.624  0.00  0.00    +0.000 NA
ATOM      3  C   UNL     1       3.218   3.487  19.836  0.00  0.00    +0.000 C 
ATOM      4  C   UNL     1       3.452   5.007  19.972  0.00  0.00    +0.000 C 
ATOM      5  N   UNL     1       3.007   5.673  18.749  0.00  0.00    +0.000 N 
ATOM      6  C   UNL     1       2.563   6.966  18.823  0.00  0.00    +0.000 A 
ATOM      7  N   UNL     1       2.595   7.748  17.733  0.00  0.00    +0.000 NA
ATOM      8  C   UNL     1       2.044   8.973  17.819  0.00  0.00    +0.000 A 
ATOM      9  C   UNL     1       1.435   9.456  18.949  0.00  0.00    +0.000 A 
ATOM     10  C   UNL     1       1.444   8.600  20.025  0.00  0.00    +0.000 A 
ATOM     11  N   UNL     1       2.013   7.377  19.974  0.00  0.00    +0.000 NA
ATOM     12  C   UNL     1       3.630   5.181  17.525  0.00  0.00    +0.000 C 
ATOM     13  C   UNL     1       3.394   3.654  17.423  0.00  0.00    +0.000 C 
ENDROOT
BRANCH  10  14
ATOM     14  N   UNL     1       0.831   8.964  21.252  0.00  0.00    +0.000 N 
ATOM     15  C   UNL     1      -0.506   9.051  21.564  0.00  0.00    +0.000 A 
ATOM     16  C   UNL     1      -0.559   9.445  22.881  0.00  0.00    +0.000 A 
ATOM     17  N   UNL     1       0.696   9.597  23.396  0.00  0.00    +0.000 NA
ATOM     18  C   UNL     1       1.508   9.300  22.404  0.00  0.00    +0.000 A 
ENDBRANCH  10  14
TORSDOF 1
ENDMDL
MODEL 2
REMARK VINA RESULT:      -6.2      1.236      1.236
REMARK  Name = 
REMARK  2 active torsions:
REMARK  status: ('A' for Active; 'I' for Inactive)
REMARK    1  A    between atoms: C_1  and  N_2
REMARK    2  A    between atoms: C_10  and  N_11
REMARK                            x       y       z     vdW  Elec       q    Type
REMARK                         _______ _______ _______ _____ _____    ______ ____
ROOT
ATOM      1  C   UNL     1       2.050   2.089  19.024  0.00  0.00    +0.000 C 
ATOM      2  N   UNL     1       2.621   3.431  19.125  0.00  0.00    +0.000 NA
ATOM      3  C   UNL     1       1.982   4.173  20.238  0.00  0.00    +0.000 C 
ATOM      4  C   UNL     1       2.459   5.639  20.339  0.00  0.00    +0.000 C 
ATOM      5  N   UNL     1       2.259   6.299  19.050  0.00  0.00    +0.000 N 
ATOM      6  C   UNL     1       2.038   7.650  19.024  0.00  0.00    +0.000 A 
ATOM      7  N   UNL     1       2.313   8.352  17.915  0.00  0.00    +0.000 NA
ATOM      8  C   UNL     1       1.974   9.654  17.892  0.00  0.00    +0.000 A 
ATOM      9  C   UNL     1       1.346  10.295  18.929  0.00  0.00    +0.000 A 
ATOM     10  C   UNL     1       1.100   9.512  20.032  0.00  0.00    +0.000 A 
ATOM     11  N   UNL     1       1.454   8.211  20.092  0.00  0.00    +0.000 NA
ATOM     12  C   UNL     1       2.909   5.641  17.921  0.00  0.00    +0.000 C 
ATOM     13  C   UNL     1       2.427   4.171  17.854  0.00  0.00    +0.000 C 
ENDROOT
BRANCH  10  14
ATOM     14  N   UNL     1       0.438  10.043  21.170  0.00  0.00    +0.000 N 
ATOM     15  C   UNL     1      -0.383  11.143  21.264  0.00  0.00    +0.000 A 
ATOM     16  C   UNL     1      -0.759  11.217  22.586  0.00  0.00    +0.000 A 
ATOM     17  N   UNL     1      -0.207  10.199  23.309  0.00  0.00    +0.000 NA
ATOM     18  C   UNL     1       0.501   9.510  22.440  0.00  0.00    +0.000 A 
ENDBRANCH  10  14
TORSDOF 1
ENDMDL
MODEL 3
REMARK VINA RESULT:      -6.2      4.537      7.672
REMARK  Name = 
REMARK  2 active torsions:
REMARK  status: ('A' for Active; 'I' for Inactive)
REMARK    1  A    between atoms: C_1  and  N_2
REMARK    2  A    between atoms: C_10  and  N_11
REMARK                            x       y       z     vdW  Elec       q    Type
REMARK                         _______ _______ _______ _____ _____    ______ ____
ROOT
ATOM      1  C   UNL     1       0.501   2.376  19.730  0.00  0.00    +0.000 C 
ATOM      2  N   UNL     1       1.492   3.391  19.379  0.00  0.00    +0.000 NA
ATOM      3  C   UNL     1       1.747   3.369  17.918  0.00  0.00    +0.000 C 
ATOM      4  C   UNL     1       2.865   4.342  17.485  0.00  0.00    +0.000 C 
ATOM      5  N   UNL     1       4.073   4.062  18.259  0.00  0.00    +0.000 N 
ATOM      6  C   UNL     1       5.294   4.335  17.704  0.00  0.00    +0.000 A 
ATOM      7  N   UNL     1       6.357   4.543  18.495  0.00  0.00    +0.000 NA
ATOM      8  C   UNL     1       7.560   4.694  17.908  0.00  0.00    +0.000 A 
ATOM      9  C   UNL     1       7.760   4.626  16.554  0.00  0.00    +0.000 A 
ATOM     10  C   UNL     1       6.624   4.414  15.808  0.00  0.00    +0.000 A 
ATOM     11  N   UNL     1       5.402   4.286  16.369  0.00  0.00    +0.000 NA
ATOM     12  C   UNL     1       3.896   4.119  19.706  0.00  0.00    +0.000 C 
ATOM     13  C   UNL     1       2.760   3.148  20.110  0.00  0.00    +0.000 C 
ENDROOT
BRANCH  10  14
ATOM     14  N   UNL     1       6.689   4.303  14.395  0.00  0.00    +0.000 N 
ATOM     15  C   UNL     1       5.947   3.509  13.550  0.00  0.00    +0.000 A 
ATOM     16  C   UNL     1       6.406   3.781  12.282  0.00  0.00    +0.000 A 
ATOM     17  N   UNL     1       7.398   4.719  12.312  0.00  0.00    +0.000 NA
ATOM     18  C   UNL     1       7.546   5.017  13.585  0.00  0.00    +0.000 A 
ENDBRANCH  10  14
TORSDOF 1
ENDMDL
MODEL 4
REMARK VINA RESULT:      -6.0      3.072      4.539
REMARK  Name = 
REMARK  2 active torsions:
REMARK  status: ('A' for Active; 'I' for Inactive)
REMARK    1  A    between atoms: C_1  and  N_2
REMARK    2  A    between atoms: C_10  and  N_11
REMARK                            x       y       z     vdW  Elec       q    Type
REMARK                         _______ _______ _______ _____ _____    ______ ____
ROOT
ATOM      1  C   UNL     1       6.516   3.792  13.246  0.00  0.00    +0.000 C 
ATOM      2  N   UNL     1       6.401   4.487  14.526  0.00  0.00    +0.000 NA
ATOM      3  C   UNL     1       5.848   3.573  15.554  0.00  0.00    +0.000 C 
ATOM      4  C   UNL     1       5.596   4.268  16.910  0.00  0.00    +0.000 C 
ATOM      5  N   UNL     1       4.745   5.437  16.699  0.00  0.00    +0.000 N 
ATOM      6  C   UNL     1       3.926   5.853  17.714  0.00  0.00    +0.000 A 
ATOM      7  N   UNL     1       3.505   7.126  17.756  0.00  0.00    +0.000 NA
ATOM      8  C   UNL     1       2.611   7.464  18.703  0.00  0.00    +0.000 A 
ATOM      9  C   UNL     1       2.093   6.577  19.611  0.00  0.00    +0.000 A 
ATOM     10  C   UNL     1       2.574   5.293  19.509  0.00  0.00    +0.000 A 
ATOM     11  N   UNL     1       3.490   4.933  18.586  0.00  0.00    +0.000 NA
ATOM     12  C   UNL     1       5.262   6.402  15.733  0.00  0.00    +0.000 C 
ATOM     13  C   UNL     1       5.522   5.675  14.391  0.00  0.00    +0.000 C 
ENDROOT
BRANCH  10  14
ATOM     14  N   UNL     1       2.108   4.268  20.373  0.00  0.00    +0.000 N 
ATOM     15  C   UNL     1       1.112   3.341  20.166  0.00  0.00    +0.000 A 
ATOM     16  C   UNL     1       1.061   2.583  21.313  0.00  0.00    +0.000 A 
ATOM     17  N   UNL     1       1.994   3.002  22.218  0.00  0.00    +0.000 NA
ATOM     18  C   UNL     1       2.608   4.008  21.631  0.00  0.00    +0.000 A 
ENDBRANCH  10  14
TORSDOF 1
ENDMDL
MODEL 5
REMARK VINA RESULT:      -5.8      4.753      6.042
REMARK  Name = 
REMARK  2 active torsions:
REMARK  status: ('A' for Active; 'I' for Inactive)
REMARK    1  A    between atoms: C_1  and  N_2
REMARK    2  A    between atoms: C_10  and  N_11
REMARK                            x       y       z     vdW  Elec       q    Type
REMARK                         _______ _______ _______ _____ _____    ______ ____
ROOT
ATOM      1  C   UNL     1       0.610   2.649  20.153  0.00  0.00    +0.000 C 
ATOM      2  N   UNL     1       1.982   2.506  19.671  0.00  0.00    +0.000 NA
ATOM      3  C   UNL     1       2.792   3.676  20.087  0.00  0.00    +0.000 C 
ATOM      4  C   UNL     1       4.229   3.648  19.522  0.00  0.00    +0.000 C 
ATOM      5  N   UNL     1       4.171   3.507  18.069  0.00  0.00    +0.000 N 
ATOM      6  C   UNL     1       5.186   4.027  17.311  0.00  0.00    +0.000 A 
ATOM      7  N   UNL     1       5.424   3.539  16.084  0.00  0.00    +0.000 NA
ATOM      8  C   UNL     1       6.353   4.154  15.330  0.00  0.00    +0.000 A 
ATOM      9  C   UNL     1       7.054   5.260  15.737  0.00  0.00    +0.000 A 
ATOM     10  C   UNL     1       6.759   5.700  17.006  0.00  0.00    +0.000 A 
ATOM     11  N   UNL     1       5.851   5.086  17.793  0.00  0.00    +0.000 NA
ATOM     12  C   UNL     1       3.428   2.342  17.598  0.00  0.00    +0.000 C 
ATOM     13  C   UNL     1       2.000   2.387  18.193  0.00  0.00    +0.000 C 
ENDROOT
BRANCH  10  14
ATOM     14  N   UNL     1       7.395   6.848  17.546  0.00  0.00    +0.000 N 
ATOM     15  C   UNL     1       7.362   8.150  17.103  0.00  0.00    +0.000 A 
ATOM     16  C   UNL     1       8.146   8.864  17.981  0.00  0.00    +0.000 A 
ATOM     17  N   UNL     1       8.654   8.052  18.954  0.00  0.00    +0.000 NA
ATOM     18  C   UNL     1       8.189   6.853  18.674  0.00  0.00    +0.000 A 
ENDBRANCH  10  14
TORSDOF 1
ENDMDL
MODEL 6
REMARK VINA RESULT:      -5.7      4.216      7.478
REMARK  Name = 
REMARK  2 active torsions:
REMARK  status: ('A' for Active; 'I' for Inactive)
REMARK    1  A    between atoms: C_1  and  N_2
REMARK    2  A    between atoms: C_10  and  N_11
REMARK                            x       y       z     vdW  Elec       q    Type
REMARK                         _______ _______ _______ _____ _____    ______ ____
ROOT
ATOM      1  C   UNL     1       1.214   2.419  20.659  0.00  0.00    +0.000 C 
ATOM      2  N   UNL     1       1.814   3.523  19.913  0.00  0.00    +0.000 NA
ATOM      3  C   UNL     1       1.979   3.145  18.489  0.00  0.00    +0.000 C 
ATOM      4  C   UNL     1       2.707   4.224  17.657  0.00  0.00    +0.000 C 
ATOM      5  N   UNL     1       3.983   4.541  18.295  0.00  0.00    +0.000 N 
ATOM      6  C   UNL     1       5.023   4.975  17.516  0.00  0.00    +0.000 A 
ATOM      7  N   UNL     1       6.010   5.701  18.062  0.00  0.00    +0.000 NA
ATOM      8  C   UNL     1       7.068   6.009  17.289  0.00  0.00    +0.000 A 
ATOM      9  C   UNL     1       7.202   5.605  15.986  0.00  0.00    +0.000 A 
ATOM     10  C   UNL     1       6.150   4.868  15.495  0.00  0.00    +0.000 A 
ATOM     11  N   UNL     1       5.065   4.568  16.240  0.00  0.00    +0.000 NA
ATOM     12  C   UNL     1       3.881   4.971  19.686  0.00  0.00    +0.000 C 
ATOM     13  C   UNL     1       3.133   3.880  20.491  0.00  0.00    +0.000 C 
ENDROOT
BRANCH  10  14
ATOM     14  N   UNL     1       6.167   4.367  14.167  0.00  0.00    +0.000 N 
ATOM     15  C   UNL     1       7.185   4.389  13.242  0.00  0.00    +0.000 A 
ATOM     16  C   UNL     1       6.682   3.776  12.118  0.00  0.00    +0.000 A 
ATOM     17  N   UNL     1       5.394   3.369  12.317  0.00  0.00    +0.000 NA
ATOM     18  C   UNL     1       5.111   3.731  13.550  0.00  0.00    +0.000 A 
ENDBRANCH  10  14
TORSDOF 1
ENDMDL
MODEL 7
REMARK VINA RESULT:      -5.5      5.425      7.470
REMARK  Name = 
REMARK  2 active torsions:
REMARK  status: ('A' for Active; 'I' for Inactive)
REMARK    1  A    between atoms: C_1  and  N_2
REMARK    2  A    between atoms: C_10  and  N_11
REMARK                            x       y       z     vdW  Elec       q    Type
REMARK                         _______ _______ _______ _____ _____    ______ ____
ROOT
ATOM      1  C   UNL     1       1.259   9.400  22.207  0.00  0.00    +0.000 C 
ATOM      2  N   UNL     1       0.790  10.208  21.083  0.00  0.00    +0.000 NA
ATOM      3  C   UNL     1      -0.583  10.700  21.349  0.00  0.00    +0.000 C 
ATOM      4  C   UNL     1      -1.189  11.474  20.158  0.00  0.00    +0.000 C 
ATOM      5  N   UNL     1      -1.126  10.639  18.960  0.00  0.00    +0.000 N 
ATOM      6  C   UNL     1      -2.066  10.813  17.980  0.00  0.00    +0.000 A 
ATOM      7  N   UNL     1      -1.796  10.439  16.720  0.00  0.00    +0.000 NA
ATOM      8  C   UNL     1      -2.787  10.521  15.812  0.00  0.00    +0.000 A 
ATOM      9  C   UNL     1      -4.057  10.944  16.108  0.00  0.00    +0.000 A 
ATOM     10  C   UNL     1      -4.256  11.314  17.417  0.00  0.00    +0.000 A 
ATOM     11  N   UNL     1      -3.274  11.267  18.342  0.00  0.00    +0.000 NA
ATOM     12  C   UNL     1       0.211  10.164  18.617  0.00  0.00    +0.000 C 
ATOM     13  C   UNL     1       0.800   9.409  19.833  0.00  0.00    +0.000 C 
ENDROOT
BRANCH  10  14
ATOM     14  N   UNL     1      -5.529  11.752  17.866  0.00  0.00    +0.000 N 
ATOM     15  C   UNL     1      -6.296  12.802  17.415  0.00  0.00    +0.000 A 
ATOM     16  C   UNL     1      -7.435  12.792  18.187  0.00  0.00    +0.000 A 
ATOM     17  N   UNL     1      -7.404  11.770  19.092  0.00  0.00    +0.000 NA
ATOM     18  C   UNL     1      -6.256  11.162  18.878  0.00  0.00    +0.000 A 
ENDBRANCH  10  14
TORSDOF 1
ENDMDL
MODEL 8
REMARK VINA RESULT:      -5.5      1.699      6.234
REMARK  Name = 
REMARK  2 active torsions:
REMARK  status: ('A' for Active; 'I' for Inactive)
REMARK    1  A    between atoms: C_1  and  N_2
REMARK    2  A    between atoms: C_10  and  N_11
REMARK                            x       y       z     vdW  Elec       q    Type
REMARK                         _______ _______ _______ _____ _____    ______ ____
ROOT
ATOM      1  C   UNL     1      -0.411  12.508  22.243  0.00  0.00    +0.000 C 
ATOM      2  N   UNL     1      -0.347  11.526  21.163  0.00  0.00    +0.000 NA
ATOM      3  C   UNL     1      -0.231  10.159  21.725  0.00  0.00    +0.000 C 
ATOM      4  C   UNL     1      -0.050   9.073  20.642  0.00  0.00    +0.000 C 
ATOM      5  N   UNL     1       1.092   9.421  19.799  0.00  0.00    +0.000 N 
ATOM      6  C   UNL     1       1.800   8.417  19.195  0.00  0.00    +0.000 A 
ATOM      7  N   UNL     1       2.516   8.673  18.090  0.00  0.00    +0.000 NA
ATOM      8  C   UNL     1       3.288   7.688  17.596  0.00  0.00    +0.000 A 
ATOM      9  C   UNL     1       3.399   6.447  18.170  0.00  0.00    +0.000 A 
ATOM     10  C   UNL     1       2.634   6.258  19.297  0.00  0.00    +0.000 A 
ATOM     11  N   UNL     1       1.831   7.220  19.798  0.00  0.00    +0.000 NA
ATOM     12  C   UNL     1       1.011  10.738  19.175  0.00  0.00    +0.000 C 
ATOM     13  C   UNL     1       0.813  11.803  20.281  0.00  0.00    +0.000 C 
ENDROOT
BRANCH  10  14
ATOM     14  N   UNL     1       2.669   5.027  20.003  0.00  0.00    +0.000 N 
ATOM     15  C   UNL     1       1.899   4.613  21.065  0.00  0.00    +0.000 A 
ATOM     16  C   UNL     1       2.336   3.344  21.372  0.00  0.00    +0.000 A 
ATOM     17  N   UNL     1       3.341   2.957  20.533  0.00  0.00    +0.000 NA
ATOM     18  C   UNL     1       3.519   3.979  19.723  0.00  0.00    +0.000 A 
ENDBRANCH  10  14
TORSDOF 1
ENDMDL
MODEL 9
REMARK VINA RESULT:      -5.5      2.012      6.895
REMARK  Name = 
REMARK  2 active torsions:
REMARK  status: ('A' for Active; 'I' for Inactive)
REMARK    1  A    between atoms: C_1  and  N_2
REMARK    2  A    between atoms: C_10  and  N_11
REMARK                            x       y       z     vdW  Elec       q    Type
REMARK                         _______ _______ _______ _____ _____    ______ ____
ROOT
ATOM      1  C   UNL     1      -1.014  11.761  18.869  0.00  0.00    +0.000 C 
ATOM      2  N   UNL     1       0.116  10.983  19.372  0.00  0.00    +0.000 NA
ATOM      3  C   UNL     1       0.991  10.572  18.248  0.00  0.00    +0.000 C 
ATOM      4  C   UNL     1       2.151   9.653  18.690  0.00  0.00    +0.000 C 
ATOM      5  N   UNL     1       1.607   8.506  19.412  0.00  0.00    +0.000 N 
ATOM      6  C   UNL     1       2.292   7.320  19.386  0.00  0.00    +0.000 A 
ATOM      7  N   UNL     1       2.111   6.421  20.365  0.00  0.00    +0.000 NA
ATOM      8  C   UNL     1       2.714   5.224  20.241  0.00  0.00    +0.000 A 
ATOM      9  C   UNL     1       3.484   4.867  19.164  0.00  0.00    +0.000 A 
ATOM     10  C   UNL     1       3.627   5.842  18.204  0.00  0.00    +0.000 A 
ATOM     11  N   UNL     1       3.054   7.059  18.315  0.00  0.00    +0.000 NA
ATOM     12  C   UNL     1       0.777   8.847  20.563  0.00  0.00    +0.000 C 
ATOM     13  C   UNL     1      -0.366   9.781  20.095  0.00  0.00    +0.000 C 
ENDROOT
BRANCH  10  14
ATOM     14  N   UNL     1       4.380   5.600  17.026  0.00  0.00    +0.000 N 
ATOM     15  C   UNL     1       4.651   4.407  16.396  0.00  0.00    +0.000 A 
ATOM     16  C   UNL     1       5.420   4.728  15.301  0.00  0.00    +0.000 A 
ATOM     17  N   UNL     1       5.628   6.075  15.227  0.00  0.00    +0.000 NA
ATOM     18  C   UNL     1       4.994   6.574  16.267  0.00  0.00    +0.000 A 
ENDBRANCH  10  14
TORSDOF 1
ENDMDL
