MODEL 1
REMARK VINA RESULT:      -7.3      0.000      0.000
REMARK  Name = 
REMARK  18 active torsions:
REMARK  status: ('A' for Active; 'I' for Inactive)
REMARK    1  A    between atoms: C_1  and  C_2
REMARK    2  A    between atoms: C_2  and  C_3
REMARK    3  A    between atoms: C_3  and  C_4
REMARK    4  A    between atoms: C_3  and  C_5
REMARK    5  A    between atoms: C_5  and  N_6
REMARK    6  A    between atoms: C_5  and  C_18
REMARK    7  A    between atoms: C_7  and  C_9
REMARK    8  A    between atoms: C_10  and  C_11
REMARK    9  A    between atoms: N_20  and  C_21
REMARK   10  A    between atoms: C_21  and  C_22
REMARK   11  A    between atoms: C_21  and  C_23
REMARK   12  A    between atoms: N_25  and  C_26
REMARK   13  A    between atoms: C_26  and  C_27
REMARK   14  A    between atoms: C_26  and  C_32
REMARK   15  A    between atoms: C_27  and  C_28
REMARK   16  A    between atoms: C_28  and  C_29
REMARK   17  A    between atoms: C_32  and  O_34
REMARK   18  A    between atoms: O_34  and  C_35
REMARK                            x       y       z     vdW  Elec       q    Type
REMARK                         _______ _______ _______ _____ _____    ______ ____
ROOT
ATOM      1  C   UNL     1       3.502   6.259  17.700  0.00  0.00    +0.000 C 
ATOM      2  O   UNL     1       2.591   5.436  17.700  0.00  0.00    +0.000 OA
ATOM      3  N   UNL     1       3.357   7.522  18.236  0.00  0.00    +0.000 N 
ATOM      4  H   UNL     1       4.206   7.996  18.544  0.00  0.00    +0.000 HD
ENDROOT
BRANCH   3   5
ATOM      5  C   UNL     1       2.074   7.976  18.781  0.00  0.00    +0.000 C 
ATOM      6  C   UNL     1       1.971   7.701  20.276  0.00  0.00    +0.000 C 
BRANCH   5   7
ATOM      7  C   UNL     1       1.864   9.478  18.485  0.00  0.00    +0.000 C 
ATOM      8  O   UNL     1       2.415  10.072  17.563  0.00  0.00    +0.000 OA
ATOM      9  N   UNL     1       1.110  10.137  19.431  0.00  0.00    +0.000 N 
ATOM     10  H   UNL     1       0.774   9.614  20.237  0.00  0.00    +0.000 HD
BRANCH   9  11
ATOM     11  C   UNL     1       0.817  11.570  19.360  0.00  0.00    +0.000 C 
BRANCH  11  12
ATOM     12  C   UNL     1       0.639  12.072  20.797  0.00  0.00    +0.000 C 
ATOM     13  O   UNL     1       0.529  13.253  21.106  0.00  0.00    +0.000 OA
BRANCH  12  14
ATOM     14  O   UNL     1       0.654  11.025  21.669  0.00  0.00    +0.000 OA
ATOM     15  C   UNL     1      -0.488  10.950  22.524  0.00  0.00    +0.000 C 
ENDBRANCH  12  14
ENDBRANCH  11  12
BRANCH  11  16
ATOM     16  C   UNL     1      -0.439  11.826  18.512  0.00  0.00    +0.000 C 
BRANCH  16  17
ATOM     17  C   UNL     1      -1.510  10.750  18.701  0.00  0.00    +0.000 C 
BRANCH  17  18
ATOM     18  C   UNL     1      -2.427  10.595  17.509  0.00  0.00    +0.000 C 
ATOM     19  N   UNL     1      -3.410   9.665  17.624  0.00  0.00    +0.000 N 
ATOM     20  O   UNL     1      -2.284  11.237  16.474  0.00  0.00    +0.000 OA
ATOM     21  H   UNL     1      -3.490   9.033  18.409  0.00  0.00    +0.000 HD
ATOM     22  H   UNL     1      -3.983   9.494  16.806  0.00  0.00    +0.000 HD
ENDBRANCH  17  18
ENDBRANCH  16  17
ENDBRANCH  11  16
ENDBRANCH   9  11
ENDBRANCH   5   7
ENDBRANCH   3   5
BRANCH   1  23
ATOM     23  C   UNL     1       4.935   5.959  17.183  0.00  0.00    +0.000 C 
BRANCH  23  24
ATOM     24  N   UNL     1       5.865   6.914  17.788  0.00  0.00    +0.000 N 
ATOM     25  C   UNL     1       7.138   7.103  17.310  0.00  0.00    +0.000 C 
ATOM     26  O   UNL     1       7.589   6.516  16.335  0.00  0.00    +0.000 OA
ATOM     27  H   UNL     1       5.480   7.606  18.415  0.00  0.00    +0.000 HD
BRANCH  25  28
ATOM     28  C   UNL     1       7.904   8.104  18.101  0.00  0.00    +0.000 C 
ATOM     29  C   UNL     1       8.076   9.356  17.648  0.00  0.00    +0.000 C 
BRANCH  29  30
ATOM     30  C   UNL     1       8.827  10.409  18.357  0.00  0.00    +0.000 A 
ATOM     31  C   UNL     1       9.063  11.679  17.805  0.00  0.00    +0.000 A 
ATOM     32  C   UNL     1       9.763  12.653  18.525  0.00  0.00    +0.000 A 
ATOM     33  C   UNL     1      10.220  12.367  19.804  0.00  0.00    +0.000 A 
ATOM     34  F   UNL     1      10.891  13.300  20.492  0.00  0.00    +0.000 F 
ATOM     35  C   UNL     1       9.982  11.127  20.381  0.00  0.00    +0.000 A 
ATOM     36  C   UNL     1       9.282  10.153  19.660  0.00  0.00    +0.000 A 
ENDBRANCH  29  30
ENDBRANCH  25  28
ENDBRANCH  23  24
BRANCH  23  37
ATOM     37  C   UNL     1       5.392   4.488  17.404  0.00  0.00    +0.000 C 
ATOM     38  C   UNL     1       4.704   3.566  16.388  0.00  0.00    +0.000 C 
BRANCH  37  40
ATOM     39  C   UNL     1       4.253   2.822  19.014  0.00  0.00    +0.000 C 
ATOM     40  C   UNL     1       5.223   3.986  18.857  0.00  0.00    +0.000 C 
ENDBRANCH  37  40
ENDBRANCH  23  37
ENDBRANCH   1  23
TORSDOF 14
ENDMDL
MODEL 2
REMARK VINA RESULT:      -7.3      1.168      1.500
REMARK  Name = 
REMARK  18 active torsions:
REMARK  status: ('A' for Active; 'I' for Inactive)
REMARK    1  A    between atoms: C_1  and  C_2
REMARK    2  A    between atoms: C_2  and  C_3
REMARK    3  A    between atoms: C_3  and  C_4
REMARK    4  A    between atoms: C_3  and  C_5
REMARK    5  A    between atoms: C_5  and  N_6
REMARK    6  A    between atoms: C_5  and  C_18
REMARK    7  A    between atoms: C_7  and  C_9
REMARK    8  A    between atoms: C_10  and  C_11
REMARK    9  A    between atoms: N_20  and  C_21
REMARK   10  A    between atoms: C_21  and  C_22
REMARK   11  A    between atoms: C_21  and  C_23
REMARK   12  A    between atoms: N_25  and  C_26
REMARK   13  A    between atoms: C_26  and  C_27
REMARK   14  A    between atoms: C_26  and  C_32
REMARK   15  A    between atoms: C_27  and  C_28
REMARK   16  A    between atoms: C_28  and  C_29
REMARK   17  A    between atoms: C_32  and  O_34
REMARK   18  A    between atoms: O_34  and  C_35
REMARK                            x       y       z     vdW  Elec       q    Type
REMARK                         _______ _______ _______ _____ _____    ______ ____
ROOT
ATOM      1  C   UNL     1       3.171   6.036  18.050  0.00  0.00    +0.000 C 
ATOM      2  O   UNL     1       2.256   5.254  18.291  0.00  0.00    +0.000 OA
ATOM      3  N   UNL     1       3.101   7.376  18.371  0.00  0.00    +0.000 N 
ATOM      4  H   UNL     1       3.984   7.870  18.499  0.00  0.00    +0.000 HD
ENDROOT
BRANCH   3   5
ATOM      5  C   UNL     1       1.892   7.956  18.966  0.00  0.00    +0.000 C 
ATOM      6  C   UNL     1       1.944   7.921  20.488  0.00  0.00    +0.000 C 
BRANCH   5   7
ATOM      7  C   UNL     1       1.681   9.399  18.457  0.00  0.00    +0.000 C 
ATOM      8  O   UNL     1       2.245   9.861  17.470  0.00  0.00    +0.000 OA
ATOM      9  N   UNL     1       0.908  10.180  19.288  0.00  0.00    +0.000 N 
ATOM     10  H   UNL     1       0.560   9.774  20.153  0.00  0.00    +0.000 HD
BRANCH   9  11
ATOM     11  C   UNL     1       0.610  11.586  19.010  0.00  0.00    +0.000 C 
BRANCH  11  12
ATOM     12  C   UNL     1       1.736  12.423  19.627  0.00  0.00    +0.000 C 
ATOM     13  O   UNL     1       1.921  12.549  20.832  0.00  0.00    +0.000 OA
BRANCH  12  14
ATOM     14  O   UNL     1       2.469  13.024  18.647  0.00  0.00    +0.000 OA
ATOM     15  C   UNL     1       3.061  14.266  19.029  0.00  0.00    +0.000 C 
ENDBRANCH  12  14
ENDBRANCH  11  12
BRANCH  11  16
ATOM     16  C   UNL     1      -0.762  11.975  19.585  0.00  0.00    +0.000 C 
BRANCH  16  17
ATOM     17  C   UNL     1      -1.907  11.154  18.991  0.00  0.00    +0.000 C 
BRANCH  17  18
ATOM     18  C   UNL     1      -1.738  10.860  17.518  0.00  0.00    +0.000 C 
ATOM     19  N   UNL     1      -1.978  11.891  16.667  0.00  0.00    +0.000 N 
ATOM     20  O   UNL     1      -1.439   9.749  17.093  0.00  0.00    +0.000 OA
ATOM     21  H   UNL     1      -2.341  12.786  16.965  0.00  0.00    +0.000 HD
ATOM     22  H   UNL     1      -1.945  11.688  15.674  0.00  0.00    +0.000 HD
ENDBRANCH  17  18
ENDBRANCH  16  17
ENDBRANCH  11  16
ENDBRANCH   9  11
ENDBRANCH   5   7
ENDBRANCH   3   5
BRANCH   1  23
ATOM     23  C   UNL     1       4.534   5.609  17.441  0.00  0.00    +0.000 C 
BRANCH  23  24
ATOM     24  N   UNL     1       5.569   6.533  17.904  0.00  0.00    +0.000 N 
ATOM     25  C   UNL     1       6.734   6.739  17.208  0.00  0.00    +0.000 C 
ATOM     26  O   UNL     1       6.992   6.194  16.142  0.00  0.00    +0.000 OA
ATOM     27  H   UNL     1       5.313   7.199  18.619  0.00  0.00    +0.000 HD
BRANCH  25  28
ATOM     28  C   UNL     1       7.643   7.703  17.885  0.00  0.00    +0.000 C 
ATOM     29  C   UNL     1       7.621   9.008  17.574  0.00  0.00    +0.000 C 
BRANCH  29  30
ATOM     30  C   UNL     1       8.490  10.032  18.185  0.00  0.00    +0.000 A 
ATOM     31  C   UNL     1       8.610  11.333  17.671  0.00  0.00    +0.000 A 
ATOM     32  C   UNL     1       9.432  12.277  18.297  0.00  0.00    +0.000 A 
ATOM     33  C   UNL     1      10.128  11.927  19.447  0.00  0.00    +0.000 A 
ATOM     34  F   UNL     1      10.915  12.831  20.045  0.00  0.00    +0.000 F 
ATOM     35  C   UNL     1      10.010  10.654  19.987  0.00  0.00    +0.000 A 
ATOM     36  C   UNL     1       9.189   9.711  19.359  0.00  0.00    +0.000 A 
ENDBRANCH  29  30
ENDBRANCH  25  28
ENDBRANCH  23  24
BRANCH  23  37
ATOM     37  C   UNL     1       4.914   4.126  17.722  0.00  0.00    +0.000 C 
ATOM     38  C   UNL     1       3.993   3.187  16.931  0.00  0.00    +0.000 C 
BRANCH  37  40
ATOM     39  C   UNL     1       4.291   2.447  19.581  0.00  0.00    +0.000 C 
ATOM     40  C   UNL     1       4.969   3.762  19.225  0.00  0.00    +0.000 C 
ENDBRANCH  37  40
ENDBRANCH  23  37
ENDBRANCH   1  23
TORSDOF 14
ENDMDL
MODEL 3
REMARK VINA RESULT:      -7.2      1.230      1.660
REMARK  Name = 
REMARK  18 active torsions:
REMARK  status: ('A' for Active; 'I' for Inactive)
REMARK    1  A    between atoms: C_1  and  C_2
REMARK    2  A    between atoms: C_2  and  C_3
REMARK    3  A    between atoms: C_3  and  C_4
REMARK    4  A    between atoms: C_3  and  C_5
REMARK    5  A    between atoms: C_5  and  N_6
REMARK    6  A    between atoms: C_5  and  C_18
REMARK    7  A    between atoms: C_7  and  C_9
REMARK    8  A    between atoms: C_10  and  C_11
REMARK    9  A    between atoms: N_20  and  C_21
REMARK   10  A    between atoms: C_21  and  C_22
REMARK   11  A    between atoms: C_21  and  C_23
REMARK   12  A    between atoms: N_25  and  C_26
REMARK   13  A    between atoms: C_26  and  C_27
REMARK   14  A    between atoms: C_26  and  C_32
REMARK   15  A    between atoms: C_27  and  C_28
REMARK   16  A    between atoms: C_28  and  C_29
REMARK   17  A    between atoms: C_32  and  O_34
REMARK   18  A    between atoms: O_34  and  C_35
REMARK                            x       y       z     vdW  Elec       q    Type
REMARK                         _______ _______ _______ _____ _____    ______ ____
ROOT
ATOM      1  C   UNL     1       4.086   5.989  18.161  0.00  0.00    +0.000 C 
ATOM      2  O   UNL     1       3.605   5.123  18.886  0.00  0.00    +0.000 OA
ATOM      3  N   UNL     1       3.475   7.210  17.962  0.00  0.00    +0.000 N 
ATOM      4  H   UNL     1       4.072   7.988  17.683  0.00  0.00    +0.000 HD
ENDROOT
BRANCH   3   5
ATOM      5  C   UNL     1       2.173   7.518  18.563  0.00  0.00    +0.000 C 
ATOM      6  C   UNL     1       2.223   7.433  20.084  0.00  0.00    +0.000 C 
BRANCH   5   7
ATOM      7  C   UNL     1       1.686   8.912  18.108  0.00  0.00    +0.000 C 
ATOM      8  O   UNL     1       2.080   9.469  17.088  0.00  0.00    +0.000 OA
ATOM      9  N   UNL     1       0.870   9.546  19.018  0.00  0.00    +0.000 N 
ATOM     10  H   UNL     1       0.669   9.080  19.900  0.00  0.00    +0.000 HD
BRANCH   9  11
ATOM     11  C   UNL     1       0.324  10.887  18.800  0.00  0.00    +0.000 C 
BRANCH  11  12
ATOM     12  C   UNL     1       1.373  11.893  19.285  0.00  0.00    +0.000 C 
ATOM     13  O   UNL     1       2.307  12.299  18.604  0.00  0.00    +0.000 OA
BRANCH  12  14
ATOM     14  O   UNL     1       1.132  12.238  20.582  0.00  0.00    +0.000 OA
ATOM     15  C   UNL     1       1.784  13.435  21.007  0.00  0.00    +0.000 C 
ENDBRANCH  12  14
ENDBRANCH  11  12
BRANCH  11  16
ATOM     16  C   UNL     1      -1.010  11.058  19.545  0.00  0.00    +0.000 C 
BRANCH  16  17
ATOM     17  C   UNL     1      -2.119  11.617  18.653  0.00  0.00    +0.000 C 
BRANCH  17  18
ATOM     18  C   UNL     1      -2.370  10.792  17.412  0.00  0.00    +0.000 C 
ATOM     19  N   UNL     1      -2.258  11.442  16.224  0.00  0.00    +0.000 N 
ATOM     20  O   UNL     1      -2.695   9.610  17.455  0.00  0.00    +0.000 OA
ATOM     21  H   UNL     1      -2.111  12.439  16.147  0.00  0.00    +0.000 HD
ATOM     22  H   UNL     1      -2.500  10.922  15.388  0.00  0.00    +0.000 HD
ENDBRANCH  17  18
ENDBRANCH  16  17
ENDBRANCH  11  16
ENDBRANCH   9  11
ENDBRANCH   5   7
ENDBRANCH   3   5
BRANCH   1  23
ATOM     23  C   UNL     1       5.461   5.855  17.453  0.00  0.00    +0.000 C 
BRANCH  23  24
ATOM     24  N   UNL     1       6.396   6.809  18.051  0.00  0.00    +0.000 N 
ATOM     25  C   UNL     1       7.456   7.333  17.355  0.00  0.00    +0.000 C 
ATOM     26  O   UNL     1       7.694   7.071  16.183  0.00  0.00    +0.000 OA
ATOM     27  H   UNL     1       6.113   7.262  18.908  0.00  0.00    +0.000 HD
BRANCH  25  28
ATOM     28  C   UNL     1       8.279   8.261  18.178  0.00  0.00    +0.000 C 
ATOM     29  C   UNL     1       8.438   9.545  17.820  0.00  0.00    +0.000 C 
BRANCH  29  30
ATOM     30  C   UNL     1       9.242  10.531  18.567  0.00  0.00    +0.000 A 
ATOM     31  C   UNL     1      10.054  11.487  17.934  0.00  0.00    +0.000 A 
ATOM     32  C   UNL     1      10.782  12.416  18.686  0.00  0.00    +0.000 A 
ATOM     33  C   UNL     1      10.692  12.402  20.071  0.00  0.00    +0.000 A 
ATOM     34  F   UNL     1      11.390  13.292  20.789  0.00  0.00    +0.000 F 
ATOM     35  C   UNL     1       9.880  11.482  20.719  0.00  0.00    +0.000 A 
ATOM     36  C   UNL     1       9.153  10.553  19.967  0.00  0.00    +0.000 A 
ENDBRANCH  29  30
ENDBRANCH  25  28
ENDBRANCH  23  24
BRANCH  23  37
ATOM     37  C   UNL     1       6.034   4.408  17.452  0.00  0.00    +0.000 C 
ATOM     38  C   UNL     1       7.540   4.437  17.746  0.00  0.00    +0.000 C 
BRANCH  37  40
ATOM     39  C   UNL     1       6.344   4.135  14.904  0.00  0.00    +0.000 C 
ATOM     40  C   UNL     1       5.702   3.599  16.176  0.00  0.00    +0.000 C 
ENDBRANCH  37  40
ENDBRANCH  23  37
ENDBRANCH   1  23
TORSDOF 14
ENDMDL
MODEL 4
REMARK VINA RESULT:      -7.1      1.139      1.219
REMARK  Name = 
REMARK  18 active torsions:
REMARK  status: ('A' for Active; 'I' for Inactive)
REMARK    1  A    between atoms: C_1  and  C_2
REMARK    2  A    between atoms: C_2  and  C_3
REMARK    3  A    between atoms: C_3  and  C_4
REMARK    4  A    between atoms: C_3  and  C_5
REMARK    5  A    between atoms: C_5  and  N_6
REMARK    6  A    between atoms: C_5  and  C_18
REMARK    7  A    between atoms: C_7  and  C_9
REMARK    8  A    between atoms: C_10  and  C_11
REMARK    9  A    between atoms: N_20  and  C_21
REMARK   10  A    between atoms: C_21  and  C_22
REMARK   11  A    between atoms: C_21  and  C_23
REMARK   12  A    between atoms: N_25  and  C_26
REMARK   13  A    between atoms: C_26  and  C_27
REMARK   14  A    between atoms: C_26  and  C_32
REMARK   15  A    between atoms: C_27  and  C_28
REMARK   16  A    between atoms: C_28  and  C_29
REMARK   17  A    between atoms: C_32  and  O_34
REMARK   18  A    between atoms: O_34  and  C_35
REMARK                            x       y       z     vdW  Elec       q    Type
REMARK                         _______ _______ _______ _____ _____    ______ ____
ROOT
ATOM      1  C   UNL     1       3.598   6.004  17.633  0.00  0.00    +0.000 C 
ATOM      2  O   UNL     1       2.693   5.207  17.404  0.00  0.00    +0.000 OA
ATOM      3  N   UNL     1       3.413   7.130  18.409  0.00  0.00    +0.000 N 
ATOM      4  H   UNL     1       4.238   7.523  18.862  0.00  0.00    +0.000 HD
ENDROOT
BRANCH   3   5
ATOM      5  C   UNL     1       2.095   7.472  18.954  0.00  0.00    +0.000 C 
ATOM      6  C   UNL     1       2.028   7.222  20.456  0.00  0.00    +0.000 C 
BRANCH   5   7
ATOM      7  C   UNL     1       1.740   8.939  18.626  0.00  0.00    +0.000 C 
ATOM      8  O   UNL     1       2.095   9.511  17.600  0.00  0.00    +0.000 OA
ATOM      9  N   UNL     1       1.106   9.606  19.651  0.00  0.00    +0.000 N 
ATOM     10  H   UNL     1       0.940   9.112  20.525  0.00  0.00    +0.000 HD
BRANCH   9  11
ATOM     11  C   UNL     1       0.711  11.013  19.562  0.00  0.00    +0.000 C 
BRANCH  11  12
ATOM     12  C   UNL     1       0.821  11.610  20.969  0.00  0.00    +0.000 C 
ATOM     13  O   UNL     1       1.191  12.755  21.205  0.00  0.00    +0.000 OA
BRANCH  12  14
ATOM     14  O   UNL     1       0.484  10.679  21.905  0.00  0.00    +0.000 OA
ATOM     15  C   UNL     1      -0.658  11.018  22.692  0.00  0.00    +0.000 C 
ENDBRANCH  12  14
ENDBRANCH  11  12
BRANCH  11  16
ATOM     16  C   UNL     1      -0.716  11.142  19.005  0.00  0.00    +0.000 C 
BRANCH  16  17
ATOM     17  C   UNL     1      -1.244  12.576  19.053  0.00  0.00    +0.000 C 
BRANCH  17  18
ATOM     18  C   UNL     1      -2.584  12.704  19.738  0.00  0.00    +0.000 C 
ATOM     19  N   UNL     1      -3.671  12.342  19.007  0.00  0.00    +0.000 N 
ATOM     20  O   UNL     1      -2.710  13.143  20.877  0.00  0.00    +0.000 OA
ATOM     21  H   UNL     1      -3.625  12.089  18.029  0.00  0.00    +0.000 HD
ATOM     22  H   UNL     1      -4.581  12.496  19.425  0.00  0.00    +0.000 HD
ENDBRANCH  17  18
ENDBRANCH  16  17
ENDBRANCH  11  16
ENDBRANCH   9  11
ENDBRANCH   5   7
ENDBRANCH   3   5
BRANCH   1  23
ATOM     23  C   UNL     1       5.063   5.807  17.158  0.00  0.00    +0.000 C 
BRANCH  23  24
ATOM     24  N   UNL     1       5.909   6.813  17.801  0.00  0.00    +0.000 N 
ATOM     25  C   UNL     1       7.147   7.151  17.314  0.00  0.00    +0.000 C 
ATOM     26  O   UNL     1       7.633   6.664  16.301  0.00  0.00    +0.000 OA
ATOM     27  H   UNL     1       5.472   7.429  18.470  0.00  0.00    +0.000 HD
BRANCH  25  28
ATOM     28  C   UNL     1       7.829   8.178  18.148  0.00  0.00    +0.000 C 
ATOM     29  C   UNL     1       8.181   9.365  17.630  0.00  0.00    +0.000 C 
BRANCH  29  30
ATOM     30  C   UNL     1       8.867  10.437  18.376  0.00  0.00    +0.000 A 
ATOM     31  C   UNL     1       9.046  11.730  17.858  0.00  0.00    +0.000 A 
ATOM     32  C   UNL     1       9.686  12.720  18.612  0.00  0.00    +0.000 A 
ATOM     33  C   UNL     1      10.138  12.425  19.892  0.00  0.00    +0.000 A 
ATOM     34  F   UNL     1      10.751  13.373  20.612  0.00  0.00    +0.000 F 
ATOM     35  C   UNL     1       9.955  11.161  20.434  0.00  0.00    +0.000 A 
ATOM     36  C   UNL     1       9.315  10.172  19.679  0.00  0.00    +0.000 A 
ENDBRANCH  29  30
ENDBRANCH  25  28
ENDBRANCH  23  24
BRANCH  23  37
ATOM     37  C   UNL     1       5.610   4.366  17.377  0.00  0.00    +0.000 C 
ATOM     38  C   UNL     1       5.533   3.569  16.068  0.00  0.00    +0.000 C 
BRANCH  37  40
ATOM     39  C   UNL     1       4.077   2.437  18.149  0.00  0.00    +0.000 C 
ATOM     40  C   UNL     1       4.952   3.615  18.558  0.00  0.00    +0.000 C 
ENDBRANCH  37  40
ENDBRANCH  23  37
ENDBRANCH   1  23
TORSDOF 14
ENDMDL
MODEL 5
REMARK VINA RESULT:      -7.0      4.699      7.945
REMARK  Name = 
REMARK  18 active torsions:
REMARK  status: ('A' for Active; 'I' for Inactive)
REMARK    1  A    between atoms: C_1  and  C_2
REMARK    2  A    between atoms: C_2  and  C_3
REMARK    3  A    between atoms: C_3  and  C_4
REMARK    4  A    between atoms: C_3  and  C_5
REMARK    5  A    between atoms: C_5  and  N_6
REMARK    6  A    between atoms: C_5  and  C_18
REMARK    7  A    between atoms: C_7  and  C_9
REMARK    8  A    between atoms: C_10  and  C_11
REMARK    9  A    between atoms: N_20  and  C_21
REMARK   10  A    between atoms: C_21  and  C_22
REMARK   11  A    between atoms: C_21  and  C_23
REMARK   12  A    between atoms: N_25  and  C_26
REMARK   13  A    between atoms: C_26  and  C_27
REMARK   14  A    between atoms: C_26  and  C_32
REMARK   15  A    between atoms: C_27  and  C_28
REMARK   16  A    between atoms: C_28  and  C_29
REMARK   17  A    between atoms: C_32  and  O_34
REMARK   18  A    between atoms: O_34  and  C_35
REMARK                            x       y       z     vdW  Elec       q    Type
REMARK                         _______ _______ _______ _____ _____    ______ ____
ROOT
ATOM      1  C   UNL     1      -1.165  11.071  19.905  0.00  0.00    +0.000 C 
ATOM      2  O   UNL     1      -0.950  10.064  20.573  0.00  0.00    +0.000 OA
ATOM      3  N   UNL     1      -1.639  12.240  20.463  0.00  0.00    +0.000 N 
ATOM      4  H   UNL     1      -1.439  13.108  19.964  0.00  0.00    +0.000 HD
ENDROOT
BRANCH   3   5
ATOM      5  C   UNL     1      -1.976  12.324  21.888  0.00  0.00    +0.000 C 
ATOM      6  C   UNL     1      -1.131  13.371  22.603  0.00  0.00    +0.000 C 
BRANCH   5   7
ATOM      7  C   UNL     1      -3.482  12.617  22.069  0.00  0.00    +0.000 C 
ATOM      8  O   UNL     1      -4.112  12.333  23.083  0.00  0.00    +0.000 OA
ATOM      9  N   UNL     1      -4.100  13.101  20.937  0.00  0.00    +0.000 N 
ATOM     10  H   UNL     1      -3.548  13.210  20.089  0.00  0.00    +0.000 HD
BRANCH   9  11
ATOM     11  C   UNL     1      -5.529  13.415  20.882  0.00  0.00    +0.000 C 
BRANCH  11  12
ATOM     12  C   UNL     1      -5.770  14.618  21.800  0.00  0.00    +0.000 C 
ATOM     13  O   UNL     1      -5.108  15.649  21.774  0.00  0.00    +0.000 OA
BRANCH  12  14
ATOM     14  O   UNL     1      -6.793  14.357  22.661  0.00  0.00    +0.000 OA
ATOM     15  C   UNL     1      -6.680  15.005  23.929  0.00  0.00    +0.000 C 
ENDBRANCH  12  14
ENDBRANCH  11  12
BRANCH  11  16
ATOM     16  C   UNL     1      -6.368  12.201  21.311  0.00  0.00    +0.000 C 
BRANCH  16  17
ATOM     17  C   UNL     1      -7.158  11.588  20.153  0.00  0.00    +0.000 C 
BRANCH  17  18
ATOM     18  C   UNL     1      -7.397  10.104  20.303  0.00  0.00    +0.000 C 
ATOM     19  N   UNL     1      -7.416   9.378  19.155  0.00  0.00    +0.000 N 
ATOM     20  O   UNL     1      -7.603   9.570  21.388  0.00  0.00    +0.000 OA
ATOM     21  H   UNL     1      -7.370   9.793  18.233  0.00  0.00    +0.000 HD
ATOM     22  H   UNL     1      -7.652   8.396  19.232  0.00  0.00    +0.000 HD
ENDBRANCH  17  18
ENDBRANCH  16  17
ENDBRANCH  11  16
ENDBRANCH   9  11
ENDBRANCH   5   7
ENDBRANCH   3   5
BRANCH   1  23
ATOM     23  C   UNL     1      -0.855  11.183  18.387  0.00  0.00    +0.000 C 
BRANCH  23  24
ATOM     24  N   UNL     1       0.026  10.080  18.003  0.00  0.00    +0.000 N 
ATOM     25  C   UNL     1       1.394  10.182  18.054  0.00  0.00    +0.000 C 
ATOM     26  O   UNL     1       1.985  11.180  18.446  0.00  0.00    +0.000 OA
ATOM     27  H   UNL     1      -0.384   9.161  17.925  0.00  0.00    +0.000 HD
BRANCH  25  28
ATOM     28  C   UNL     1       2.078   8.943  17.592  0.00  0.00    +0.000 C 
ATOM     29  C   UNL     1       2.198   7.879  18.400  0.00  0.00    +0.000 C 
BRANCH  29  30
ATOM     30  C   UNL     1       2.867   6.616  18.032  0.00  0.00    +0.000 A 
ATOM     31  C   UNL     1       2.237   5.365  18.131  0.00  0.00    +0.000 A 
ATOM     32  C   UNL     1       2.906   4.196  17.750  0.00  0.00    +0.000 A 
ATOM     33  C   UNL     1       4.201   4.274  17.257  0.00  0.00    +0.000 A 
ATOM     34  F   UNL     1       4.840   3.154  16.894  0.00  0.00    +0.000 F 
ATOM     35  C   UNL     1       4.838   5.501  17.131  0.00  0.00    +0.000 A 
ATOM     36  C   UNL     1       4.170   6.669  17.512  0.00  0.00    +0.000 A 
ENDBRANCH  29  30
ENDBRANCH  25  28
ENDBRANCH  23  24
BRANCH  23  37
ATOM     37  C   UNL     1      -2.123  11.251  17.487  0.00  0.00    +0.000 C 
ATOM     38  C   UNL     1      -3.388  11.222  18.356  0.00  0.00    +0.000 C 
BRANCH  37  40
ATOM     39  C   UNL     1      -2.978  10.581  15.145  0.00  0.00    +0.000 C 
ATOM     40  C   UNL     1      -2.160  10.185  16.367  0.00  0.00    +0.000 C 
ENDBRANCH  37  40
ENDBRANCH  23  37
ENDBRANCH   1  23
TORSDOF 14
ENDMDL
MODEL 6
REMARK VINA RESULT:      -6.8      1.321      1.619
REMARK  Name = 
REMARK  18 active torsions:
REMARK  status: ('A' for Active; 'I' for Inactive)
REMARK    1  A    between atoms: C_1  and  C_2
REMARK    2  A    between atoms: C_2  and  C_3
REMARK    3  A    between atoms: C_3  and  C_4
REMARK    4  A    between atoms: C_3  and  C_5
REMARK    5  A    between atoms: C_5  and  N_6
REMARK    6  A    between atoms: C_5  and  C_18
REMARK    7  A    between atoms: C_7  and  C_9
REMARK    8  A    between atoms: C_10  and  C_11
REMARK    9  A    between atoms: N_20  and  C_21
REMARK   10  A    between atoms: C_21  and  C_22
REMARK   11  A    between atoms: C_21  and  C_23
REMARK   12  A    between atoms: N_25  and  C_26
REMARK   13  A    between atoms: C_26  and  C_27
REMARK   14  A    between atoms: C_26  and  C_32
REMARK   15  A    between atoms: C_27  and  C_28
REMARK   16  A    between atoms: C_28  and  C_29
REMARK   17  A    between atoms: C_32  and  O_34
REMARK   18  A    between atoms: O_34  and  C_35
REMARK                            x       y       z     vdW  Elec       q    Type
REMARK                         _______ _______ _______ _____ _____    ______ ____
ROOT
ATOM      1  C   UNL     1       4.257   5.696  17.562  0.00  0.00    +0.000 C 
ATOM      2  O   UNL     1       3.527   4.851  17.052  0.00  0.00    +0.000 OA
ATOM      3  N   UNL     1       3.777   6.668  18.415  0.00  0.00    +0.000 N 
ATOM      4  H   UNL     1       4.440   7.074  19.076  0.00  0.00    +0.000 HD
ENDROOT
BRANCH   3   5
ATOM      5  C   UNL     1       2.346   6.784  18.712  0.00  0.00    +0.000 C 
ATOM      6  C   UNL     1       2.032   6.346  20.137  0.00  0.00    +0.000 C 
BRANCH   5   7
ATOM      7  C   UNL     1       1.859   8.229  18.462  0.00  0.00    +0.000 C 
ATOM      8  O   UNL     1       2.159   8.884  17.469  0.00  0.00    +0.000 OA
ATOM      9  N   UNL     1       1.169   8.780  19.519  0.00  0.00    +0.000 N 
ATOM     10  H   UNL     1       1.049   8.226  20.364  0.00  0.00    +0.000 HD
BRANCH   9  11
ATOM     11  C   UNL     1       0.648  10.148  19.504  0.00  0.00    +0.000 C 
BRANCH  11  12
ATOM     12  C   UNL     1       0.498  10.596  20.962  0.00  0.00    +0.000 C 
ATOM     13  O   UNL     1       1.013  11.606  21.429  0.00  0.00    +0.000 OA
BRANCH  12  14
ATOM     14  O   UNL     1      -0.256   9.699  21.657  0.00  0.00    +0.000 OA
ATOM     15  C   UNL     1      -0.428  10.015  23.039  0.00  0.00    +0.000 C 
ENDBRANCH  12  14
ENDBRANCH  11  12
BRANCH  11  16
ATOM     16  C   UNL     1      -0.692  10.210  18.754  0.00  0.00    +0.000 C 
BRANCH  16  17
ATOM     17  C   UNL     1      -1.220  11.637  18.601  0.00  0.00    +0.000 C 
BRANCH  17  18
ATOM     18  C   UNL     1      -2.476  11.731  17.767  0.00  0.00    +0.000 C 
ATOM     19  N   UNL     1      -2.308  11.684  16.419  0.00  0.00    +0.000 N 
ATOM     20  O   UNL     1      -3.591  11.879  18.258  0.00  0.00    +0.000 OA
ATOM     21  H   UNL     1      -1.402  11.683  15.971  0.00  0.00    +0.000 HD
ATOM     22  H   UNL     1      -3.132  11.824  15.845  0.00  0.00    +0.000 HD
ENDBRANCH  17  18
ENDBRANCH  16  17
ENDBRANCH  11  16
ENDBRANCH   9  11
ENDBRANCH   5   7
ENDBRANCH   3   5
BRANCH   1  23
ATOM     23  C   UNL     1       5.799   5.727  17.381  0.00  0.00    +0.000 C 
BRANCH  23  24
ATOM     24  N   UNL     1       6.289   7.060  17.732  0.00  0.00    +0.000 N 
ATOM     25  C   UNL     1       7.389   7.620  17.130  0.00  0.00    +0.000 C 
ATOM     26  O   UNL     1       8.030   7.069  16.243  0.00  0.00    +0.000 OA
ATOM     27  H   UNL     1       5.668   7.663  18.252  0.00  0.00    +0.000 HD
BRANCH  25  28
ATOM     28  C   UNL     1       7.710   8.970  17.667  0.00  0.00    +0.000 C 
ATOM     29  C   UNL     1       8.823   9.179  18.388  0.00  0.00    +0.000 C 
BRANCH  29  30
ATOM     30  C   UNL     1       9.217  10.478  18.967  0.00  0.00    +0.000 A 
ATOM     31  C   UNL     1       9.496  11.608  18.182  0.00  0.00    +0.000 A 
ATOM     32  C   UNL     1       9.846  12.825  18.778  0.00  0.00    +0.000 A 
ATOM     33  C   UNL     1       9.906  12.920  20.162  0.00  0.00    +0.000 A 
ATOM     34  F   UNL     1      10.242  14.085  20.731  0.00  0.00    +0.000 F 
ATOM     35  C   UNL     1       9.614  11.823  20.961  0.00  0.00    +0.000 A 
ATOM     36  C   UNL     1       9.265  10.607  20.364  0.00  0.00    +0.000 A 
ENDBRANCH  29  30
ENDBRANCH  25  28
ENDBRANCH  23  24
BRANCH  23  37
ATOM     37  C   UNL     1       6.549   4.611  18.164  0.00  0.00    +0.000 C 
ATOM     38  C   UNL     1       5.695   4.131  19.346  0.00  0.00    +0.000 C 
BRANCH  37  40
ATOM     39  C   UNL     1       8.094   5.500  20.032  0.00  0.00    +0.000 C 
ATOM     40  C   UNL     1       7.982   4.998  18.598  0.00  0.00    +0.000 C 
ENDBRANCH  37  40
ENDBRANCH  23  37
ENDBRANCH   1  23
TORSDOF 14
ENDMDL
MODEL 7
REMARK VINA RESULT:      -6.7      4.151      7.112
REMARK  Name = 
REMARK  18 active torsions:
REMARK  status: ('A' for Active; 'I' for Inactive)
REMARK    1  A    between atoms: C_1  and  C_2
REMARK    2  A    between atoms: C_2  and  C_3
REMARK    3  A    between atoms: C_3  and  C_4
REMARK    4  A    between atoms: C_3  and  C_5
REMARK    5  A    between atoms: C_5  and  N_6
REMARK    6  A    between atoms: C_5  and  C_18
REMARK    7  A    between atoms: C_7  and  C_9
REMARK    8  A    between atoms: C_10  and  C_11
REMARK    9  A    between atoms: N_20  and  C_21
REMARK   10  A    between atoms: C_21  and  C_22
REMARK   11  A    between atoms: C_21  and  C_23
REMARK   12  A    between atoms: N_25  and  C_26
REMARK   13  A    between atoms: C_26  and  C_27
REMARK   14  A    between atoms: C_26  and  C_32
REMARK   15  A    between atoms: C_27  and  C_28
REMARK   16  A    between atoms: C_28  and  C_29
REMARK   17  A    between atoms: C_32  and  O_34
REMARK   18  A    between atoms: O_34  and  C_35
REMARK                            x       y       z     vdW  Elec       q    Type
REMARK                         _______ _______ _______ _____ _____    ______ ____
ROOT
ATOM      1  C   UNL     1      -0.432  10.515  19.139  0.00  0.00    +0.000 C 
ATOM      2  O   UNL     1       0.169  11.385  18.516  0.00  0.00    +0.000 OA
ATOM      3  N   UNL     1      -1.777  10.271  18.957  0.00  0.00    +0.000 N 
ATOM      4  H   UNL     1      -2.117   9.340  19.196  0.00  0.00    +0.000 HD
ENDROOT
BRANCH   3   5
ATOM      5  C   UNL     1      -2.584  11.089  18.045  0.00  0.00    +0.000 C 
ATOM      6  C   UNL     1      -3.158  10.257  16.905  0.00  0.00    +0.000 C 
BRANCH   5   7
ATOM      7  C   UNL     1      -3.710  11.808  18.821  0.00  0.00    +0.000 C 
ATOM      8  O   UNL     1      -4.902  11.693  18.550  0.00  0.00    +0.000 OA
ATOM      9  N   UNL     1      -3.259  12.709  19.760  0.00  0.00    +0.000 N 
ATOM     10  H   UNL     1      -2.256  12.846  19.861  0.00  0.00    +0.000 HD
BRANCH   9  11
ATOM     11  C   UNL     1      -4.158  13.520  20.583  0.00  0.00    +0.000 C 
BRANCH  11  12
ATOM     12  C   UNL     1      -3.420  14.819  20.924  0.00  0.00    +0.000 C 
ATOM     13  O   UNL     1      -2.213  14.894  21.127  0.00  0.00    +0.000 OA
BRANCH  12  14
ATOM     14  O   UNL     1      -4.299  15.857  20.999  0.00  0.00    +0.000 OA
ATOM     15  C   UNL     1      -4.019  16.796  22.037  0.00  0.00    +0.000 C 
ENDBRANCH  12  14
ENDBRANCH  11  12
BRANCH  11  16
ATOM     16  C   UNL     1      -4.571  12.756  21.851  0.00  0.00    +0.000 C 
BRANCH  16  17
ATOM     17  C   UNL     1      -6.029  13.002  22.242  0.00  0.00    +0.000 C 
BRANCH  17  18
ATOM     18  C   UNL     1      -7.023  12.439  21.254  0.00  0.00    +0.000 C 
ATOM     19  N   UNL     1      -6.885  11.122  20.945  0.00  0.00    +0.000 N 
ATOM     20  O   UNL     1      -7.889  13.123  20.719  0.00  0.00    +0.000 OA
ATOM     21  H   UNL     1      -6.115  10.553  21.269  0.00  0.00    +0.000 HD
ATOM     22  H   UNL     1      -7.494  10.750  20.226  0.00  0.00    +0.000 HD
ENDBRANCH  17  18
ENDBRANCH  16  17
ENDBRANCH  11  16
ENDBRANCH   9  11
ENDBRANCH   5   7
ENDBRANCH   3   5
BRANCH   1  23
ATOM     23  C   UNL     1       0.252   9.538  20.134  0.00  0.00    +0.000 C 
BRANCH  23  24
ATOM     24  N   UNL     1       1.400   8.918  19.474  0.00  0.00    +0.000 N 
ATOM     25  C   UNL     1       1.873   7.680  19.832  0.00  0.00    +0.000 C 
ATOM     26  O   UNL     1       1.366   6.988  20.706  0.00  0.00    +0.000 OA
ATOM     27  H   UNL     1       1.695   9.306  18.589  0.00  0.00    +0.000 HD
BRANCH  25  28
ATOM     28  C   UNL     1       3.063   7.269  19.037  0.00  0.00    +0.000 C 
ATOM     29  C   UNL     1       3.081   6.100  18.377  0.00  0.00    +0.000 C 
BRANCH  29  30
ATOM     30  C   UNL     1       4.217   5.607  17.575  0.00  0.00    +0.000 A 
ATOM     31  C   UNL     1       4.225   4.343  16.963  0.00  0.00    +0.000 A 
ATOM     32  C   UNL     1       5.317   3.927  16.194  0.00  0.00    +0.000 A 
ATOM     33  C   UNL     1       6.401   4.779  16.022  0.00  0.00    +0.000 A 
ATOM     34  F   UNL     1       7.446   4.380  15.286  0.00  0.00    +0.000 F 
ATOM     35  C   UNL     1       6.408   6.041  16.598  0.00  0.00    +0.000 A 
ATOM     36  C   UNL     1       5.316   6.456  17.367  0.00  0.00    +0.000 A 
ENDBRANCH  29  30
ENDBRANCH  25  28
ENDBRANCH  23  24
BRANCH  23  37
ATOM     37  C   UNL     1       0.648  10.192  21.490  0.00  0.00    +0.000 C 
ATOM     38  C   UNL     1       0.175   9.313  22.656  0.00  0.00    +0.000 C 
BRANCH  37  40
ATOM     39  C   UNL     1      -0.952  11.867  22.630  0.00  0.00    +0.000 C 
ATOM     40  C   UNL     1       0.187  11.661  21.641  0.00  0.00    +0.000 C 
ENDBRANCH  37  40
ENDBRANCH  23  37
ENDBRANCH   1  23
TORSDOF 14
ENDMDL
MODEL 8
REMARK VINA RESULT:      -6.6      4.318      7.069
REMARK  Name = 
REMARK  18 active torsions:
REMARK  status: ('A' for Active; 'I' for Inactive)
REMARK    1  A    between atoms: C_1  and  C_2
REMARK    2  A    between atoms: C_2  and  C_3
REMARK    3  A    between atoms: C_3  and  C_4
REMARK    4  A    between atoms: C_3  and  C_5
REMARK    5  A    between atoms: C_5  and  N_6
REMARK    6  A    between atoms: C_5  and  C_18
REMARK    7  A    between atoms: C_7  and  C_9
REMARK    8  A    between atoms: C_10  and  C_11
REMARK    9  A    between atoms: N_20  and  C_21
REMARK   10  A    between atoms: C_21  and  C_22
REMARK   11  A    between atoms: C_21  and  C_23
REMARK   12  A    between atoms: N_25  and  C_26
REMARK   13  A    between atoms: C_26  and  C_27
REMARK   14  A    between atoms: C_26  and  C_32
REMARK   15  A    between atoms: C_27  and  C_28
REMARK   16  A    between atoms: C_28  and  C_29
REMARK   17  A    between atoms: C_32  and  O_34
REMARK   18  A    between atoms: O_34  and  C_35
REMARK                            x       y       z     vdW  Elec       q    Type
REMARK                         _______ _______ _______ _____ _____    ______ ____
ROOT
ATOM      1  C   UNL     1       0.067   9.949  19.078  0.00  0.00    +0.000 C 
ATOM      2  O   UNL     1       0.740  10.362  18.138  0.00  0.00    +0.000 OA
ATOM      3  N   UNL     1      -1.296  10.146  19.153  0.00  0.00    +0.000 N 
ATOM      4  H   UNL     1      -1.830   9.487  19.720  0.00  0.00    +0.000 HD
ENDROOT
BRANCH   3   5
ATOM      5  C   UNL     1      -2.012  10.920  18.135  0.00  0.00    +0.000 C 
ATOM      6  C   UNL     1      -2.566  10.024  17.034  0.00  0.00    +0.000 C 
BRANCH   5   7
ATOM      7  C   UNL     1      -3.141  11.751  18.785  0.00  0.00    +0.000 C 
ATOM      8  O   UNL     1      -2.959  12.544  19.704  0.00  0.00    +0.000 OA
ATOM      9  N   UNL     1      -4.404  11.426  18.342  0.00  0.00    +0.000 N 
ATOM     10  H   UNL     1      -4.503  10.678  17.659  0.00  0.00    +0.000 HD
BRANCH   9  11
ATOM     11  C   UNL     1      -5.617  12.069  18.850  0.00  0.00    +0.000 C 
BRANCH  11  12
ATOM     12  C   UNL     1      -6.512  10.966  19.427  0.00  0.00    +0.000 C 
ATOM     13  O   UNL     1      -7.049  10.092  18.756  0.00  0.00    +0.000 OA
BRANCH  12  14
ATOM     14  O   UNL     1      -6.645  11.122  20.774  0.00  0.00    +0.000 OA
ATOM     15  C   UNL     1      -7.604  12.106  21.165  0.00  0.00    +0.000 C 
ENDBRANCH  12  14
ENDBRANCH  11  12
BRANCH  11  16
ATOM     16  C   UNL     1      -6.330  12.846  17.732  0.00  0.00    +0.000 C 
BRANCH  16  17
ATOM     17  C   UNL     1      -6.808  14.227  18.183  0.00  0.00    +0.000 C 
BRANCH  17  18
ATOM     18  C   UNL     1      -6.903  15.231  17.057  0.00  0.00    +0.000 C 
ATOM     19  N   UNL     1      -7.193  16.509  17.414  0.00  0.00    +0.000 N 
ATOM     20  O   UNL     1      -6.766  14.922  15.878  0.00  0.00    +0.000 OA
ATOM     21  H   UNL     1      -7.430  16.784  18.358  0.00  0.00    +0.000 HD
ATOM     22  H   UNL     1      -7.337  17.177  16.665  0.00  0.00    +0.000 HD
ENDBRANCH  17  18
ENDBRANCH  16  17
ENDBRANCH  11  16
ENDBRANCH   9  11
ENDBRANCH   5   7
ENDBRANCH   3   5
BRANCH   1  23
ATOM     23  C   UNL     1       0.642   9.096  20.241  0.00  0.00    +0.000 C 
BRANCH  23  24
ATOM     24  N   UNL     1       1.688   8.220  19.713  0.00  0.00    +0.000 N 
ATOM     25  C   UNL     1       1.884   6.945  20.182  0.00  0.00    +0.000 C 
ATOM     26  O   UNL     1       1.195   6.430  21.053  0.00  0.00    +0.000 OA
ATOM     27  H   UNL     1       2.111   8.478  18.833  0.00  0.00    +0.000 HD
BRANCH  25  28
ATOM     28  C   UNL     1       3.021   6.257  19.510  0.00  0.00    +0.000 C 
ATOM     29  C   UNL     1       3.551   6.744  18.378  0.00  0.00    +0.000 C 
BRANCH  29  30
ATOM     30  C   UNL     1       4.668   6.126  17.640  0.00  0.00    +0.000 A 
ATOM     31  C   UNL     1       4.757   6.144  16.238  0.00  0.00    +0.000 A 
ATOM     32  C   UNL     1       5.848   5.561  15.583  0.00  0.00    +0.000 A 
ATOM     33  C   UNL     1       6.860   4.969  16.327  0.00  0.00    +0.000 A 
ATOM     34  F   UNL     1       7.903   4.410  15.699  0.00  0.00    +0.000 F 
ATOM     35  C   UNL     1       6.806   4.956  17.714  0.00  0.00    +0.000 A 
ATOM     36  C   UNL     1       5.715   5.538  18.368  0.00  0.00    +0.000 A 
ENDBRANCH  29  30
ENDBRANCH  25  28
ENDBRANCH  23  24
BRANCH  23  37
ATOM     37  C   UNL     1       1.146   9.934  21.451  0.00  0.00    +0.000 C 
ATOM     38  C   UNL     1       0.579   9.365  22.759  0.00  0.00    +0.000 C 
BRANCH  37  40
ATOM     39  C   UNL     1      -0.317  11.963  22.093  0.00  0.00    +0.000 C 
ATOM     40  C   UNL     1       0.890  11.454  21.316  0.00  0.00    +0.000 C 
ENDBRANCH  37  40
ENDBRANCH  23  37
ENDBRANCH   1  23
TORSDOF 14
ENDMDL
MODEL 9
REMARK VINA RESULT:      -6.6      1.244      1.675
REMARK  Name = 
REMARK  18 active torsions:
REMARK  status: ('A' for Active; 'I' for Inactive)
REMARK    1  A    between atoms: C_1  and  C_2
REMARK    2  A    between atoms: C_2  and  C_3
REMARK    3  A    between atoms: C_3  and  C_4
REMARK    4  A    between atoms: C_3  and  C_5
REMARK    5  A    between atoms: C_5  and  N_6
REMARK    6  A    between atoms: C_5  and  C_18
REMARK    7  A    between atoms: C_7  and  C_9
REMARK    8  A    between atoms: C_10  and  C_11
REMARK    9  A    between atoms: N_20  and  C_21
REMARK   10  A    between atoms: C_21  and  C_22
REMARK   11  A    between atoms: C_21  and  C_23
REMARK   12  A    between atoms: N_25  and  C_26
REMARK   13  A    between atoms: C_26  and  C_27
REMARK   14  A    between atoms: C_26  and  C_32
REMARK   15  A    between atoms: C_27  and  C_28
REMARK   16  A    between atoms: C_28  and  C_29
REMARK   17  A    between atoms: C_32  and  O_34
REMARK   18  A    between atoms: O_34  and  C_35
REMARK                            x       y       z     vdW  Elec       q    Type
REMARK                         _______ _______ _______ _____ _____    ______ ____
ROOT
ATOM      1  C   UNL     1       3.284   6.281  18.231  0.00  0.00    +0.000 C 
ATOM      2  O   UNL     1       2.356   5.606  17.794  0.00  0.00    +0.000 OA
ATOM      3  N   UNL     1       3.081   7.411  18.994  0.00  0.00    +0.000 N 
ATOM      4  H   UNL     1       3.837   7.692  19.619  0.00  0.00    +0.000 HD
ENDROOT
BRANCH   3   5
ATOM      5  C   UNL     1       1.731   7.910  19.275  0.00  0.00    +0.000 C 
ATOM      6  C   UNL     1       1.518   8.144  20.765  0.00  0.00    +0.000 C 
BRANCH   5   7
ATOM      7  C   UNL     1       1.455   9.201  18.472  0.00  0.00    +0.000 C 
ATOM      8  O   UNL     1       2.139   9.568  17.521  0.00  0.00    +0.000 OA
ATOM      9  N   UNL     1       0.456   9.988  19.000  0.00  0.00    +0.000 N 
ATOM     10  H   UNL     1      -0.001   9.686  19.857  0.00  0.00    +0.000 HD
BRANCH   9  11
ATOM     11  C   UNL     1       0.057  11.269  18.414  0.00  0.00    +0.000 C 
BRANCH  11  12
ATOM     12  C   UNL     1       0.400  12.363  19.429  0.00  0.00    +0.000 C 
ATOM     13  O   UNL     1      -0.350  13.286  19.730  0.00  0.00    +0.000 OA
BRANCH  12  14
ATOM     14  O   UNL     1       1.659  12.179  19.915  0.00  0.00    +0.000 OA
ATOM     15  C   UNL     1       2.461  13.360  19.947  0.00  0.00    +0.000 C 
ENDBRANCH  12  14
ENDBRANCH  11  12
BRANCH  11  16
ATOM     16  C   UNL     1      -1.442  11.266  18.071  0.00  0.00    +0.000 C 
BRANCH  16  17
ATOM     17  C   UNL     1      -1.824  10.157  17.090  0.00  0.00    +0.000 C 
BRANCH  17  18
ATOM     18  C   UNL     1      -3.021  10.495  16.232  0.00  0.00    +0.000 C 
ATOM     19  N   UNL     1      -3.209   9.723  15.130  0.00  0.00    +0.000 N 
ATOM     20  O   UNL     1      -3.772  11.433  16.480  0.00  0.00    +0.000 OA
ATOM     21  H   UNL     1      -2.551   9.018  14.825  0.00  0.00    +0.000 HD
ATOM     22  H   UNL     1      -3.962   9.986  14.504  0.00  0.00    +0.000 HD
ENDBRANCH  17  18
ENDBRANCH  16  17
ENDBRANCH  11  16
ENDBRANCH   9  11
ENDBRANCH   5   7
ENDBRANCH   3   5
BRANCH   1  23
ATOM     23  C   UNL     1       4.781   5.906  18.054  0.00  0.00    +0.000 C 
BRANCH  23  24
ATOM     24  N   UNL     1       5.584   7.127  18.112  0.00  0.00    +0.000 N 
ATOM     25  C   UNL     1       6.646   7.348  17.270  0.00  0.00    +0.000 C 
ATOM     26  O   UNL     1       6.991   6.564  16.395  0.00  0.00    +0.000 OA
ATOM     27  H   UNL     1       5.202   7.912  18.618  0.00  0.00    +0.000 HD
BRANCH  25  28
ATOM     28  C   UNL     1       7.324   8.647  17.532  0.00  0.00    +0.000 C 
ATOM     29  C   UNL     1       8.341   8.730  18.404  0.00  0.00    +0.000 C 
BRANCH  29  30
ATOM     30  C   UNL     1       9.064   9.973  18.734  0.00  0.00    +0.000 A 
ATOM     31  C   UNL     1       9.347  10.362  20.053  0.00  0.00    +0.000 A 
ATOM     32  C   UNL     1      10.054  11.541  20.316  0.00  0.00    +0.000 A 
ATOM     33  C   UNL     1      10.493  12.329  19.260  0.00  0.00    +0.000 A 
ATOM     34  F   UNL     1      11.169  13.457  19.512  0.00  0.00    +0.000 F 
ATOM     35  C   UNL     1      10.244  11.956  17.946  0.00  0.00    +0.000 A 
ATOM     36  C   UNL     1       9.537  10.778  17.685  0.00  0.00    +0.000 A 
ENDBRANCH  29  30
ENDBRANCH  25  28
ENDBRANCH  23  24
BRANCH  23  37
ATOM     37  C   UNL     1       5.286   4.833  19.061  0.00  0.00    +0.000 C 
ATOM     38  C   UNL     1       6.793   5.003  19.300  0.00  0.00    +0.000 C 
BRANCH  37  40
ATOM     39  C   UNL     1       4.415   2.528  19.834  0.00  0.00    +0.000 C 
ATOM     40  C   UNL     1       4.917   3.381  18.676  0.00  0.00    +0.000 C 
ENDBRANCH  37  40
ENDBRANCH  23  37
ENDBRANCH   1  23
TORSDOF 14
ENDMDL
