MODEL 1
REMARK VINA RESULT:      -8.3      0.000      0.000
REMARK  Name = 
REMARK  5 active torsions:
REMARK  status: ('A' for Active; 'I' for Inactive)
REMARK    1  A    between atoms: C_1  and  C_2
REMARK    2  A    between atoms: C_7  and  N_8
REMARK    3  A    between atoms: C_9  and  C_22
REMARK    4  A    between atoms: N_10  and  S_11
REMARK    5  A    between atoms: S_11  and  C_14
REMARK                            x       y       z     vdW  Elec       q    Type
REMARK                         _______ _______ _______ _____ _____    ______ ____
ROOT
ATOM      1  N   UNL     1       4.345   3.460  15.662  0.00  0.00    +0.000 NA
ATOM      2  C   UNL     1       5.456   4.128  15.685  0.00  0.00    +0.000 C 
ATOM      3  N   UNL     1       6.187   4.798  16.712  0.00  0.00    +0.000 N 
ATOM      4  H   UNL     1       7.190   4.617  16.635  0.00  0.00    +0.000 HD
ENDROOT
BRANCH   1  11
ATOM      5  C   UNL     1       1.448   2.485  22.426  0.00  0.00    +0.000 C 
ATOM      6  C   UNL     1       1.545   2.662  20.937  0.00  0.00    +0.000 A 
ATOM      7  C   UNL     1       0.543   3.326  20.220  0.00  0.00    +0.000 A 
ATOM      8  C   UNL     1       0.716   3.649  18.864  0.00  0.00    +0.000 A 
ATOM      9  C   UNL     1       1.901   3.261  18.203  0.00  0.00    +0.000 A 
ATOM     10  N   UNL     1       2.356   3.665  16.954  0.00  0.00    +0.000 NA
ATOM     11  C   UNL     1       3.556   3.155  16.718  0.00  0.00    +0.000 A 
ATOM     12  S   UNL     1       3.857   1.752  17.707  0.00  0.00    +0.000 S 
ATOM     13  C   UNL     1       2.774   2.416  18.880  0.00  0.00    +0.000 A 
ATOM     14  C   UNL     1       2.677   2.188  20.262  0.00  0.00    +0.000 A 
ENDBRANCH   1  11
BRANCH   2  15
ATOM     15  C   UNL     1       6.199   4.237  14.351  0.00  0.00    +0.000 A 
ATOM     16  C   UNL     1       7.280   5.117  14.159  0.00  0.00    +0.000 A 
ATOM     17  C   UNL     1       7.914   5.223  12.917  0.00  0.00    +0.000 A 
ATOM     18  C   UNL     1       7.486   4.446  11.847  0.00  0.00    +0.000 A 
ATOM     19  C   UNL     1       6.433   3.551  12.022  0.00  0.00    +0.000 A 
ATOM     20  C   UNL     1       5.796   3.443  13.265  0.00  0.00    +0.000 A 
ENDBRANCH   2  15
BRANCH   3  21
ATOM     21  S   UNL     1       5.924   5.193  18.299  0.00  0.00    +0.000 S 
ATOM     22  O   UNL     1       5.633   4.028  19.086  0.00  0.00    +0.000 OA
ATOM     23  O   UNL     1       6.982   6.118  18.649  0.00  0.00    +0.000 OA
BRANCH  21  24
ATOM     24  C   UNL     1       4.431   6.100  18.474  0.00  0.00    +0.000 A 
ATOM     25  C   UNL     1       4.212   7.069  17.474  0.00  0.00    +0.000 A 
ATOM     26  C   UNL     1       3.119   7.920  17.547  0.00  0.00    +0.000 A 
ATOM     27  C   UNL     1       2.248   7.790  18.617  0.00  0.00    +0.000 A 
ATOM     28  F   UNL     1       1.186   8.608  18.694  0.00  0.00    +0.000 F 
ATOM     29  C   UNL     1       2.458   6.844  19.616  0.00  0.00    +0.000 A 
ATOM     30  C   UNL     1       3.563   5.997  19.542  0.00  0.00    +0.000 A 
ATOM     31  F   UNL     1       3.750   5.104  20.520  0.00  0.00    +0.000 F 
ENDBRANCH  21  24
ENDBRANCH   3  21
TORSDOF 4
ENDMDL
MODEL 2
REMARK VINA RESULT:      -8.3      0.860      1.257
REMARK  Name = 
REMARK  5 active torsions:
REMARK  status: ('A' for Active; 'I' for Inactive)
REMARK    1  A    between atoms: C_1  and  C_2
REMARK    2  A    between atoms: C_7  and  N_8
REMARK    3  A    between atoms: C_9  and  C_22
REMARK    4  A    between atoms: N_10  and  S_11
REMARK    5  A    between atoms: S_11  and  C_14
REMARK                            x       y       z     vdW  Elec       q    Type
REMARK                         _______ _______ _______ _____ _____    ______ ____
ROOT
ATOM      1  N   UNL     1       4.375   3.497  15.646  0.00  0.00    +0.000 NA
ATOM      2  C   UNL     1       5.517   4.109  15.663  0.00  0.00    +0.000 C 
ATOM      3  N   UNL     1       6.301   4.714  16.691  0.00  0.00    +0.000 N 
ATOM      4  H   UNL     1       7.292   4.486  16.588  0.00  0.00    +0.000 HD
ENDROOT
BRANCH   1  11
ATOM      5  C   UNL     1       1.523   2.590  22.439  0.00  0.00    +0.000 C 
ATOM      6  C   UNL     1       1.611   2.751  20.948  0.00  0.00    +0.000 A 
ATOM      7  C   UNL     1       0.603   3.406  20.231  0.00  0.00    +0.000 A 
ATOM      8  C   UNL     1       0.766   3.715  18.870  0.00  0.00    +0.000 A 
ATOM      9  C   UNL     1       1.947   3.322  18.206  0.00  0.00    +0.000 A 
ATOM     10  N   UNL     1       2.394   3.713  16.950  0.00  0.00    +0.000 NA
ATOM     11  C   UNL     1       3.593   3.202  16.711  0.00  0.00    +0.000 A 
ATOM     12  S   UNL     1       3.902   1.809  17.712  0.00  0.00    +0.000 S 
ATOM     13  C   UNL     1       2.826   2.484  18.886  0.00  0.00    +0.000 A 
ATOM     14  C   UNL     1       2.738   2.271  20.270  0.00  0.00    +0.000 A 
ENDBRANCH   1  11
BRANCH   2  15
ATOM     15  C   UNL     1       6.238   4.217  14.317  0.00  0.00    +0.000 A 
ATOM     16  C   UNL     1       7.306   5.108  14.102  0.00  0.00    +0.000 A 
ATOM     17  C   UNL     1       7.918   5.214  12.849  0.00  0.00    +0.000 A 
ATOM     18  C   UNL     1       7.482   4.425  11.791  0.00  0.00    +0.000 A 
ATOM     19  C   UNL     1       6.442   3.520  11.989  0.00  0.00    +0.000 A 
ATOM     20  C   UNL     1       5.826   3.413  13.242  0.00  0.00    +0.000 A 
ENDBRANCH   2  15
BRANCH   3  21
ATOM     21  S   UNL     1       6.090   5.077  18.293  0.00  0.00    +0.000 S 
ATOM     22  O   UNL     1       5.734   3.911  19.051  0.00  0.00    +0.000 OA
ATOM     23  O   UNL     1       7.213   5.919  18.651  0.00  0.00    +0.000 OA
BRANCH  21  24
ATOM     24  C   UNL     1       4.664   6.076  18.520  0.00  0.00    +0.000 A 
ATOM     25  C   UNL     1       3.942   5.809  19.701  0.00  0.00    +0.000 A 
ATOM     26  C   UNL     1       2.744   6.461  19.954  0.00  0.00    +0.000 A 
ATOM     27  C   UNL     1       2.281   7.382  19.027  0.00  0.00    +0.000 A 
ATOM     28  F   UNL     1       1.123   8.019  19.266  0.00  0.00    +0.000 F 
ATOM     29  C   UNL     1       2.980   7.647  17.853  0.00  0.00    +0.000 A 
ATOM     30  C   UNL     1       4.179   6.983  17.599  0.00  0.00    +0.000 A 
ATOM     31  F   UNL     1       4.826   7.247  16.459  0.00  0.00    +0.000 F 
ENDBRANCH  21  24
ENDBRANCH   3  21
TORSDOF 4
ENDMDL
MODEL 3
REMARK VINA RESULT:      -7.0      7.464     10.265
REMARK  Name = 
REMARK  5 active torsions:
REMARK  status: ('A' for Active; 'I' for Inactive)
REMARK    1  A    between atoms: C_1  and  C_2
REMARK    2  A    between atoms: C_7  and  N_8
REMARK    3  A    between atoms: C_9  and  C_22
REMARK    4  A    between atoms: N_10  and  S_11
REMARK    5  A    between atoms: S_11  and  C_14
REMARK                            x       y       z     vdW  Elec       q    Type
REMARK                         _______ _______ _______ _____ _____    ______ ____
ROOT
ATOM      1  N   UNL     1       0.824  10.655  21.146  0.00  0.00    +0.000 NA
ATOM      2  C   UNL     1       0.566  10.114  19.997  0.00  0.00    +0.000 C 
ATOM      3  N   UNL     1      -0.316  10.442  18.924  0.00  0.00    +0.000 N 
ATOM      4  H   UNL     1       0.138  10.320  18.016  0.00  0.00    +0.000 HD
ENDROOT
BRANCH   1  11
ATOM      5  C   UNL     1      -2.787  17.061  22.155  0.00  0.00    +0.000 C 
ATOM      6  C   UNL     1      -2.075  15.772  22.455  0.00  0.00    +0.000 A 
ATOM      7  C   UNL     1      -2.416  15.000  23.571  0.00  0.00    +0.000 A 
ATOM      8  C   UNL     1      -1.879  13.715  23.753  0.00  0.00    +0.000 A 
ATOM      9  C   UNL     1      -0.951  13.211  22.818  0.00  0.00    +0.000 A 
ATOM     10  N   UNL     1      -0.480  11.910  22.694  0.00  0.00    +0.000 NA
ATOM     11  C   UNL     1       0.312  11.808  21.636  0.00  0.00    +0.000 A 
ATOM     12  S   UNL     1       0.946  13.362  21.165  0.00  0.00    +0.000 S 
ATOM     13  C   UNL     1      -0.469  14.084  21.847  0.00  0.00    +0.000 A 
ATOM     14  C   UNL     1      -1.080  15.318  21.580  0.00  0.00    +0.000 A 
ENDBRANCH   1  11
BRANCH   2  15
ATOM     15  C   UNL     1       1.369   8.856  19.655  0.00  0.00    +0.000 A 
ATOM     16  C   UNL     1       1.979   8.668  18.401  0.00  0.00    +0.000 A 
ATOM     17  C   UNL     1       2.672   7.491  18.103  0.00  0.00    +0.000 A 
ATOM     18  C   UNL     1       2.776   6.484  19.056  0.00  0.00    +0.000 A 
ATOM     19  C   UNL     1       2.200   6.659  20.312  0.00  0.00    +0.000 A 
ATOM     20  C   UNL     1       1.504   7.837  20.612  0.00  0.00    +0.000 A 
ENDBRANCH   2  15
BRANCH   3  21
ATOM     21  S   UNL     1      -1.532  11.539  18.673  0.00  0.00    +0.000 S 
ATOM     22  O   UNL     1      -2.461  11.549  19.767  0.00  0.00    +0.000 OA
ATOM     23  O   UNL     1      -0.876  12.743  18.205  0.00  0.00    +0.000 OA
BRANCH  21  24
ATOM     24  C   UNL     1      -2.568  11.026  17.352  0.00  0.00    +0.000 A 
ATOM     25  C   UNL     1      -1.965  10.130  16.447  0.00  0.00    +0.000 A 
ATOM     26  C   UNL     1      -2.643   9.721  15.307  0.00  0.00    +0.000 A 
ATOM     27  C   UNL     1      -3.921  10.208  15.085  0.00  0.00    +0.000 A 
ATOM     28  F   UNL     1      -4.584   9.816  13.985  0.00  0.00    +0.000 F 
ATOM     29  C   UNL     1      -4.523  11.101  15.966  0.00  0.00    +0.000 A 
ATOM     30  C   UNL     1      -3.835  11.515  17.106  0.00  0.00    +0.000 A 
ATOM     31  F   UNL     1      -4.431  12.383  17.931  0.00  0.00    +0.000 F 
ENDBRANCH  21  24
ENDBRANCH   3  21
TORSDOF 4
ENDMDL
MODEL 4
REMARK VINA RESULT:      -6.8      7.794     10.523
REMARK  Name = 
REMARK  5 active torsions:
REMARK  status: ('A' for Active; 'I' for Inactive)
REMARK    1  A    between atoms: C_1  and  C_2
REMARK    2  A    between atoms: C_7  and  N_8
REMARK    3  A    between atoms: C_9  and  C_22
REMARK    4  A    between atoms: N_10  and  S_11
REMARK    5  A    between atoms: S_11  and  C_14
REMARK                            x       y       z     vdW  Elec       q    Type
REMARK                         _______ _______ _______ _____ _____    ______ ____
ROOT
ATOM      1  N   UNL     1      -0.144  10.431  21.688  0.00  0.00    +0.000 NA
ATOM      2  C   UNL     1      -0.071  10.074  20.444  0.00  0.00    +0.000 C 
ATOM      3  N   UNL     1      -0.671  10.552  19.241  0.00  0.00    +0.000 N 
ATOM      4  H   UNL     1       0.003  10.585  18.473  0.00  0.00    +0.000 HD
ENDROOT
BRANCH   1  11
ATOM      5  C   UNL     1      -4.397  16.432  22.686  0.00  0.00    +0.000 C 
ATOM      6  C   UNL     1      -3.647  15.162  22.973  0.00  0.00    +0.000 A 
ATOM      7  C   UNL     1      -4.119  14.239  23.913  0.00  0.00    +0.000 A 
ATOM      8  C   UNL     1      -3.520  12.976  24.052  0.00  0.00    +0.000 A 
ATOM      9  C   UNL     1      -2.398  12.649  23.261  0.00  0.00    +0.000 A 
ATOM     10  N   UNL     1      -1.806  11.404  23.087  0.00  0.00    +0.000 NA
ATOM     11  C   UNL     1      -0.830  11.481  22.195  0.00  0.00    +0.000 A 
ATOM     12  S   UNL     1      -0.252  13.117  22.026  0.00  0.00    +0.000 S 
ATOM     13  C   UNL     1      -1.822  13.662  22.500  0.00  0.00    +0.000 A 
ATOM     14  C   UNL     1      -2.475  14.881  22.259  0.00  0.00    +0.000 A 
ENDBRANCH   1  11
BRANCH   2  15
ATOM     15  C   UNL     1       0.866   8.903  20.138  0.00  0.00    +0.000 A 
ATOM     16  C   UNL     1       1.103   7.865  21.058  0.00  0.00    +0.000 A 
ATOM     17  C   UNL     1       1.994   6.828  20.765  0.00  0.00    +0.000 A 
ATOM     18  C   UNL     1       2.659   6.805  19.545  0.00  0.00    +0.000 A 
ATOM     19  C   UNL     1       2.421   7.810  18.610  0.00  0.00    +0.000 A 
ATOM     20  C   UNL     1       1.529   8.849  18.901  0.00  0.00    +0.000 A 
ENDBRANCH   2  15
BRANCH   3  21
ATOM     21  S   UNL     1      -1.847  11.652  18.850  0.00  0.00    +0.000 S 
ATOM     22  O   UNL     1      -2.878  11.691  19.847  0.00  0.00    +0.000 OA
ATOM     23  O   UNL     1      -1.138  12.841  18.423  0.00  0.00    +0.000 OA
BRANCH  21  24
ATOM     24  C   UNL     1      -2.754  11.118  17.445  0.00  0.00    +0.000 A 
ATOM     25  C   UNL     1      -2.062  10.225  16.603  0.00  0.00    +0.000 A 
ATOM     26  C   UNL     1      -2.629   9.801  15.410  0.00  0.00    +0.000 A 
ATOM     27  C   UNL     1      -3.888  10.270  15.071  0.00  0.00    +0.000 A 
ATOM     28  F   UNL     1      -4.444   9.864  13.919  0.00  0.00    +0.000 F 
ATOM     29  C   UNL     1      -4.577  11.160  15.888  0.00  0.00    +0.000 A 
ATOM     30  C   UNL     1      -4.000  11.589  17.083  0.00  0.00    +0.000 A 
ATOM     31  F   UNL     1      -4.678  12.454  17.845  0.00  0.00    +0.000 F 
ENDBRANCH  21  24
ENDBRANCH   3  21
TORSDOF 4
ENDMDL
MODEL 5
REMARK VINA RESULT:      -6.8      7.744     10.530
REMARK  Name = 
REMARK  5 active torsions:
REMARK  status: ('A' for Active; 'I' for Inactive)
REMARK    1  A    between atoms: C_1  and  C_2
REMARK    2  A    between atoms: C_7  and  N_8
REMARK    3  A    between atoms: C_9  and  C_22
REMARK    4  A    between atoms: N_10  and  S_11
REMARK    5  A    between atoms: S_11  and  C_14
REMARK                            x       y       z     vdW  Elec       q    Type
REMARK                         _______ _______ _______ _____ _____    ______ ____
ROOT
ATOM      1  N   UNL     1       0.382  10.760  21.462  0.00  0.00    +0.000 NA
ATOM      2  C   UNL     1       0.243  10.220  20.292  0.00  0.00    +0.000 C 
ATOM      3  N   UNL     1      -0.515  10.556  19.130  0.00  0.00    +0.000 N 
ATOM      4  H   UNL     1       0.033  10.428  18.276  0.00  0.00    +0.000 HD
ENDROOT
BRANCH   1  11
ATOM      5  C   UNL     1      -1.750  16.670  25.414  0.00  0.00    +0.000 C 
ATOM      6  C   UNL     1      -1.423  15.793  24.238  0.00  0.00    +0.000 A 
ATOM      7  C   UNL     1      -0.906  16.333  23.055  0.00  0.00    +0.000 A 
ATOM      8  C   UNL     1      -0.433  15.502  22.026  0.00  0.00    +0.000 A 
ATOM      9  C   UNL     1      -0.520  14.100  22.171  0.00  0.00    +0.000 A 
ATOM     10  N   UNL     1       0.076  13.120  21.387  0.00  0.00    +0.000 NA
ATOM     11  C   UNL     1      -0.165  11.920  21.893  0.00  0.00    +0.000 A 
ATOM     12  S   UNL     1      -1.567  11.937  22.930  0.00  0.00    +0.000 S 
ATOM     13  C   UNL     1      -1.237  13.603  23.255  0.00  0.00    +0.000 A 
ATOM     14  C   UNL     1      -1.604  14.408  24.344  0.00  0.00    +0.000 A 
ENDBRANCH   1  11
BRANCH   2  15
ATOM     15  C   UNL     1       1.063   8.952  20.039  0.00  0.00    +0.000 A 
ATOM     16  C   UNL     1       1.741   8.721  18.827  0.00  0.00    +0.000 A 
ATOM     17  C   UNL     1       2.450   7.535  18.610  0.00  0.00    +0.000 A 
ATOM     18  C   UNL     1       2.501   6.562  19.602  0.00  0.00    +0.000 A 
ATOM     19  C   UNL     1       1.856   6.781  20.817  0.00  0.00    +0.000 A 
ATOM     20  C   UNL     1       1.145   7.968  21.037  0.00  0.00    +0.000 A 
ENDBRANCH   2  15
BRANCH   3  21
ATOM     21  S   UNL     1      -1.682  11.667  18.749  0.00  0.00    +0.000 S 
ATOM     22  O   UNL     1      -2.675  11.758  19.782  0.00  0.00    +0.000 OA
ATOM     23  O   UNL     1      -0.968  12.828  18.259  0.00  0.00    +0.000 OA
BRANCH  21  24
ATOM     24  C   UNL     1      -2.652  11.109  17.396  0.00  0.00    +0.000 A 
ATOM     25  C   UNL     1      -1.989  10.223  16.524  0.00  0.00    +0.000 A 
ATOM     26  C   UNL     1      -2.610   9.783  15.364  0.00  0.00    +0.000 A 
ATOM     27  C   UNL     1      -3.893  10.227  15.089  0.00  0.00    +0.000 A 
ATOM     28  F   UNL     1      -4.502   9.805  13.969  0.00  0.00    +0.000 F 
ATOM     29  C   UNL     1      -4.555  11.110  15.937  0.00  0.00    +0.000 A 
ATOM     30  C   UNL     1      -3.923  11.556  17.097  0.00  0.00    +0.000 A 
ATOM     31  F   UNL     1      -4.576  12.413  17.890  0.00  0.00    +0.000 F 
ENDBRANCH  21  24
ENDBRANCH   3  21
TORSDOF 4
ENDMDL
MODEL 6
REMARK VINA RESULT:      -6.7      7.934     10.501
REMARK  Name = 
REMARK  5 active torsions:
REMARK  status: ('A' for Active; 'I' for Inactive)
REMARK    1  A    between atoms: C_1  and  C_2
REMARK    2  A    between atoms: C_7  and  N_8
REMARK    3  A    between atoms: C_9  and  C_22
REMARK    4  A    between atoms: N_10  and  S_11
REMARK    5  A    between atoms: S_11  and  C_14
REMARK                            x       y       z     vdW  Elec       q    Type
REMARK                         _______ _______ _______ _____ _____    ______ ____
ROOT
ATOM      1  N   UNL     1      -0.664  14.380  20.192  0.00  0.00    +0.000 NA
ATOM      2  C   UNL     1       0.354  13.745  19.703  0.00  0.00    +0.000 C 
ATOM      3  N   UNL     1       0.731  12.369  19.652  0.00  0.00    +0.000 N 
ATOM      4  H   UNL     1       1.109  12.119  18.735  0.00  0.00    +0.000 HD
ENDROOT
BRANCH   1  11
ATOM      5  C   UNL     1      -6.863  13.144  24.083  0.00  0.00    +0.000 C 
ATOM      6  C   UNL     1      -5.778  12.985  23.055  0.00  0.00    +0.000 A 
ATOM      7  C   UNL     1      -6.056  12.471  21.784  0.00  0.00    +0.000 A 
ATOM      8  C   UNL     1      -5.086  12.488  20.768  0.00  0.00    +0.000 A 
ATOM      9  C   UNL     1      -3.798  12.994  21.046  0.00  0.00    +0.000 A 
ATOM     10  N   UNL     1      -2.785  13.300  20.146  0.00  0.00    +0.000 NA
ATOM     11  C   UNL     1      -1.755  13.839  20.781  0.00  0.00    +0.000 A 
ATOM     12  S   UNL     1      -1.770  13.432  22.476  0.00  0.00    +0.000 S 
ATOM     13  C   UNL     1      -3.490  13.290  22.370  0.00  0.00    +0.000 A 
ATOM     14  C   UNL     1      -4.474  13.394  23.364  0.00  0.00    +0.000 A 
ENDBRANCH   1  11
BRANCH   2  15
ATOM     15  C   UNL     1       1.405  14.606  18.998  0.00  0.00    +0.000 A 
ATOM     16  C   UNL     1       1.242  15.991  18.806  0.00  0.00    +0.000 A 
ATOM     17  C   UNL     1       2.201  16.744  18.123  0.00  0.00    +0.000 A 
ATOM     18  C   UNL     1       3.345  16.130  17.626  0.00  0.00    +0.000 A 
ATOM     19  C   UNL     1       3.538  14.765  17.825  0.00  0.00    +0.000 A 
ATOM     20  C   UNL     1       2.578  14.008  18.509  0.00  0.00    +0.000 A 
ENDBRANCH   2  15
BRANCH   3  21
ATOM     21  S   UNL     1       0.169  10.954  20.305  0.00  0.00    +0.000 S 
ATOM     22  O   UNL     1       0.413  10.897  21.718  0.00  0.00    +0.000 OA
ATOM     23  O   UNL     1      -1.152  10.764  19.740  0.00  0.00    +0.000 OA
BRANCH  21  24
ATOM     24  C   UNL     1       1.119   9.590  19.741  0.00  0.00    +0.000 A 
ATOM     25  C   UNL     1       1.508   9.664  18.389  0.00  0.00    +0.000 A 
ATOM     26  C   UNL     1       2.181   8.606  17.792  0.00  0.00    +0.000 A 
ATOM     27  C   UNL     1       2.465   7.486  18.557  0.00  0.00    +0.000 A 
ATOM     28  F   UNL     1       3.117   6.460  17.988  0.00  0.00    +0.000 F 
ATOM     29  C   UNL     1       2.078   7.397  19.890  0.00  0.00    +0.000 A 
ATOM     30  C   UNL     1       1.394   8.458  20.482  0.00  0.00    +0.000 A 
ATOM     31  F   UNL     1       1.023   8.344  21.762  0.00  0.00    +0.000 F 
ENDBRANCH  21  24
ENDBRANCH   3  21
TORSDOF 4
ENDMDL
MODEL 7
REMARK VINA RESULT:      -6.7      7.802     10.476
REMARK  Name = 
REMARK  5 active torsions:
REMARK  status: ('A' for Active; 'I' for Inactive)
REMARK    1  A    between atoms: C_1  and  C_2
REMARK    2  A    between atoms: C_7  and  N_8
REMARK    3  A    between atoms: C_9  and  C_22
REMARK    4  A    between atoms: N_10  and  S_11
REMARK    5  A    between atoms: S_11  and  C_14
REMARK                            x       y       z     vdW  Elec       q    Type
REMARK                         _______ _______ _______ _____ _____    ______ ____
ROOT
ATOM      1  N   UNL     1      -0.594  14.131  20.249  0.00  0.00    +0.000 NA
ATOM      2  C   UNL     1       0.357  13.443  19.701  0.00  0.00    +0.000 C 
ATOM      3  N   UNL     1       0.603  12.046  19.542  0.00  0.00    +0.000 N 
ATOM      4  H   UNL     1       0.950  11.832  18.605  0.00  0.00    +0.000 HD
ENDROOT
BRANCH   1  11
ATOM      5  C   UNL     1      -6.927  13.227  24.014  0.00  0.00    +0.000 C 
ATOM      6  C   UNL     1      -5.835  13.014  23.004  0.00  0.00    +0.000 A 
ATOM      7  C   UNL     1      -6.121  12.534  21.720  0.00  0.00    +0.000 A 
ATOM      8  C   UNL     1      -5.133  12.505  20.722  0.00  0.00    +0.000 A 
ATOM      9  C   UNL     1      -3.822  12.928  21.030  0.00  0.00    +0.000 A 
ATOM     10  N   UNL     1      -2.776  13.183  20.151  0.00  0.00    +0.000 NA
ATOM     11  C   UNL     1      -1.727  13.651  20.812  0.00  0.00    +0.000 A 
ATOM     12  S   UNL     1      -1.797  13.223  22.501  0.00  0.00    +0.000 S 
ATOM     13  C   UNL     1      -3.520  13.188  22.363  0.00  0.00    +0.000 A 
ATOM     14  C   UNL     1      -4.515  13.339  23.341  0.00  0.00    +0.000 A 
ENDBRANCH   1  11
BRANCH   2  15
ATOM     15  C   UNL     1       1.478  14.254  19.046  0.00  0.00    +0.000 A 
ATOM     16  C   UNL     1       2.698  13.674  18.650  0.00  0.00    +0.000 A 
ATOM     17  C   UNL     1       3.719  14.449  18.091  0.00  0.00    +0.000 A 
ATOM     18  C   UNL     1       3.538  15.815  17.910  0.00  0.00    +0.000 A 
ATOM     19  C   UNL     1       2.330  16.405  18.274  0.00  0.00    +0.000 A 
ATOM     20  C   UNL     1       1.306  15.632  18.835  0.00  0.00    +0.000 A 
ENDBRANCH   2  15
BRANCH   3  21
ATOM     21  S   UNL     1      -0.083  10.644  20.096  0.00  0.00    +0.000 S 
ATOM     22  O   UNL     1      -0.053  10.579  21.530  0.00  0.00    +0.000 OA
ATOM     23  O   UNL     1      -1.309  10.487  19.340  0.00  0.00    +0.000 OA
BRANCH  21  24
ATOM     24  C   UNL     1       0.908   9.258  19.673  0.00  0.00    +0.000 A 
ATOM     25  C   UNL     1       1.103   8.335  20.720  0.00  0.00    +0.000 A 
ATOM     26  C   UNL     1       1.944   7.245  20.547  0.00  0.00    +0.000 A 
ATOM     27  C   UNL     1       2.578   7.083  19.325  0.00  0.00    +0.000 A 
ATOM     28  F   UNL     1       3.391   6.030  19.149  0.00  0.00    +0.000 F 
ATOM     29  C   UNL     1       2.401   7.993  18.288  0.00  0.00    +0.000 A 
ATOM     30  C   UNL     1       1.562   9.092  18.469  0.00  0.00    +0.000 A 
ATOM     31  F   UNL     1       1.417   9.958  17.460  0.00  0.00    +0.000 F 
ENDBRANCH  21  24
ENDBRANCH   3  21
TORSDOF 4
ENDMDL
MODEL 8
REMARK VINA RESULT:      -6.7      6.827      9.558
REMARK  Name = 
REMARK  5 active torsions:
REMARK  status: ('A' for Active; 'I' for Inactive)
REMARK    1  A    between atoms: C_1  and  C_2
REMARK    2  A    between atoms: C_7  and  N_8
REMARK    3  A    between atoms: C_9  and  C_22
REMARK    4  A    between atoms: N_10  and  S_11
REMARK    5  A    between atoms: S_11  and  C_14
REMARK                            x       y       z     vdW  Elec       q    Type
REMARK                         _______ _______ _______ _____ _____    ______ ____
ROOT
ATOM      1  N   UNL     1       0.008  13.255  19.399  0.00  0.00    +0.000 NA
ATOM      2  C   UNL     1       1.129  12.618  19.269  0.00  0.00    +0.000 C 
ATOM      3  N   UNL     1       1.471  11.246  19.072  0.00  0.00    +0.000 N 
ATOM      4  H   UNL     1       2.216  11.142  18.380  0.00  0.00    +0.000 HD
ENDROOT
BRANCH   1  11
ATOM      5  C   UNL     1      -7.334  12.167  19.274  0.00  0.00    +0.000 C 
ATOM      6  C   UNL     1      -5.865  11.962  19.029  0.00  0.00    +0.000 A 
ATOM      7  C   UNL     1      -5.405  11.371  17.848  0.00  0.00    +0.000 A 
ATOM      8  C   UNL     1      -4.035  11.341  17.539  0.00  0.00    +0.000 A 
ATOM      9  C   UNL     1      -3.105  11.880  18.454  0.00  0.00    +0.000 A 
ATOM     10  N   UNL     1      -1.757  12.145  18.248  0.00  0.00    +0.000 NA
ATOM     11  C   UNL     1      -1.238  12.735  19.316  0.00  0.00    +0.000 A 
ATOM     12  S   UNL     1      -2.196  12.427  20.740  0.00  0.00    +0.000 S 
ATOM     13  C   UNL     1      -3.574  12.257  19.708  0.00  0.00    +0.000 A 
ATOM     14  C   UNL     1      -4.941  12.406  19.984  0.00  0.00    +0.000 A 
ENDBRANCH   1  11
BRANCH   2  15
ATOM     15  C   UNL     1       2.395  13.477  19.307  0.00  0.00    +0.000 A 
ATOM     16  C   UNL     1       3.157  13.751  18.156  0.00  0.00    +0.000 A 
ATOM     17  C   UNL     1       4.331  14.507  18.229  0.00  0.00    +0.000 A 
ATOM     18  C   UNL     1       4.762  15.009  19.451  0.00  0.00    +0.000 A 
ATOM     19  C   UNL     1       4.011  14.769  20.599  0.00  0.00    +0.000 A 
ATOM     20  C   UNL     1       2.835  14.012  20.529  0.00  0.00    +0.000 A 
ENDBRANCH   2  15
BRANCH   3  21
ATOM     21  S   UNL     1       0.658   9.803  19.074  0.00  0.00    +0.000 S 
ATOM     22  O   UNL     1       0.023   9.562  20.339  0.00  0.00    +0.000 OA
ATOM     23  O   UNL     1      -0.073   9.768  17.823  0.00  0.00    +0.000 OA
BRANCH  21  24
ATOM     24  C   UNL     1       1.782   8.457  18.996  0.00  0.00    +0.000 A 
ATOM     25  C   UNL     1       2.564   8.411  17.825  0.00  0.00    +0.000 A 
ATOM     26  C   UNL     1       3.423   7.346  17.595  0.00  0.00    +0.000 A 
ATOM     27  C   UNL     1       3.500   6.339  18.543  0.00  0.00    +0.000 A 
ATOM     28  F   UNL     1       4.330   5.306  18.329  0.00  0.00    +0.000 F 
ATOM     29  C   UNL     1       2.726   6.367  19.699  0.00  0.00    +0.000 A 
ATOM     30  C   UNL     1       1.857   7.435  19.922  0.00  0.00    +0.000 A 
ATOM     31  F   UNL     1       1.116   7.434  21.035  0.00  0.00    +0.000 F 
ENDBRANCH  21  24
ENDBRANCH   3  21
TORSDOF 4
ENDMDL
MODEL 9
REMARK VINA RESULT:      -6.6      9.460     12.071
REMARK  Name = 
REMARK  5 active torsions:
REMARK  status: ('A' for Active; 'I' for Inactive)
REMARK    1  A    between atoms: C_1  and  C_2
REMARK    2  A    between atoms: C_7  and  N_8
REMARK    3  A    between atoms: C_9  and  C_22
REMARK    4  A    between atoms: N_10  and  S_11
REMARK    5  A    between atoms: S_11  and  C_14
REMARK                            x       y       z     vdW  Elec       q    Type
REMARK                         _______ _______ _______ _____ _____    ______ ____
ROOT
ATOM      1  N   UNL     1      -0.930  15.165  21.243  0.00  0.00    +0.000 NA
ATOM      2  C   UNL     1      -0.624  14.647  20.095  0.00  0.00    +0.000 C 
ATOM      3  N   UNL     1      -1.146  13.562  19.328  0.00  0.00    +0.000 N 
ATOM      4  H   UNL     1      -1.214  13.804  18.337  0.00  0.00    +0.000 HD
ENDROOT
BRANCH   1  11
ATOM      5  C   UNL     1      -7.447  12.997  24.057  0.00  0.00    +0.000 C 
ATOM      6  C   UNL     1      -5.973  13.264  23.935  0.00  0.00    +0.000 A 
ATOM      7  C   UNL     1      -5.033  12.426  24.546  0.00  0.00    +0.000 A 
ATOM      8  C   UNL     1      -3.660  12.568  24.287  0.00  0.00    +0.000 A 
ATOM      9  C   UNL     1      -3.218  13.599  23.429  0.00  0.00    +0.000 A 
ATOM     10  N   UNL     1      -1.955  13.771  22.879  0.00  0.00    +0.000 NA
ATOM     11  C   UNL     1      -1.954  14.807  22.051  0.00  0.00    +0.000 A 
ATOM     12  S   UNL     1      -3.271  15.896  22.394  0.00  0.00    +0.000 S 
ATOM     13  C   UNL     1      -4.152  14.545  23.018  0.00  0.00    +0.000 A 
ATOM     14  C   UNL     1      -5.533  14.349  23.166  0.00  0.00    +0.000 A 
ENDBRANCH   1  11
BRANCH   2  15
ATOM     15  C   UNL     1       0.528  15.319  19.343  0.00  0.00    +0.000 A 
ATOM     16  C   UNL     1       0.490  16.672  18.956  0.00  0.00    +0.000 A 
ATOM     17  C   UNL     1       1.541  17.247  18.235  0.00  0.00    +0.000 A 
ATOM     18  C   UNL     1       2.652  16.485  17.894  0.00  0.00    +0.000 A 
ATOM     19  C   UNL     1       2.720  15.150  18.287  0.00  0.00    +0.000 A 
ATOM     20  C   UNL     1       1.669  14.571  19.009  0.00  0.00    +0.000 A 
ENDBRANCH   2  15
BRANCH   3  21
ATOM     21  S   UNL     1      -2.253  12.354  19.571  0.00  0.00    +0.000 S 
ATOM     22  O   UNL     1      -1.698  11.288  20.356  0.00  0.00    +0.000 OA
ATOM     23  O   UNL     1      -3.484  13.024  19.937  0.00  0.00    +0.000 OA
BRANCH  21  24
ATOM     24  C   UNL     1      -2.603  11.521  18.066  0.00  0.00    +0.000 A 
ATOM     25  C   UNL     1      -3.895  11.751  17.555  0.00  0.00    +0.000 A 
ATOM     26  C   UNL     1      -4.333  11.078  16.423  0.00  0.00    +0.000 A 
ATOM     27  C   UNL     1      -3.471  10.185  15.807  0.00  0.00    +0.000 A 
ATOM     28  F   UNL     1      -3.887   9.531  14.711  0.00  0.00    +0.000 F 
ATOM     29  C   UNL     1      -2.196   9.941  16.309  0.00  0.00    +0.000 A 
ATOM     30  C   UNL     1      -1.764  10.613  17.451  0.00  0.00    +0.000 A 
ATOM     31  F   UNL     1      -0.539  10.353  17.919  0.00  0.00    +0.000 F 
ENDBRANCH  21  24
ENDBRANCH   3  21
TORSDOF 4
ENDMDL
