MODEL 1
REMARK VINA RESULT:      -7.7      0.000      0.000
REMARK  Name = 
REMARK  8 active torsions:
REMARK  status: ('A' for Active; 'I' for Inactive)
REMARK    1  A    between atoms: C_1  and  O_2
REMARK    2  A    between atoms: O_2  and  C_3
REMARK    3  A    between atoms: C_7  and  C_8
REMARK    4  A    between atoms: C_8  and  N_9
REMARK    5  A    between atoms: C_10  and  C_12
REMARK    6  A    between atoms: C_14  and  C_15
REMARK    7  A    between atoms: C_21  and  O_22
REMARK    8  A    between atoms: C_23  and  O_24
REMARK                            x       y       z     vdW  Elec       q    Type
REMARK                         _______ _______ _______ _____ _____    ______ ____
ROOT
ATOM      1  C   UNL     1       5.742   5.205  17.046  0.00  0.00    +0.000 A 
ATOM      2  N   UNL     1       4.533   4.708  17.442  0.00  0.00    +0.000 NA
ATOM      3  C   UNL     1       4.391   4.494  18.767  0.00  0.00    +0.000 A 
ATOM      4  N   UNL     1       5.334   4.721  19.700  0.00  0.00    +0.000 NA
ATOM      5  C   UNL     1       6.483   5.204  19.231  0.00  0.00    +0.000 A 
ATOM      6  C   UNL     1       6.771   5.478  17.918  0.00  0.00    +0.000 A 
ENDROOT
BRANCH   3   7
ATOM      7  C   UNL     1       3.123   3.955  19.272  0.00  0.00    +0.000 A 
ATOM      8  C   UNL     1       2.475   2.786  18.891  0.00  0.00    +0.000 A 
ATOM      9  C   UNL     1       1.243   2.583  19.576  0.00  0.00    +0.000 A 
ATOM     10  C   UNL     1       0.981   3.597  20.468  0.00  0.00    +0.000 A 
ATOM     11  S   UNL     1       2.222   4.772  20.485  0.00  0.00    +0.000 S 
ENDBRANCH   3   7
BRANCH   1  13
ATOM     12  N   UNL     1       6.753   4.565  14.917  0.00  0.00    +0.000 N 
ATOM     13  C   UNL     1       5.903   5.438  15.568  0.00  0.00    +0.000 C 
ATOM     14  O   UNL     1       5.324   6.340  14.978  0.00  0.00    +0.000 OA
ATOM     15  H   UNL     1       7.237   3.864  15.469  0.00  0.00    +0.000 HD
BRANCH  12  16
ATOM     16  C   UNL     1       7.010   4.687  13.501  0.00  0.00    +0.000 C 
BRANCH  16  21
ATOM     17  C   UNL     1       6.011   1.720  11.321  0.00  0.00    +0.000 A 
ATOM     18  C   UNL     1       4.700   2.061  10.986  0.00  0.00    +0.000 A 
ATOM     19  C   UNL     1       4.124   3.231  11.484  0.00  0.00    +0.000 A 
ATOM     20  C   UNL     1       4.860   4.070  12.320  0.00  0.00    +0.000 A 
ATOM     21  C   UNL     1       6.178   3.741  12.674  0.00  0.00    +0.000 A 
ATOM     22  C   UNL     1       6.742   2.559  12.167  0.00  0.00    +0.000 A 
BRANCH  17  24
ATOM     23  C   UNL     1       6.052  -0.654  11.345  0.00  0.00    +0.000 C 
ATOM     24  O   UNL     1       6.476   0.566  10.748  0.00  0.00    +0.000 OA
ENDBRANCH  17  24
ENDBRANCH  16  21
ENDBRANCH  12  16
ENDBRANCH   1  13
BRANCH   5  25
ATOM     25  O   UNL     1       7.437   5.422  20.181  0.00  0.00    +0.000 OA
ATOM     26  H   UNL     1       8.253   5.268  19.668  0.00  0.00    +0.000 HD
ENDBRANCH   5  25
BRANCH   6  27
ATOM     27  O   UNL     1       7.985   5.978  17.574  0.00  0.00    +0.000 OA
ATOM     28  H   UNL     1       7.899   6.950  17.528  0.00  0.00    +0.000 HD
ENDBRANCH   6  27
TORSDOF 7
ENDMDL
MODEL 2
REMARK VINA RESULT:      -7.7      1.241      1.945
REMARK  Name = 
REMARK  8 active torsions:
REMARK  status: ('A' for Active; 'I' for Inactive)
REMARK    1  A    between atoms: C_1  and  O_2
REMARK    2  A    between atoms: O_2  and  C_3
REMARK    3  A    between atoms: C_7  and  C_8
REMARK    4  A    between atoms: C_8  and  N_9
REMARK    5  A    between atoms: C_10  and  C_12
REMARK    6  A    between atoms: C_14  and  C_15
REMARK    7  A    between atoms: C_21  and  O_22
REMARK    8  A    between atoms: C_23  and  O_24
REMARK                            x       y       z     vdW  Elec       q    Type
REMARK                         _______ _______ _______ _____ _____    ______ ____
ROOT
ATOM      1  C   UNL     1       5.629   5.210  16.796  0.00  0.00    +0.000 A 
ATOM      2  N   UNL     1       4.412   4.670  17.099  0.00  0.00    +0.000 NA
ATOM      3  C   UNL     1       4.190   4.416  18.406  0.00  0.00    +0.000 A 
ATOM      4  N   UNL     1       5.063   4.642  19.404  0.00  0.00    +0.000 NA
ATOM      5  C   UNL     1       6.226   5.168  19.025  0.00  0.00    +0.000 A 
ATOM      6  C   UNL     1       6.590   5.486  17.741  0.00  0.00    +0.000 A 
ENDROOT
BRANCH   3   7
ATOM      7  C   UNL     1       2.907   3.830  18.812  0.00  0.00    +0.000 A 
ATOM      8  C   UNL     1       2.095   4.196  19.878  0.00  0.00    +0.000 A 
ATOM      9  C   UNL     1       0.926   3.391  19.992  0.00  0.00    +0.000 A 
ATOM     10  C   UNL     1       0.869   2.432  19.007  0.00  0.00    +0.000 A 
ATOM     11  S   UNL     1       2.207   2.519  17.949  0.00  0.00    +0.000 S 
ENDBRANCH   3   7
BRANCH   1  13
ATOM     12  N   UNL     1       6.775   4.639  14.716  0.00  0.00    +0.000 N 
ATOM     13  C   UNL     1       5.880   5.487  15.339  0.00  0.00    +0.000 C 
ATOM     14  O   UNL     1       5.331   6.403  14.740  0.00  0.00    +0.000 OA
ATOM     15  H   UNL     1       7.229   3.925  15.277  0.00  0.00    +0.000 HD
BRANCH  12  16
ATOM     16  C   UNL     1       7.118   4.805  13.323  0.00  0.00    +0.000 C 
BRANCH  16  21
ATOM     17  C   UNL     1       4.471   2.960  11.289  0.00  0.00    +0.000 A 
ATOM     18  C   UNL     1       5.163   1.801  10.933  0.00  0.00    +0.000 A 
ATOM     19  C   UNL     1       6.491   1.624  11.322  0.00  0.00    +0.000 A 
ATOM     20  C   UNL     1       7.136   2.606  12.073  0.00  0.00    +0.000 A 
ATOM     21  C   UNL     1       6.459   3.781  12.435  0.00  0.00    +0.000 A 
ATOM     22  C   UNL     1       5.123   3.946  12.033  0.00  0.00    +0.000 A 
BRANCH  17  24
ATOM     23  C   UNL     1       2.882   3.839   9.758  0.00  0.00    +0.000 C 
ATOM     24  O   UNL     1       3.165   3.007  10.877  0.00  0.00    +0.000 OA
ENDBRANCH  17  24
ENDBRANCH  16  21
ENDBRANCH  12  16
ENDBRANCH   1  13
BRANCH   5  25
ATOM     25  O   UNL     1       7.109   5.386  20.041  0.00  0.00    +0.000 OA
ATOM     26  H   UNL     1       7.131   6.361  20.067  0.00  0.00    +0.000 HD
ENDBRANCH   5  25
BRANCH   6  27
ATOM     27  O   UNL     1       7.810   6.028  17.491  0.00  0.00    +0.000 OA
ATOM     28  H   UNL     1       8.446   5.611  18.104  0.00  0.00    +0.000 HD
ENDBRANCH   6  27
TORSDOF 7
ENDMDL
MODEL 3
REMARK VINA RESULT:      -7.6      2.885      3.816
REMARK  Name = 
REMARK  8 active torsions:
REMARK  status: ('A' for Active; 'I' for Inactive)
REMARK    1  A    between atoms: C_1  and  O_2
REMARK    2  A    between atoms: O_2  and  C_3
REMARK    3  A    between atoms: C_7  and  C_8
REMARK    4  A    between atoms: C_8  and  N_9
REMARK    5  A    between atoms: C_10  and  C_12
REMARK    6  A    between atoms: C_14  and  C_15
REMARK    7  A    between atoms: C_21  and  O_22
REMARK    8  A    between atoms: C_23  and  O_24
REMARK                            x       y       z     vdW  Elec       q    Type
REMARK                         _______ _______ _______ _____ _____    ______ ____
ROOT
ATOM      1  C   UNL     1       4.852   4.778  18.738  0.00  0.00    +0.000 A 
ATOM      2  N   UNL     1       4.236   5.997  18.745  0.00  0.00    +0.000 NA
ATOM      3  C   UNL     1       3.032   6.045  19.352  0.00  0.00    +0.000 A 
ATOM      4  N   UNL     1       2.407   5.003  19.929  0.00  0.00    +0.000 NA
ATOM      5  C   UNL     1       3.073   3.851  19.879  0.00  0.00    +0.000 A 
ATOM      6  C   UNL     1       4.303   3.651  19.305  0.00  0.00    +0.000 A 
ENDROOT
BRANCH   3   7
ATOM      7  C   UNL     1       2.304   7.318  19.396  0.00  0.00    +0.000 A 
ATOM      8  C   UNL     1       1.651   7.897  20.478  0.00  0.00    +0.000 A 
ATOM      9  C   UNL     1       1.024   9.135  20.154  0.00  0.00    +0.000 A 
ATOM     10  C   UNL     1       1.217   9.475  18.835  0.00  0.00    +0.000 A 
ATOM     11  S   UNL     1       2.160   8.317  18.005  0.00  0.00    +0.000 S 
ENDBRANCH   3   7
BRANCH   1  13
ATOM     12  N   UNL     1       6.194   5.077  16.720  0.00  0.00    +0.000 N 
ATOM     13  C   UNL     1       6.191   4.723  18.056  0.00  0.00    +0.000 C 
ATOM     14  O   UNL     1       7.213   4.386  18.639  0.00  0.00    +0.000 OA
ATOM     15  H   UNL     1       5.308   5.307  16.282  0.00  0.00    +0.000 HD
BRANCH  12  16
ATOM     16  C   UNL     1       7.411   5.052  15.942  0.00  0.00    +0.000 C 
BRANCH  16  21
ATOM     17  C   UNL     1       6.041   3.582  12.700  0.00  0.00    +0.000 A 
ATOM     18  C   UNL     1       6.809   4.258  11.751  0.00  0.00    +0.000 A 
ATOM     19  C   UNL     1       7.750   5.209  12.151  0.00  0.00    +0.000 A 
ATOM     20  C   UNL     1       7.928   5.488  13.505  0.00  0.00    +0.000 A 
ATOM     21  C   UNL     1       7.160   4.824  14.474  0.00  0.00    +0.000 A 
ATOM     22  C   UNL     1       6.216   3.871  14.056  0.00  0.00    +0.000 A 
BRANCH  17  24
ATOM     23  C   UNL     1       4.177   3.134  11.298  0.00  0.00    +0.000 C 
ATOM     24  O   UNL     1       5.176   2.651  12.190  0.00  0.00    +0.000 OA
ENDBRANCH  17  24
ENDBRANCH  16  21
ENDBRANCH  12  16
ENDBRANCH   1  13
BRANCH   5  25
ATOM     25  O   UNL     1       2.429   2.796  20.457  0.00  0.00    +0.000 OA
ATOM     26  H   UNL     1       2.254   2.233  19.680  0.00  0.00    +0.000 HD
ENDBRANCH   5  25
BRANCH   6  27
ATOM     27  O   UNL     1       4.878   2.421  19.330  0.00  0.00    +0.000 OA
ATOM     28  H   UNL     1       5.022   2.185  20.267  0.00  0.00    +0.000 HD
ENDBRANCH   6  27
TORSDOF 7
ENDMDL
MODEL 4
REMARK VINA RESULT:      -7.6      4.148      8.487
REMARK  Name = 
REMARK  8 active torsions:
REMARK  status: ('A' for Active; 'I' for Inactive)
REMARK    1  A    between atoms: C_1  and  O_2
REMARK    2  A    between atoms: O_2  and  C_3
REMARK    3  A    between atoms: C_7  and  C_8
REMARK    4  A    between atoms: C_8  and  N_9
REMARK    5  A    between atoms: C_10  and  C_12
REMARK    6  A    between atoms: C_14  and  C_15
REMARK    7  A    between atoms: C_21  and  O_22
REMARK    8  A    between atoms: C_23  and  O_24
REMARK                            x       y       z     vdW  Elec       q    Type
REMARK                         _______ _______ _______ _____ _____    ______ ____
ROOT
ATOM      1  C   UNL     1       4.939   4.817  17.651  0.00  0.00    +0.000 A 
ATOM      2  N   UNL     1       4.998   4.646  16.298  0.00  0.00    +0.000 NA
ATOM      3  C   UNL     1       6.232   4.470  15.780  0.00  0.00    +0.000 A 
ATOM      4  N   UNL     1       7.379   4.462  16.482  0.00  0.00    +0.000 NA
ATOM      5  C   UNL     1       7.235   4.636  17.795  0.00  0.00    +0.000 A 
ATOM      6  C   UNL     1       6.051   4.818  18.462  0.00  0.00    +0.000 A 
ENDROOT
BRANCH   3   7
ATOM      7  C   UNL     1       6.380   4.286  14.332  0.00  0.00    +0.000 A 
ATOM      8  C   UNL     1       5.584   3.533  13.477  0.00  0.00    +0.000 A 
ATOM      9  C   UNL     1       6.035   3.559  12.125  0.00  0.00    +0.000 A 
ATOM     10  C   UNL     1       7.161   4.335  11.979  0.00  0.00    +0.000 A 
ATOM     11  S   UNL     1       7.655   5.036  13.458  0.00  0.00    +0.000 S 
ENDBRANCH   3   7
BRANCH   1  13
ATOM     12  N   UNL     1       3.478   5.944  19.251  0.00  0.00    +0.000 N 
ATOM     13  C   UNL     1       3.565   5.019  18.228  0.00  0.00    +0.000 C 
ATOM     14  O   UNL     1       2.586   4.406  17.824  0.00  0.00    +0.000 OA
ATOM     15  H   UNL     1       4.333   6.389  19.570  0.00  0.00    +0.000 HD
BRANCH  12  16
ATOM     16  C   UNL     1       2.220   6.222  19.904  0.00  0.00    +0.000 C 
BRANCH  16  21
ATOM     17  C   UNL     1       1.005   9.668  20.998  0.00  0.00    +0.000 A 
ATOM     18  C   UNL     1       0.996  10.350  19.780  0.00  0.00    +0.000 A 
ATOM     19  C   UNL     1       1.407   9.711  18.609  0.00  0.00    +0.000 A 
ATOM     20  C   UNL     1       1.830   8.383  18.650  0.00  0.00    +0.000 A 
ATOM     21  C   UNL     1       1.853   7.683  19.866  0.00  0.00    +0.000 A 
ATOM     22  C   UNL     1       1.439   8.340  21.036  0.00  0.00    +0.000 A 
BRANCH  17  24
ATOM     23  C   UNL     1      -0.424   9.757  22.892  0.00  0.00    +0.000 C 
ATOM     24  O   UNL     1       0.551  10.389  22.071  0.00  0.00    +0.000 OA
ENDBRANCH  17  24
ENDBRANCH  16  21
ENDBRANCH  12  16
ENDBRANCH   1  13
BRANCH   5  25
ATOM     25  O   UNL     1       8.403   4.636  18.499  0.00  0.00    +0.000 OA
ATOM     26  H   UNL     1       9.023   4.998  17.838  0.00  0.00    +0.000 HD
ENDBRANCH   5  25
BRANCH   6  27
ATOM     27  O   UNL     1       6.043   4.977  19.811  0.00  0.00    +0.000 OA
ATOM     28  H   UNL     1       5.111   4.958  20.102  0.00  0.00    +0.000 HD
ENDBRANCH   6  27
TORSDOF 7
ENDMDL
MODEL 5
REMARK VINA RESULT:      -7.4      6.089      8.917
REMARK  Name = 
REMARK  8 active torsions:
REMARK  status: ('A' for Active; 'I' for Inactive)
REMARK    1  A    between atoms: C_1  and  O_2
REMARK    2  A    between atoms: O_2  and  C_3
REMARK    3  A    between atoms: C_7  and  C_8
REMARK    4  A    between atoms: C_8  and  N_9
REMARK    5  A    between atoms: C_10  and  C_12
REMARK    6  A    between atoms: C_14  and  C_15
REMARK    7  A    between atoms: C_21  and  O_22
REMARK    8  A    between atoms: C_23  and  O_24
REMARK                            x       y       z     vdW  Elec       q    Type
REMARK                         _______ _______ _______ _____ _____    ______ ____
ROOT
ATOM      1  C   UNL     1       2.355   7.939  18.654  0.00  0.00    +0.000 A 
ATOM      2  N   UNL     1       3.143   7.405  17.675  0.00  0.00    +0.000 NA
ATOM      3  C   UNL     1       3.640   6.175  17.925  0.00  0.00    +0.000 A 
ATOM      4  N   UNL     1       3.427   5.461  19.044  0.00  0.00    +0.000 NA
ATOM      5  C   UNL     1       2.649   6.052  19.949  0.00  0.00    +0.000 A 
ATOM      6  C   UNL     1       2.069   7.290  19.833  0.00  0.00    +0.000 A 
ENDROOT
BRANCH   3   7
ATOM      7  C   UNL     1       4.501   5.536  16.924  0.00  0.00    +0.000 A 
ATOM      8  C   UNL     1       5.186   6.134  15.873  0.00  0.00    +0.000 A 
ATOM      9  C   UNL     1       5.913   5.201  15.078  0.00  0.00    +0.000 A 
ATOM     10  C   UNL     1       5.770   3.914  15.542  0.00  0.00    +0.000 A 
ATOM     11  S   UNL     1       4.782   3.840  16.934  0.00  0.00    +0.000 S 
ENDBRANCH   3   7
BRANCH   1  13
ATOM     12  N   UNL     1       0.776   9.719  19.205  0.00  0.00    +0.000 N 
ATOM     13  C   UNL     1       1.806   9.312  18.379  0.00  0.00    +0.000 C 
ATOM     14  O   UNL     1       2.238  10.026  17.483  0.00  0.00    +0.000 OA
ATOM     15  H   UNL     1       0.435   9.065  19.903  0.00  0.00    +0.000 HD
BRANCH  12  16
ATOM     16  C   UNL     1       0.148  11.009  19.039  0.00  0.00    +0.000 C 
BRANCH  16  21
ATOM     17  C   UNL     1      -2.780  10.096  16.770  0.00  0.00    +0.000 A 
ATOM     18  C   UNL     1      -3.806  10.855  17.335  0.00  0.00    +0.000 A 
ATOM     19  C   UNL     1      -3.565  11.639  18.465  0.00  0.00    +0.000 A 
ATOM     20  C   UNL     1      -2.293  11.670  19.035  0.00  0.00    +0.000 A 
ATOM     21  C   UNL     1      -1.250  10.909  18.485  0.00  0.00    +0.000 A 
ATOM     22  C   UNL     1      -1.509  10.123  17.351  0.00  0.00    +0.000 A 
BRANCH  17  24
ATOM     23  C   UNL     1      -3.188  10.127  14.431  0.00  0.00    +0.000 C 
ATOM     24  O   UNL     1      -3.128   9.392  15.648  0.00  0.00    +0.000 OA
ENDBRANCH  17  24
ENDBRANCH  16  21
ENDBRANCH  12  16
ENDBRANCH   1  13
BRANCH   5  25
ATOM     25  O   UNL     1       2.446   5.326  21.086  0.00  0.00    +0.000 OA
ATOM     26  H   UNL     1       2.375   6.034  21.753  0.00  0.00    +0.000 HD
ENDBRANCH   5  25
BRANCH   6  27
ATOM     27  O   UNL     1       1.287   7.775  20.831  0.00  0.00    +0.000 OA
ATOM     28  H   UNL     1       0.590   7.114  21.004  0.00  0.00    +0.000 HD
ENDBRANCH   6  27
TORSDOF 7
ENDMDL
MODEL 6
REMARK VINA RESULT:      -7.3      6.418      9.507
REMARK  Name = 
REMARK  8 active torsions:
REMARK  status: ('A' for Active; 'I' for Inactive)
REMARK    1  A    between atoms: C_1  and  O_2
REMARK    2  A    between atoms: O_2  and  C_3
REMARK    3  A    between atoms: C_7  and  C_8
REMARK    4  A    between atoms: C_8  and  N_9
REMARK    5  A    between atoms: C_10  and  C_12
REMARK    6  A    between atoms: C_14  and  C_15
REMARK    7  A    between atoms: C_21  and  O_22
REMARK    8  A    between atoms: C_23  and  O_24
REMARK                            x       y       z     vdW  Elec       q    Type
REMARK                         _______ _______ _______ _____ _____    ______ ____
ROOT
ATOM      1  C   UNL     1       2.311   8.029  18.680  0.00  0.00    +0.000 A 
ATOM      2  N   UNL     1       3.095   7.494  17.698  0.00  0.00    +0.000 NA
ATOM      3  C   UNL     1       3.601   6.269  17.950  0.00  0.00    +0.000 A 
ATOM      4  N   UNL     1       3.401   5.558  19.075  0.00  0.00    +0.000 NA
ATOM      5  C   UNL     1       2.626   6.149  19.982  0.00  0.00    +0.000 A 
ATOM      6  C   UNL     1       2.038   7.383  19.865  0.00  0.00    +0.000 A 
ENDROOT
BRANCH   3   7
ATOM      7  C   UNL     1       4.460   5.630  16.946  0.00  0.00    +0.000 A 
ATOM      8  C   UNL     1       5.181   6.234  15.923  0.00  0.00    +0.000 A 
ATOM      9  C   UNL     1       5.892   5.301  15.115  0.00  0.00    +0.000 A 
ATOM     10  C   UNL     1       5.702   4.007  15.542  0.00  0.00    +0.000 A 
ATOM     11  S   UNL     1       4.688   3.927  16.916  0.00  0.00    +0.000 S 
ENDBRANCH   3   7
BRANCH   1  13
ATOM     12  N   UNL     1       0.610   9.727  19.106  0.00  0.00    +0.000 N 
ATOM     13  C   UNL     1       1.752   9.397  18.403  0.00  0.00    +0.000 C 
ATOM     14  O   UNL     1       2.269  10.170  17.606  0.00  0.00    +0.000 OA
ATOM     15  H   UNL     1       0.205   9.028  19.720  0.00  0.00    +0.000 HD
BRANCH  12  16
ATOM     16  C   UNL     1      -0.039  11.005  18.922  0.00  0.00    +0.000 C 
BRANCH  16  21
ATOM     17  C   UNL     1      -3.748  11.481  18.164  0.00  0.00    +0.000 A 
ATOM     18  C   UNL     1      -3.939  10.541  17.150  0.00  0.00    +0.000 A 
ATOM     19  C   UNL     1      -2.869   9.773  16.688  0.00  0.00    +0.000 A 
ATOM     20  C   UNL     1      -1.600   9.940  17.240  0.00  0.00    +0.000 A 
ATOM     21  C   UNL     1      -1.386  10.884  18.256  0.00  0.00    +0.000 A 
ATOM     22  C   UNL     1      -2.472  11.651  18.709  0.00  0.00    +0.000 A 
BRANCH  17  24
ATOM     23  C   UNL     1      -6.080  11.820  17.873  0.00  0.00    +0.000 C 
ATOM     24  O   UNL     1      -4.876  12.151  18.555  0.00  0.00    +0.000 OA
ENDBRANCH  17  24
ENDBRANCH  16  21
ENDBRANCH  12  16
ENDBRANCH   1  13
BRANCH   5  25
ATOM     25  O   UNL     1       2.435   5.427  21.124  0.00  0.00    +0.000 OA
ATOM     26  H   UNL     1       3.081   4.706  21.001  0.00  0.00    +0.000 HD
ENDBRANCH   5  25
BRANCH   6  27
ATOM     27  O   UNL     1       1.260   7.868  20.866  0.00  0.00    +0.000 OA
ATOM     28  H   UNL     1       1.733   7.712  21.706  0.00  0.00    +0.000 HD
ENDBRANCH   6  27
TORSDOF 7
ENDMDL
MODEL 7
REMARK VINA RESULT:      -7.3      4.629      6.650
REMARK  Name = 
REMARK  8 active torsions:
REMARK  status: ('A' for Active; 'I' for Inactive)
REMARK    1  A    between atoms: C_1  and  O_2
REMARK    2  A    between atoms: O_2  and  C_3
REMARK    3  A    between atoms: C_7  and  C_8
REMARK    4  A    between atoms: C_8  and  N_9
REMARK    5  A    between atoms: C_10  and  C_12
REMARK    6  A    between atoms: C_14  and  C_15
REMARK    7  A    between atoms: C_21  and  O_22
REMARK    8  A    between atoms: C_23  and  O_24
REMARK                            x       y       z     vdW  Elec       q    Type
REMARK                         _______ _______ _______ _____ _____    ______ ____
ROOT
ATOM      1  C   UNL     1       2.149   7.806  19.101  0.00  0.00    +0.000 A 
ATOM      2  N   UNL     1       1.421   8.174  20.196  0.00  0.00    +0.000 NA
ATOM      3  C   UNL     1       0.965   9.444  20.200  0.00  0.00    +0.000 A 
ATOM      4  N   UNL     1       1.177  10.352  19.231  0.00  0.00    +0.000 NA
ATOM      5  C   UNL     1       1.895   9.914  18.198  0.00  0.00    +0.000 A 
ATOM      6  C   UNL     1       2.417   8.655  18.051  0.00  0.00    +0.000 A 
ENDROOT
BRANCH   3   7
ATOM      7  C   UNL     1       0.180   9.917  21.346  0.00  0.00    +0.000 A 
ATOM      8  C   UNL     1      -0.037   9.278  22.561  0.00  0.00    +0.000 A 
ATOM      9  C   UNL     1      -0.874  10.022  23.442  0.00  0.00    +0.000 A 
ATOM     10  C   UNL     1      -1.272  11.214  22.882  0.00  0.00    +0.000 A 
ATOM     11  S   UNL     1      -0.626  11.435  21.315  0.00  0.00    +0.000 S 
ENDBRANCH   3   7
BRANCH   1  13
ATOM     12  N   UNL     1       2.652   5.757  17.872  0.00  0.00    +0.000 N 
ATOM     13  C   UNL     1       2.663   6.393  19.098  0.00  0.00    +0.000 C 
ATOM     14  O   UNL     1       3.065   5.837  20.113  0.00  0.00    +0.000 OA
ATOM     15  H   UNL     1       2.268   6.256  17.076  0.00  0.00    +0.000 HD
BRANCH  12  16
ATOM     16  C   UNL     1       3.104   4.392  17.732  0.00  0.00    +0.000 C 
BRANCH  16  21
ATOM     17  C   UNL     1       6.917   4.490  17.655  0.00  0.00    +0.000 A 
ATOM     18  C   UNL     1       7.164   4.300  16.295  0.00  0.00    +0.000 A 
ATOM     19  C   UNL     1       6.107   4.112  15.404  0.00  0.00    +0.000 A 
ATOM     20  C   UNL     1       4.793   4.114  15.870  0.00  0.00    +0.000 A 
ATOM     21  C   UNL     1       4.524   4.296  17.235  0.00  0.00    +0.000 A 
ATOM     22  C   UNL     1       5.599   4.481  18.119  0.00  0.00    +0.000 A 
BRANCH  17  24
ATOM     23  C   UNL     1       7.944   5.721  19.407  0.00  0.00    +0.000 C 
ATOM     24  O   UNL     1       8.031   4.695  18.425  0.00  0.00    +0.000 OA
ENDBRANCH  17  24
ENDBRANCH  16  21
ENDBRANCH  12  16
ENDBRANCH   1  13
BRANCH   5  25
ATOM     25  O   UNL     1       2.113  10.844  17.224  0.00  0.00    +0.000 OA
ATOM     26  H   UNL     1       1.550  10.500  16.505  0.00  0.00    +0.000 HD
ENDBRANCH   5  25
BRANCH   6  27
ATOM     27  O   UNL     1       3.127   8.334  16.939  0.00  0.00    +0.000 OA
ATOM     28  H   UNL     1       2.487   8.090  16.243  0.00  0.00    +0.000 HD
ENDBRANCH   6  27
TORSDOF 7
ENDMDL
MODEL 8
REMARK VINA RESULT:      -7.3      4.847      8.642
REMARK  Name = 
REMARK  8 active torsions:
REMARK  status: ('A' for Active; 'I' for Inactive)
REMARK    1  A    between atoms: C_1  and  O_2
REMARK    2  A    between atoms: O_2  and  C_3
REMARK    3  A    between atoms: C_7  and  C_8
REMARK    4  A    between atoms: C_8  and  N_9
REMARK    5  A    between atoms: C_10  and  C_12
REMARK    6  A    between atoms: C_14  and  C_15
REMARK    7  A    between atoms: C_21  and  O_22
REMARK    8  A    between atoms: C_23  and  O_24
REMARK                            x       y       z     vdW  Elec       q    Type
REMARK                         _______ _______ _______ _____ _____    ______ ____
ROOT
ATOM      1  C   UNL     1       3.064   4.315  19.981  0.00  0.00    +0.000 A 
ATOM      2  N   UNL     1       3.678   4.703  18.825  0.00  0.00    +0.000 NA
ATOM      3  C   UNL     1       4.702   3.926  18.413  0.00  0.00    +0.000 A 
ATOM      4  N   UNL     1       5.155   2.831  19.049  0.00  0.00    +0.000 NA
ATOM      5  C   UNL     1       4.503   2.521  20.168  0.00  0.00    +0.000 A 
ATOM      6  C   UNL     1       3.444   3.208  20.705  0.00  0.00    +0.000 A 
ENDROOT
BRANCH   3   7
ATOM      7  C   UNL     1       5.418   4.281  17.183  0.00  0.00    +0.000 A 
ATOM      8  C   UNL     1       4.922   4.334  15.886  0.00  0.00    +0.000 A 
ATOM      9  C   UNL     1       5.909   4.695  14.924  0.00  0.00    +0.000 A 
ATOM     10  C   UNL     1       7.134   4.914  15.509  0.00  0.00    +0.000 A 
ATOM     11  S   UNL     1       7.084   4.702  17.204  0.00  0.00    +0.000 S 
ENDBRANCH   3   7
BRANCH   1  13
ATOM     12  N   UNL     1       2.254   6.498  20.719  0.00  0.00    +0.000 N 
ATOM     13  C   UNL     1       1.927   5.184  20.444  0.00  0.00    +0.000 C 
ATOM     14  O   UNL     1       0.785   4.760  20.571  0.00  0.00    +0.000 OA
ATOM     15  H   UNL     1       3.226   6.778  20.634  0.00  0.00    +0.000 HD
BRANCH  12  16
ATOM     16  C   UNL     1       1.259   7.435  21.187  0.00  0.00    +0.000 C 
BRANCH  16  21
ATOM     17  C   UNL     1      -0.206  10.570  19.582  0.00  0.00    +0.000 A 
ATOM     18  C   UNL     1       0.515  10.625  18.389  0.00  0.00    +0.000 A 
ATOM     19  C   UNL     1       1.494   9.670  18.110  0.00  0.00    +0.000 A 
ATOM     20  C   UNL     1       1.757   8.652  19.026  0.00  0.00    +0.000 A 
ATOM     21  C   UNL     1       1.047   8.584  20.235  0.00  0.00    +0.000 A 
ATOM     22  C   UNL     1       0.067   9.553  20.502  0.00  0.00    +0.000 A 
BRANCH  17  24
ATOM     23  C   UNL     1      -1.453  12.324  18.578  0.00  0.00    +0.000 C 
ATOM     24  O   UNL     1      -1.161  11.541  19.730  0.00  0.00    +0.000 OA
ENDBRANCH  17  24
ENDBRANCH  16  21
ENDBRANCH  12  16
ENDBRANCH   1  13
BRANCH   5  25
ATOM     25  O   UNL     1       4.974   1.415  20.813  0.00  0.00    +0.000 OA
ATOM     26  H   UNL     1       5.473   0.977  20.097  0.00  0.00    +0.000 HD
ENDBRANCH   5  25
BRANCH   6  27
ATOM     27  O   UNL     1       2.861   2.778  21.853  0.00  0.00    +0.000 OA
ATOM     28  H   UNL     1       2.105   3.369  22.037  0.00  0.00    +0.000 HD
ENDBRANCH   6  27
TORSDOF 7
ENDMDL
MODEL 9
REMARK VINA RESULT:      -7.2      5.344      9.215
REMARK  Name = 
REMARK  8 active torsions:
REMARK  status: ('A' for Active; 'I' for Inactive)
REMARK    1  A    between atoms: C_1  and  O_2
REMARK    2  A    between atoms: O_2  and  C_3
REMARK    3  A    between atoms: C_7  and  C_8
REMARK    4  A    between atoms: C_8  and  N_9
REMARK    5  A    between atoms: C_10  and  C_12
REMARK    6  A    between atoms: C_14  and  C_15
REMARK    7  A    between atoms: C_21  and  O_22
REMARK    8  A    between atoms: C_23  and  O_24
REMARK                            x       y       z     vdW  Elec       q    Type
REMARK                         _______ _______ _______ _____ _____    ______ ____
ROOT
ATOM      1  C   UNL     1       3.058   4.730  20.007  0.00  0.00    +0.000 A 
ATOM      2  N   UNL     1       4.034   5.581  19.573  0.00  0.00    +0.000 NA
ATOM      3  C   UNL     1       5.168   4.998  19.130  0.00  0.00    +0.000 A 
ATOM      4  N   UNL     1       5.402   3.674  19.093  0.00  0.00    +0.000 NA
ATOM      5  C   UNL     1       4.401   2.914  19.533  0.00  0.00    +0.000 A 
ATOM      6  C   UNL     1       3.193   3.360  20.005  0.00  0.00    +0.000 A 
ENDROOT
BRANCH   3   7
ATOM      7  C   UNL     1       6.267   5.846  18.654  0.00  0.00    +0.000 A 
ATOM      8  C   UNL     1       7.525   6.018  19.220  0.00  0.00    +0.000 A 
ATOM      9  C   UNL     1       8.339   6.941  18.501  0.00  0.00    +0.000 A 
ATOM     10  C   UNL     1       7.686   7.446  17.401  0.00  0.00    +0.000 A 
ATOM     11  S   UNL     1       6.114   6.799  17.232  0.00  0.00    +0.000 S 
ENDBRANCH   3   7
BRANCH   1  13
ATOM     12  N   UNL     1       1.896   6.724  20.805  0.00  0.00    +0.000 N 
ATOM     13  C   UNL     1       1.796   5.378  20.507  0.00  0.00    +0.000 C 
ATOM     14  O   UNL     1       0.749   4.760  20.643  0.00  0.00    +0.000 OA
ATOM     15  H   UNL     1       2.802   7.171  20.711  0.00  0.00    +0.000 HD
BRANCH  12  16
ATOM     16  C   UNL     1       0.763   7.464  21.310  0.00  0.00    +0.000 C 
BRANCH  16  21
ATOM     17  C   UNL     1      -0.504  10.978  20.534  0.00  0.00    +0.000 A 
ATOM     18  C   UNL     1       0.167  11.249  19.341  0.00  0.00    +0.000 A 
ATOM     19  C   UNL     1       1.050  10.314  18.798  0.00  0.00    +0.000 A 
ATOM     20  C   UNL     1       1.266   9.099  19.447  0.00  0.00    +0.000 A 
ATOM     21  C   UNL     1       0.606   8.811  20.651  0.00  0.00    +0.000 A 
ATOM     22  C   UNL     1      -0.277   9.763  21.186  0.00  0.00    +0.000 A 
BRANCH  17  24
ATOM     23  C   UNL     1      -2.249  12.486  19.968  0.00  0.00    +0.000 C 
ATOM     24  O   UNL     1      -1.367  11.956  20.951  0.00  0.00    +0.000 OA
ENDBRANCH  17  24
ENDBRANCH  16  21
ENDBRANCH  12  16
ENDBRANCH   1  13
BRANCH   5  25
ATOM     25  O   UNL     1       4.650   1.573  19.502  0.00  0.00    +0.000 OA
ATOM     26  H   UNL     1       4.786   1.384  20.449  0.00  0.00    +0.000 HD
ENDBRANCH   5  25
BRANCH   6  27
ATOM     27  O   UNL     1       2.250   2.474  20.417  0.00  0.00    +0.000 OA
ATOM     28  H   UNL     1       1.550   2.454  19.736  0.00  0.00    +0.000 HD
ENDBRANCH   6  27
TORSDOF 7
ENDMDL
