MODEL 1
REMARK VINA RESULT:      -7.2      0.000      0.000
REMARK  Name = 
REMARK  9 active torsions:
REMARK  status: ('A' for Active; 'I' for Inactive)
REMARK    1  A    between atoms: C_1  and  C_2
REMARK    2  A    between atoms: C_2  and  C_3
REMARK    3  A    between atoms: C_2  and  C_7
REMARK    4  A    between atoms: C_3  and  N_4
REMARK    5  A    between atoms: N_4  and  C_5
REMARK    6  A    between atoms: N_4  and  C_6
REMARK    7  A    between atoms: C_7  and  C_8
REMARK    8  A    between atoms: C_7  and  C_10
REMARK    9  A    between atoms: C_7  and  C_16
REMARK                            x       y       z     vdW  Elec       q    Type
REMARK                         _______ _______ _______ _____ _____    ______ ____
ROOT
ATOM      1  C   UNL     1       3.555   5.226  18.702  0.00  0.00    +0.000 C 
ENDROOT
BRANCH   1   2
ATOM      2  C   UNL     1       2.859   6.626  18.775  0.00  0.00    +0.000 A 
ATOM      3  C   UNL     1       2.250   7.063  19.968  0.00  0.00    +0.000 A 
ATOM      4  C   UNL     1       1.627   8.316  20.044  0.00  0.00    +0.000 A 
ATOM      5  C   UNL     1       1.597   9.158  18.935  0.00  0.00    +0.000 A 
ATOM      6  C   UNL     1       2.196   8.755  17.747  0.00  0.00    +0.000 A 
ATOM      7  C   UNL     1       2.820   7.506  17.674  0.00  0.00    +0.000 A 
ENDBRANCH   1   2
BRANCH   1   8
ATOM      8  C   UNL     1       2.760   4.210  19.593  0.00  0.00    +0.000 A 
ATOM      9  C   UNL     1       1.386   3.977  19.386  0.00  0.00    +0.000 A 
ATOM     10  C   UNL     1       0.647   3.181  20.270  0.00  0.00    +0.000 A 
ATOM     11  C   UNL     1       1.259   2.584  21.366  0.00  0.00    +0.000 A 
ATOM     12  C   UNL     1       2.628   2.731  21.548  0.00  0.00    +0.000 A 
ATOM     13  C   UNL     1       3.373   3.506  20.653  0.00  0.00    +0.000 A 
ENDBRANCH   1   8
BRANCH   1  15
ATOM     14  C   UNL     1       3.636   3.160  17.065  0.00  0.00    +0.000 C 
ATOM     15  C   UNL     1       3.657   4.706  17.180  0.00  0.00    +0.000 C 
BRANCH  15  16
ATOM     16  C   UNL     1       4.902   5.269  16.431  0.00  0.00    +0.000 C 
BRANCH  16  17
ATOM     17  N   UNL     1       5.803   4.256  15.833  0.00  0.00    +0.000 NA
ATOM     18  C   UNL     1       5.811   4.276  14.370  0.00  0.00    +0.000 C 
ATOM     19  C   UNL     1       7.165   4.452  16.339  0.00  0.00    +0.000 C 
ENDBRANCH  16  17
ENDBRANCH  15  16
ENDBRANCH   1  15
BRANCH   1  20
ATOM     20  C   UNL     1       4.979   5.354  19.220  0.00  0.00    +0.000 C 
ATOM     21  N   UNL     1       6.159   5.461  19.650  0.00  0.00    +0.000 NA
ENDBRANCH   1  20
TORSDOF 6
ENDMDL
MODEL 2
REMARK VINA RESULT:      -7.2      0.033      1.050
REMARK  Name = 
REMARK  9 active torsions:
REMARK  status: ('A' for Active; 'I' for Inactive)
REMARK    1  A    between atoms: C_1  and  C_2
REMARK    2  A    between atoms: C_2  and  C_3
REMARK    3  A    between atoms: C_2  and  C_7
REMARK    4  A    between atoms: C_3  and  N_4
REMARK    5  A    between atoms: N_4  and  C_5
REMARK    6  A    between atoms: N_4  and  C_6
REMARK    7  A    between atoms: C_7  and  C_8
REMARK    8  A    between atoms: C_7  and  C_10
REMARK    9  A    between atoms: C_7  and  C_16
REMARK                            x       y       z     vdW  Elec       q    Type
REMARK                         _______ _______ _______ _____ _____    ______ ____
ROOT
ATOM      1  C   UNL     1       3.536   5.243  18.715  0.00  0.00    +0.000 C 
ENDROOT
BRANCH   1   2
ATOM      2  C   UNL     1       2.839   6.641  18.805  0.00  0.00    +0.000 A 
ATOM      3  C   UNL     1       2.797   7.497  17.686  0.00  0.00    +0.000 A 
ATOM      4  C   UNL     1       2.173   8.749  17.757  0.00  0.00    +0.000 A 
ATOM      5  C   UNL     1       1.579   9.176  18.942  0.00  0.00    +0.000 A 
ATOM      6  C   UNL     1       1.599   8.351  20.059  0.00  0.00    +0.000 A 
ATOM      7  C   UNL     1       2.220   7.099  19.986  0.00  0.00    +0.000 A 
ENDBRANCH   1   2
BRANCH   1   8
ATOM      8  C   UNL     1       2.749   4.219  19.604  0.00  0.00    +0.000 A 
ATOM      9  C   UNL     1       1.374   3.988  19.407  0.00  0.00    +0.000 A 
ATOM     10  C   UNL     1       0.642   3.183  20.291  0.00  0.00    +0.000 A 
ATOM     11  C   UNL     1       1.265   2.576  21.375  0.00  0.00    +0.000 A 
ATOM     12  C   UNL     1       2.635   2.721  21.546  0.00  0.00    +0.000 A 
ATOM     13  C   UNL     1       3.372   3.504  20.651  0.00  0.00    +0.000 A 
ENDBRANCH   1   8
BRANCH   1  15
ATOM     14  C   UNL     1       3.581   3.192  17.060  0.00  0.00    +0.000 C 
ATOM     15  C   UNL     1       3.629   4.736  17.189  0.00  0.00    +0.000 C 
BRANCH  15  16
ATOM     16  C   UNL     1       4.882   5.284  16.444  0.00  0.00    +0.000 C 
BRANCH  16  17
ATOM     17  N   UNL     1       5.765   4.262  15.836  0.00  0.00    +0.000 NA
ATOM     18  C   UNL     1       5.774   4.297  14.372  0.00  0.00    +0.000 C 
ATOM     19  C   UNL     1       7.131   4.430  16.343  0.00  0.00    +0.000 C 
ENDBRANCH  16  17
ENDBRANCH  15  16
ENDBRANCH   1  15
BRANCH   1  20
ATOM     20  C   UNL     1       4.964   5.369  19.225  0.00  0.00    +0.000 C 
ATOM     21  N   UNL     1       6.147   5.474  19.647  0.00  0.00    +0.000 NA
ENDBRANCH   1  20
TORSDOF 6
ENDMDL
MODEL 3
REMARK VINA RESULT:      -6.9      0.163      1.058
REMARK  Name = 
REMARK  9 active torsions:
REMARK  status: ('A' for Active; 'I' for Inactive)
REMARK    1  A    between atoms: C_1  and  C_2
REMARK    2  A    between atoms: C_2  and  C_3
REMARK    3  A    between atoms: C_2  and  C_7
REMARK    4  A    between atoms: C_3  and  N_4
REMARK    5  A    between atoms: N_4  and  C_5
REMARK    6  A    between atoms: N_4  and  C_6
REMARK    7  A    between atoms: C_7  and  C_8
REMARK    8  A    between atoms: C_7  and  C_10
REMARK    9  A    between atoms: C_7  and  C_16
REMARK                            x       y       z     vdW  Elec       q    Type
REMARK                         _______ _______ _______ _____ _____    ______ ____
ROOT
ATOM      1  C   UNL     1       3.476   5.333  18.749  0.00  0.00    +0.000 C 
ENDROOT
BRANCH   1   2
ATOM      2  C   UNL     1       2.812   6.750  18.778  0.00  0.00    +0.000 A 
ATOM      3  C   UNL     1       2.174   7.221  19.943  0.00  0.00    +0.000 A 
ATOM      4  C   UNL     1       1.581   8.489  19.979  0.00  0.00    +0.000 A 
ATOM      5  C   UNL     1       1.608   9.314  18.857  0.00  0.00    +0.000 A 
ATOM      6  C   UNL     1       2.236   8.878  17.697  0.00  0.00    +0.000 A 
ATOM      7  C   UNL     1       2.832   7.613  17.664  0.00  0.00    +0.000 A 
ENDBRANCH   1   2
BRANCH   1   8
ATOM      8  C   UNL     1       2.665   4.367  19.681  0.00  0.00    +0.000 A 
ATOM      9  C   UNL     1       3.263   3.765  20.805  0.00  0.00    +0.000 A 
ATOM     10  C   UNL     1       2.584   2.793  21.552  0.00  0.00    +0.000 A 
ATOM     11  C   UNL     1       1.290   2.415  21.211  0.00  0.00    +0.000 A 
ATOM     12  C   UNL     1       0.648   3.051  20.158  0.00  0.00    +0.000 A 
ATOM     13  C   UNL     1       1.315   4.039  19.425  0.00  0.00    +0.000 A 
ENDBRANCH   1   8
BRANCH   1  15
ATOM     14  C   UNL     1       3.542   3.208  17.189  0.00  0.00    +0.000 C 
ATOM     15  C   UNL     1       3.554   4.758  17.246  0.00  0.00    +0.000 C 
BRANCH  15  16
ATOM     16  C   UNL     1       4.780   5.300  16.454  0.00  0.00    +0.000 C 
BRANCH  16  17
ATOM     17  N   UNL     1       5.662   4.272  15.853  0.00  0.00    +0.000 NA
ATOM     18  C   UNL     1       5.666   4.292  14.390  0.00  0.00    +0.000 C 
ATOM     19  C   UNL     1       7.030   4.445  16.354  0.00  0.00    +0.000 C 
ENDBRANCH  16  17
ENDBRANCH  15  16
ENDBRANCH   1  15
BRANCH   1  20
ATOM     20  C   UNL     1       4.906   5.447  19.253  0.00  0.00    +0.000 C 
ATOM     21  N   UNL     1       6.092   5.541  19.670  0.00  0.00    +0.000 NA
ENDBRANCH   1  20
TORSDOF 6
ENDMDL
MODEL 4
REMARK VINA RESULT:      -6.8      1.845      3.654
REMARK  Name = 
REMARK  9 active torsions:
REMARK  status: ('A' for Active; 'I' for Inactive)
REMARK    1  A    between atoms: C_1  and  C_2
REMARK    2  A    between atoms: C_2  and  C_3
REMARK    3  A    between atoms: C_2  and  C_7
REMARK    4  A    between atoms: C_3  and  N_4
REMARK    5  A    between atoms: N_4  and  C_5
REMARK    6  A    between atoms: N_4  and  C_6
REMARK    7  A    between atoms: C_7  and  C_8
REMARK    8  A    between atoms: C_7  and  C_10
REMARK    9  A    between atoms: C_7  and  C_16
REMARK                            x       y       z     vdW  Elec       q    Type
REMARK                         _______ _______ _______ _____ _____    ______ ____
ROOT
ATOM      1  C   UNL     1       4.459   4.981  18.344  0.00  0.00    +0.000 C 
ENDROOT
BRANCH   1   2
ATOM      2  C   UNL     1       5.781   5.818  18.312  0.00  0.00    +0.000 A 
ATOM      3  C   UNL     1       6.868   5.477  19.142  0.00  0.00    +0.000 A 
ATOM      4  C   UNL     1       8.056   6.219  19.118  0.00  0.00    +0.000 A 
ATOM      5  C   UNL     1       8.186   7.316  18.270  0.00  0.00    +0.000 A 
ATOM      6  C   UNL     1       7.133   7.672  17.436  0.00  0.00    +0.000 A 
ATOM      7  C   UNL     1       5.949   6.928  17.458  0.00  0.00    +0.000 A 
ENDBRANCH   1   2
BRANCH   1   8
ATOM      8  C   UNL     1       3.319   5.846  18.984  0.00  0.00    +0.000 A 
ATOM      9  C   UNL     1       2.958   7.095  18.442  0.00  0.00    +0.000 A 
ATOM     10  C   UNL     1       2.042   7.929  19.096  0.00  0.00    +0.000 A 
ATOM     11  C   UNL     1       1.451   7.533  20.290  0.00  0.00    +0.000 A 
ATOM     12  C   UNL     1       1.727   6.273  20.804  0.00  0.00    +0.000 A 
ATOM     13  C   UNL     1       2.623   5.428  20.141  0.00  0.00    +0.000 A 
ENDBRANCH   1   8
BRANCH   1  15
ATOM     14  C   UNL     1       2.825   3.532  16.867  0.00  0.00    +0.000 C 
ATOM     15  C   UNL     1       4.050   4.482  16.868  0.00  0.00    +0.000 C 
BRANCH  15  16
ATOM     16  C   UNL     1       5.232   3.812  16.106  0.00  0.00    +0.000 C 
BRANCH  16  17
ATOM     17  N   UNL     1       5.732   4.549  14.923  0.00  0.00    +0.000 NA
ATOM     18  C   UNL     1       7.173   4.803  14.962  0.00  0.00    +0.000 C 
ATOM     19  C   UNL     1       5.394   3.808  13.703  0.00  0.00    +0.000 C 
ENDBRANCH  16  17
ENDBRANCH  15  16
ENDBRANCH   1  15
BRANCH   1  20
ATOM     20  C   UNL     1       4.686   3.733  19.183  0.00  0.00    +0.000 C 
ATOM     21  N   UNL     1       4.874   2.698  19.879  0.00  0.00    +0.000 NA
ENDBRANCH   1  20
TORSDOF 6
ENDMDL
MODEL 5
REMARK VINA RESULT:      -6.8      1.844      3.764
REMARK  Name = 
REMARK  9 active torsions:
REMARK  status: ('A' for Active; 'I' for Inactive)
REMARK    1  A    between atoms: C_1  and  C_2
REMARK    2  A    between atoms: C_2  and  C_3
REMARK    3  A    between atoms: C_2  and  C_7
REMARK    4  A    between atoms: C_3  and  N_4
REMARK    5  A    between atoms: N_4  and  C_5
REMARK    6  A    between atoms: N_4  and  C_6
REMARK    7  A    between atoms: C_7  and  C_8
REMARK    8  A    between atoms: C_7  and  C_10
REMARK    9  A    between atoms: C_7  and  C_16
REMARK                            x       y       z     vdW  Elec       q    Type
REMARK                         _______ _______ _______ _____ _____    ______ ____
ROOT
ATOM      1  C   UNL     1       4.446   4.971  18.361  0.00  0.00    +0.000 C 
ENDROOT
BRANCH   1   2
ATOM      2  C   UNL     1       5.780   5.789  18.337  0.00  0.00    +0.000 A 
ATOM      3  C   UNL     1       5.927   6.898  17.481  0.00  0.00    +0.000 A 
ATOM      4  C   UNL     1       7.117   7.638  17.454  0.00  0.00    +0.000 A 
ATOM      5  C   UNL     1       8.184   7.288  18.278  0.00  0.00    +0.000 A 
ATOM      6  C   UNL     1       8.065   6.203  19.137  0.00  0.00    +0.000 A 
ATOM      7  C   UNL     1       6.876   5.468  19.165  0.00  0.00    +0.000 A 
ENDBRANCH   1   2
BRANCH   1   8
ATOM      8  C   UNL     1       3.315   5.851  18.996  0.00  0.00    +0.000 A 
ATOM      9  C   UNL     1       2.954   7.092  18.435  0.00  0.00    +0.000 A 
ATOM     10  C   UNL     1       2.048   7.942  19.082  0.00  0.00    +0.000 A 
ATOM     11  C   UNL     1       1.466   7.569  20.288  0.00  0.00    +0.000 A 
ATOM     12  C   UNL     1       1.742   6.317  20.822  0.00  0.00    +0.000 A 
ATOM     13  C   UNL     1       2.628   5.457  20.165  0.00  0.00    +0.000 A 
ENDBRANCH   1   8
BRANCH   1  15
ATOM     14  C   UNL     1       2.811   3.532  16.876  0.00  0.00    +0.000 C 
ATOM     15  C   UNL     1       4.038   4.479  16.882  0.00  0.00    +0.000 C 
BRANCH  15  16
ATOM     16  C   UNL     1       5.219   3.810  16.119  0.00  0.00    +0.000 C 
BRANCH  16  17
ATOM     17  N   UNL     1       5.709   4.540  14.927  0.00  0.00    +0.000 NA
ATOM     18  C   UNL     1       7.150   4.794  14.952  0.00  0.00    +0.000 C 
ATOM     19  C   UNL     1       5.360   3.793  13.715  0.00  0.00    +0.000 C 
ENDBRANCH  16  17
ENDBRANCH  15  16
ENDBRANCH   1  15
BRANCH   1  20
ATOM     20  C   UNL     1       4.650   3.719  19.200  0.00  0.00    +0.000 C 
ATOM     21  N   UNL     1       4.819   2.681  19.895  0.00  0.00    +0.000 NA
ENDBRANCH   1  20
TORSDOF 6
ENDMDL
MODEL 6
REMARK VINA RESULT:      -6.8      0.602      1.631
REMARK  Name = 
REMARK  9 active torsions:
REMARK  status: ('A' for Active; 'I' for Inactive)
REMARK    1  A    between atoms: C_1  and  C_2
REMARK    2  A    between atoms: C_2  and  C_3
REMARK    3  A    between atoms: C_2  and  C_7
REMARK    4  A    between atoms: C_3  and  N_4
REMARK    5  A    between atoms: N_4  and  C_5
REMARK    6  A    between atoms: N_4  and  C_6
REMARK    7  A    between atoms: C_7  and  C_8
REMARK    8  A    between atoms: C_7  and  C_10
REMARK    9  A    between atoms: C_7  and  C_16
REMARK                            x       y       z     vdW  Elec       q    Type
REMARK                         _______ _______ _______ _____ _____    ______ ____
ROOT
ATOM      1  C   UNL     1       3.518   5.238  18.819  0.00  0.00    +0.000 C 
ENDROOT
BRANCH   1   2
ATOM      2  C   UNL     1       2.828   6.642  18.850  0.00  0.00    +0.000 A 
ATOM      3  C   UNL     1       2.792   7.451  17.697  0.00  0.00    +0.000 A 
ATOM      4  C   UNL     1       2.174   8.708  17.715  0.00  0.00    +0.000 A 
ATOM      5  C   UNL     1       1.580   9.187  18.880  0.00  0.00    +0.000 A 
ATOM      6  C   UNL     1       1.595   8.408  20.031  0.00  0.00    +0.000 A 
ATOM      7  C   UNL     1       2.208   7.152  20.010  0.00  0.00    +0.000 A 
ENDBRANCH   1   2
BRANCH   1   8
ATOM      8  C   UNL     1       2.789   4.285  19.828  0.00  0.00    +0.000 A 
ATOM      9  C   UNL     1       3.514   3.417  20.667  0.00  0.00    +0.000 A 
ATOM     10  C   UNL     1       2.861   2.466  21.463  0.00  0.00    +0.000 A 
ATOM     11  C   UNL     1       1.474   2.371  21.456  0.00  0.00    +0.000 A 
ATOM     12  C   UNL     1       0.731   3.268  20.700  0.00  0.00    +0.000 A 
ATOM     13  C   UNL     1       1.380   4.234  19.924  0.00  0.00    +0.000 A 
ENDBRANCH   1   8
BRANCH   1  15
ATOM     14  C   UNL     1       2.463   3.495  17.146  0.00  0.00    +0.000 C 
ATOM     15  C   UNL     1       3.514   4.620  17.331  0.00  0.00    +0.000 C 
BRANCH  15  16
ATOM     16  C   UNL     1       4.915   4.107  16.885  0.00  0.00    +0.000 C 
BRANCH  16  17
ATOM     17  N   UNL     1       5.452   4.706  15.642  0.00  0.00    +0.000 NA
ATOM     18  C   UNL     1       5.291   6.160  15.580  0.00  0.00    +0.000 C 
ATOM     19  C   UNL     1       6.870   4.359  15.502  0.00  0.00    +0.000 C 
ENDBRANCH  16  17
ENDBRANCH  15  16
ENDBRANCH   1  15
BRANCH   1  20
ATOM     20  C   UNL     1       4.975   5.395  19.227  0.00  0.00    +0.000 C 
ATOM     21  N   UNL     1       6.182   5.525  19.565  0.00  0.00    +0.000 NA
ENDBRANCH   1  20
TORSDOF 6
ENDMDL
MODEL 7
REMARK VINA RESULT:      -6.5      1.855      3.706
REMARK  Name = 
REMARK  9 active torsions:
REMARK  status: ('A' for Active; 'I' for Inactive)
REMARK    1  A    between atoms: C_1  and  C_2
REMARK    2  A    between atoms: C_2  and  C_3
REMARK    3  A    between atoms: C_2  and  C_7
REMARK    4  A    between atoms: C_3  and  N_4
REMARK    5  A    between atoms: N_4  and  C_5
REMARK    6  A    between atoms: N_4  and  C_6
REMARK    7  A    between atoms: C_7  and  C_8
REMARK    8  A    between atoms: C_7  and  C_10
REMARK    9  A    between atoms: C_7  and  C_16
REMARK                            x       y       z     vdW  Elec       q    Type
REMARK                         _______ _______ _______ _____ _____    ______ ____
ROOT
ATOM      1  C   UNL     1       4.493   4.856  18.503  0.00  0.00    +0.000 C 
ENDROOT
BRANCH   1   2
ATOM      2  C   UNL     1       5.798   5.717  18.423  0.00  0.00    +0.000 A 
ATOM      3  C   UNL     1       5.882   6.813  17.543  0.00  0.00    +0.000 A 
ATOM      4  C   UNL     1       7.044   7.592  17.467  0.00  0.00    +0.000 A 
ATOM      5  C   UNL     1       8.147   7.293  18.263  0.00  0.00    +0.000 A 
ATOM      6  C   UNL     1       8.090   6.222  19.146  0.00  0.00    +0.000 A 
ATOM      7  C   UNL     1       6.928   5.448  19.224  0.00  0.00    +0.000 A 
ENDBRANCH   1   2
BRANCH   1   8
ATOM      8  C   UNL     1       3.397   5.656  19.287  0.00  0.00    +0.000 A 
ATOM      9  C   UNL     1       2.668   5.062  20.336  0.00  0.00    +0.000 A 
ATOM     10  C   UNL     1       1.593   5.728  20.938  0.00  0.00    +0.000 A 
ATOM     11  C   UNL     1       1.232   7.006  20.525  0.00  0.00    +0.000 A 
ATOM     12  C   UNL     1       1.984   7.647  19.551  0.00  0.00    +0.000 A 
ATOM     13  C   UNL     1       3.073   6.993  18.965  0.00  0.00    +0.000 A 
ENDBRANCH   1   8
BRANCH   1  15
ATOM     14  C   UNL     1       2.679   3.595  17.064  0.00  0.00    +0.000 C 
ATOM     15  C   UNL     1       3.974   4.448  17.034  0.00  0.00    +0.000 C 
BRANCH  15  16
ATOM     16  C   UNL     1       5.060   3.719  16.189  0.00  0.00    +0.000 C 
BRANCH  16  17
ATOM     17  N   UNL     1       5.639   4.504  15.074  0.00  0.00    +0.000 NA
ATOM     18  C   UNL     1       7.094   4.645  15.155  0.00  0.00    +0.000 C 
ATOM     19  C   UNL     1       5.273   3.885  13.795  0.00  0.00    +0.000 C 
ENDBRANCH  16  17
ENDBRANCH  15  16
ENDBRANCH   1  15
BRANCH   1  20
ATOM     20  C   UNL     1       4.801   3.560  19.237  0.00  0.00    +0.000 C 
ATOM     21  N   UNL     1       5.057   2.485  19.845  0.00  0.00    +0.000 NA
ENDBRANCH   1  20
TORSDOF 6
ENDMDL
MODEL 8
REMARK VINA RESULT:      -6.4      1.722      3.975
REMARK  Name = 
REMARK  9 active torsions:
REMARK  status: ('A' for Active; 'I' for Inactive)
REMARK    1  A    between atoms: C_1  and  C_2
REMARK    2  A    between atoms: C_2  and  C_3
REMARK    3  A    between atoms: C_2  and  C_7
REMARK    4  A    between atoms: C_3  and  N_4
REMARK    5  A    between atoms: N_4  and  C_5
REMARK    6  A    between atoms: N_4  and  C_6
REMARK    7  A    between atoms: C_7  and  C_8
REMARK    8  A    between atoms: C_7  and  C_10
REMARK    9  A    between atoms: C_7  and  C_16
REMARK                            x       y       z     vdW  Elec       q    Type
REMARK                         _______ _______ _______ _____ _____    ______ ____
ROOT
ATOM      1  C   UNL     1       4.057   5.378  18.420  0.00  0.00    +0.000 C 
ENDROOT
BRANCH   1   2
ATOM      2  C   UNL     1       5.529   5.909  18.454  0.00  0.00    +0.000 A 
ATOM      3  C   UNL     1       6.473   5.352  19.340  0.00  0.00    +0.000 A 
ATOM      4  C   UNL     1       7.793   5.819  19.375  0.00  0.00    +0.000 A 
ATOM      5  C   UNL     1       8.201   6.849  18.532  0.00  0.00    +0.000 A 
ATOM      6  C   UNL     1       7.293   7.413  17.643  0.00  0.00    +0.000 A 
ATOM      7  C   UNL     1       5.976   6.943  17.606  0.00  0.00    +0.000 A 
ENDBRANCH   1   2
BRANCH   1   8
ATOM      8  C   UNL     1       3.072   6.582  18.616  0.00  0.00    +0.000 A 
ATOM      9  C   UNL     1       2.827   7.501  17.578  0.00  0.00    +0.000 A 
ATOM     10  C   UNL     1       2.062   8.654  17.799  0.00  0.00    +0.000 A 
ATOM     11  C   UNL     1       1.509   8.907  19.049  0.00  0.00    +0.000 A 
ATOM     12  C   UNL     1       1.666   7.977  20.067  0.00  0.00    +0.000 A 
ATOM     13  C   UNL     1       2.410   6.814  19.842  0.00  0.00    +0.000 A 
ENDBRANCH   1   8
BRANCH   1  15
ATOM     14  C   UNL     1       2.392   3.851  17.060  0.00  0.00    +0.000 C 
ATOM     15  C   UNL     1       3.752   4.597  17.044  0.00  0.00    +0.000 C 
BRANCH  15  16
ATOM     16  C   UNL     1       4.886   3.607  16.645  0.00  0.00    +0.000 C 
BRANCH  16  17
ATOM     17  N   UNL     1       5.654   3.968  15.431  0.00  0.00    +0.000 NA
ATOM     18  C   UNL     1       5.169   5.184  14.775  0.00  0.00    +0.000 C 
ATOM     19  C   UNL     1       7.072   4.124  15.775  0.00  0.00    +0.000 C 
ENDBRANCH  16  17
ENDBRANCH  15  16
ENDBRANCH   1  15
BRANCH   1  20
ATOM     20  C   UNL     1       3.868   4.374  19.547  0.00  0.00    +0.000 C 
ATOM     21  N   UNL     1       3.711   3.542  20.481  0.00  0.00    +0.000 NA
ENDBRANCH   1  20
TORSDOF 6
ENDMDL
MODEL 9
REMARK VINA RESULT:      -6.2      0.877      1.711
REMARK  Name = 
REMARK  9 active torsions:
REMARK  status: ('A' for Active; 'I' for Inactive)
REMARK    1  A    between atoms: C_1  and  C_2
REMARK    2  A    between atoms: C_2  and  C_3
REMARK    3  A    between atoms: C_2  and  C_7
REMARK    4  A    between atoms: C_3  and  N_4
REMARK    5  A    between atoms: N_4  and  C_5
REMARK    6  A    between atoms: N_4  and  C_6
REMARK    7  A    between atoms: C_7  and  C_8
REMARK    8  A    between atoms: C_7  and  C_10
REMARK    9  A    between atoms: C_7  and  C_16
REMARK                            x       y       z     vdW  Elec       q    Type
REMARK                         _______ _______ _______ _____ _____    ______ ____
ROOT
ATOM      1  C   UNL     1       3.578   5.320  18.472  0.00  0.00    +0.000 C 
ENDROOT
BRANCH   1   2
ATOM      2  C   UNL     1       2.890   6.714  18.653  0.00  0.00    +0.000 A 
ATOM      3  C   UNL     1       2.868   7.646  17.596  0.00  0.00    +0.000 A 
ATOM      4  C   UNL     1       2.251   8.895  17.748  0.00  0.00    +0.000 A 
ATOM      5  C   UNL     1       1.646   9.243  18.953  0.00  0.00    +0.000 A 
ATOM      6  C   UNL     1       1.647   8.340  20.010  0.00  0.00    +0.000 A 
ATOM      7  C   UNL     1       2.260   7.093  19.856  0.00  0.00    +0.000 A 
ENDBRANCH   1   2
BRANCH   1   8
ATOM      8  C   UNL     1       2.636   4.204  19.044  0.00  0.00    +0.000 A 
ATOM      9  C   UNL     1       2.923   3.561  20.264  0.00  0.00    +0.000 A 
ATOM     10  C   UNL     1       2.162   2.469  20.701  0.00  0.00    +0.000 A 
ATOM     11  C   UNL     1       1.091   2.005  19.946  0.00  0.00    +0.000 A 
ATOM     12  C   UNL     1       0.737   2.671  18.781  0.00  0.00    +0.000 A 
ATOM     13  C   UNL     1       1.480   3.777  18.354  0.00  0.00    +0.000 A 
ENDBRANCH   1   8
BRANCH   1  15
ATOM     14  C   UNL     1       4.329   3.568  16.650  0.00  0.00    +0.000 C 
ATOM     15  C   UNL     1       3.935   5.042  16.926  0.00  0.00    +0.000 C 
BRANCH  15  16
ATOM     16  C   UNL     1       5.043   5.991  16.380  0.00  0.00    +0.000 C 
BRANCH  16  17
ATOM     17  N   UNL     1       6.392   5.393  16.249  0.00  0.00    +0.000 NA
ATOM     18  C   UNL     1       6.757   5.079  14.867  0.00  0.00    +0.000 C 
ATOM     19  C   UNL     1       7.389   6.297  16.830  0.00  0.00    +0.000 C 
ENDBRANCH  16  17
ENDBRANCH  15  16
ENDBRANCH   1  15
BRANCH   1  20
ATOM     20  C   UNL     1       4.894   5.317  19.235  0.00  0.00    +0.000 C 
ATOM     21  N   UNL     1       5.985   5.314  19.867  0.00  0.00    +0.000 NA
ENDBRANCH   1  20
TORSDOF 6
ENDMDL
