MODEL 1
REMARK VINA RESULT:      -7.1      0.000      0.000
REMARK  Name = 
REMARK  2 active torsions:
REMARK  status: ('A' for Active; 'I' for Inactive)
REMARK    1  A    between atoms: N_2  and  C_4
REMARK    2  A    between atoms: C_7  and  N_8
REMARK                            x       y       z     vdW  Elec       q    Type
REMARK                         _______ _______ _______ _____ _____    ______ ____
ROOT
ATOM      1  C   UNL     1       2.784   3.579  20.049  0.00  0.00    +0.000 A 
ATOM      2  C   UNL     1       3.602   2.669  19.380  0.00  0.00    +0.000 A 
ATOM      3  C   UNL     1       4.376   3.110  18.312  0.00  0.00    +0.000 A 
ATOM      4  C   UNL     1       4.337   4.447  17.879  0.00  0.00    +0.000 A 
ATOM      5  C   UNL     1       3.475   5.369  18.570  0.00  0.00    +0.000 A 
ATOM      6  C   UNL     1       3.339   6.716  18.158  0.00  0.00    +0.000 A 
ATOM      7  C   UNL     1       2.556   7.642  18.845  0.00  0.00    +0.000 A 
ATOM      8  C   UNL     1       1.850   7.237  19.963  0.00  0.00    +0.000 A 
ATOM      9  C   UNL     1       1.912   5.905  20.373  0.00  0.00    +0.000 A 
ATOM     10  C   UNL     1       2.703   4.944  19.687  0.00  0.00    +0.000 A 
ENDROOT
BRANCH   4  11
ATOM     11  N   UNL     1       5.137   4.884  16.809  0.00  0.00    +0.000 N 
ATOM     12  C   UNL     1       4.877   4.471  15.422  0.00  0.00    +0.000 C 
ATOM     13  C   UNL     1       6.219   3.957  14.909  0.00  0.00    +0.000 C 
ATOM     14  C   UNL     1       7.220   4.799  15.676  0.00  0.00    +0.000 C 
ATOM     15  C   UNL     1       6.591   4.893  17.063  0.00  0.00    +0.000 C 
ENDBRANCH   4  11
BRANCH   1  17
ATOM     16  O   UNL     1       2.567   2.876  22.224  0.00  0.00    +0.000 OA
ATOM     17  N   UNL     1       1.988   3.051  21.144  0.00  0.00    +0.000 N 
ATOM     18  O   UNL     1       0.801   2.782  20.913  0.00  0.00    +0.000 OA
ENDBRANCH   1  17
TORSDOF 2
ENDMDL
MODEL 2
REMARK VINA RESULT:      -6.9      3.305      5.488
REMARK  Name = 
REMARK  2 active torsions:
REMARK  status: ('A' for Active; 'I' for Inactive)
REMARK    1  A    between atoms: N_2  and  C_4
REMARK    2  A    between atoms: C_7  and  N_8
REMARK                            x       y       z     vdW  Elec       q    Type
REMARK                         _______ _______ _______ _____ _____    ______ ____
ROOT
ATOM      1  C   UNL     1       6.606   5.310  18.562  0.00  0.00    +0.000 A 
ATOM      2  C   UNL     1       5.692   5.139  19.601  0.00  0.00    +0.000 A 
ATOM      3  C   UNL     1       4.464   4.543  19.333  0.00  0.00    +0.000 A 
ATOM      4  C   UNL     1       4.116   4.128  18.035  0.00  0.00    +0.000 A 
ATOM      5  C   UNL     1       5.065   4.327  16.972  0.00  0.00    +0.000 A 
ATOM      6  C   UNL     1       4.765   3.989  15.631  0.00  0.00    +0.000 A 
ATOM      7  C   UNL     1       5.687   4.118  14.594  0.00  0.00    +0.000 A 
ATOM      8  C   UNL     1       6.945   4.625  14.863  0.00  0.00    +0.000 A 
ATOM      9  C   UNL     1       7.265   5.024  16.162  0.00  0.00    +0.000 A 
ATOM     10  C   UNL     1       6.340   4.902  17.234  0.00  0.00    +0.000 A 
ENDROOT
BRANCH   4  11
ATOM     11  N   UNL     1       2.878   3.514  17.780  0.00  0.00    +0.000 N 
ATOM     12  C   UNL     1       1.606   4.238  17.910  0.00  0.00    +0.000 C 
ATOM     13  C   UNL     1       0.737   3.349  18.795  0.00  0.00    +0.000 C 
ATOM     14  C   UNL     1       1.220   1.954  18.451  0.00  0.00    +0.000 C 
ATOM     15  C   UNL     1       2.728   2.143  18.309  0.00  0.00    +0.000 C 
ENDBRANCH   4  11
BRANCH   1  17
ATOM     16  O   UNL     1       8.637   5.319  19.633  0.00  0.00    +0.000 OA
ATOM     17  N   UNL     1       7.863   5.954  18.905  0.00  0.00    +0.000 N 
ATOM     18  O   UNL     1       8.058   7.099  18.475  0.00  0.00    +0.000 OA
ENDBRANCH   1  17
TORSDOF 2
ENDMDL
MODEL 3
REMARK VINA RESULT:      -6.9      3.162      5.515
REMARK  Name = 
REMARK  2 active torsions:
REMARK  status: ('A' for Active; 'I' for Inactive)
REMARK    1  A    between atoms: N_2  and  C_4
REMARK    2  A    between atoms: C_7  and  N_8
REMARK                            x       y       z     vdW  Elec       q    Type
REMARK                         _______ _______ _______ _____ _____    ______ ____
ROOT
ATOM      1  C   UNL     1       5.362   5.146  16.850  0.00  0.00    +0.000 A 
ATOM      2  C   UNL     1       5.457   6.537  16.886  0.00  0.00    +0.000 A 
ATOM      3  C   UNL     1       4.388   7.277  17.379  0.00  0.00    +0.000 A 
ATOM      4  C   UNL     1       3.206   6.656  17.821  0.00  0.00    +0.000 A 
ATOM      5  C   UNL     1       3.118   5.221  17.761  0.00  0.00    +0.000 A 
ATOM      6  C   UNL     1       1.942   4.529  18.134  0.00  0.00    +0.000 A 
ATOM      7  C   UNL     1       1.853   3.138  18.140  0.00  0.00    +0.000 A 
ATOM      8  C   UNL     1       2.941   2.386  17.738  0.00  0.00    +0.000 A 
ATOM      9  C   UNL     1       4.103   3.029  17.308  0.00  0.00    +0.000 A 
ATOM     10  C   UNL     1       4.216   4.445  17.294  0.00  0.00    +0.000 A 
ENDROOT
BRANCH   4  11
ATOM     11  N   UNL     1       2.138   7.415  18.331  0.00  0.00    +0.000 N 
ATOM     12  C   UNL     1       1.680   8.652  17.683  0.00  0.00    +0.000 C 
ATOM     13  C   UNL     1       1.643   9.690  18.800  0.00  0.00    +0.000 C 
ATOM     14  C   UNL     1       1.311   8.857  20.023  0.00  0.00    +0.000 C 
ATOM     15  C   UNL     1       2.122   7.585  19.798  0.00  0.00    +0.000 C 
ENDBRANCH   4  11
BRANCH   1  17
ATOM     16  O   UNL     1       7.531   4.408  17.004  0.00  0.00    +0.000 OA
ATOM     17  N   UNL     1       6.507   4.432  16.309  0.00  0.00    +0.000 N 
ATOM     18  O   UNL     1       6.390   3.931  15.182  0.00  0.00    +0.000 OA
ENDBRANCH   1  17
TORSDOF 2
ENDMDL
MODEL 4
REMARK VINA RESULT:      -6.8      3.153      5.153
REMARK  Name = 
REMARK  2 active torsions:
REMARK  status: ('A' for Active; 'I' for Inactive)
REMARK    1  A    between atoms: N_2  and  C_4
REMARK    2  A    between atoms: C_7  and  N_8
REMARK                            x       y       z     vdW  Elec       q    Type
REMARK                         _______ _______ _______ _____ _____    ______ ____
ROOT
ATOM      1  C   UNL     1       5.260   5.033  16.585  0.00  0.00    +0.000 A 
ATOM      2  C   UNL     1       5.362   3.646  16.700  0.00  0.00    +0.000 A 
ATOM      3  C   UNL     1       4.479   2.968  17.534  0.00  0.00    +0.000 A 
ATOM      4  C   UNL     1       3.502   3.651  18.280  0.00  0.00    +0.000 A 
ATOM      5  C   UNL     1       3.422   5.083  18.162  0.00  0.00    +0.000 A 
ATOM      6  C   UNL     1       2.504   5.845  18.924  0.00  0.00    +0.000 A 
ATOM      7  C   UNL     1       2.368   7.225  18.785  0.00  0.00    +0.000 A 
ATOM      8  C   UNL     1       3.179   7.900  17.891  0.00  0.00    +0.000 A 
ATOM      9  C   UNL     1       4.137   7.196  17.160  0.00  0.00    +0.000 A 
ATOM     10  C   UNL     1       4.293   5.790  17.286  0.00  0.00    +0.000 A 
ENDROOT
BRANCH   4  11
ATOM     11  N   UNL     1       2.606   2.953  19.108  0.00  0.00    +0.000 N 
ATOM     12  C   UNL     1       1.151   3.007  18.904  0.00  0.00    +0.000 C 
ATOM     13  C   UNL     1       0.577   3.365  20.272  0.00  0.00    +0.000 C 
ATOM     14  C   UNL     1       1.568   2.735  21.231  0.00  0.00    +0.000 C 
ATOM     15  C   UNL     1       2.910   2.997  20.552  0.00  0.00    +0.000 C 
ENDBRANCH   4  11
BRANCH   1  17
ATOM     16  O   UNL     1       5.917   5.777  14.514  0.00  0.00    +0.000 OA
ATOM     17  N   UNL     1       6.222   5.682  15.710  0.00  0.00    +0.000 N 
ATOM     18  O   UNL     1       7.289   6.063  16.212  0.00  0.00    +0.000 OA
ENDBRANCH   1  17
TORSDOF 2
ENDMDL
MODEL 5
REMARK VINA RESULT:      -6.7      0.998      1.050
REMARK  Name = 
REMARK  2 active torsions:
REMARK  status: ('A' for Active; 'I' for Inactive)
REMARK    1  A    between atoms: N_2  and  C_4
REMARK    2  A    between atoms: C_7  and  N_8
REMARK                            x       y       z     vdW  Elec       q    Type
REMARK                         _______ _______ _______ _____ _____    ______ ____
ROOT
ATOM      1  C   UNL     1       2.312   3.264  18.821  0.00  0.00    +0.000 A 
ATOM      2  C   UNL     1       3.025   2.408  17.983  0.00  0.00    +0.000 A 
ATOM      3  C   UNL     1       3.964   2.943  17.107  0.00  0.00    +0.000 A 
ATOM      4  C   UNL     1       4.194   4.328  17.033  0.00  0.00    +0.000 A 
ATOM      5  C   UNL     1       3.437   5.199  17.893  0.00  0.00    +0.000 A 
ATOM      6  C   UNL     1       3.572   6.606  17.836  0.00  0.00    +0.000 A 
ATOM      7  C   UNL     1       2.894   7.466  18.698  0.00  0.00    +0.000 A 
ATOM      8  C   UNL     1       2.024   6.941  19.636  0.00  0.00    +0.000 A 
ATOM      9  C   UNL     1       1.819   5.562  19.690  0.00  0.00    +0.000 A 
ATOM     10  C   UNL     1       2.499   4.667  18.821  0.00  0.00    +0.000 A 
ENDROOT
BRANCH   4  11
ATOM     11  N   UNL     1       5.156   4.855  16.154  0.00  0.00    +0.000 N 
ATOM     12  C   UNL     1       5.082   4.648  14.701  0.00  0.00    +0.000 C 
ATOM     13  C   UNL     1       6.461   4.126  14.308  0.00  0.00    +0.000 C 
ATOM     14  C   UNL     1       7.375   4.795  15.316  0.00  0.00    +0.000 C 
ATOM     15  C   UNL     1       6.558   4.741  16.603  0.00  0.00    +0.000 C 
ENDBRANCH   4  11
BRANCH   1  17
ATOM     16  O   UNL     1       1.695   2.409  20.861  0.00  0.00    +0.000 OA
ATOM     17  N   UNL     1       1.335   2.645  19.700  0.00  0.00    +0.000 N 
ATOM     18  O   UNL     1       0.227   2.366  19.222  0.00  0.00    +0.000 OA
ENDBRANCH   1  17
TORSDOF 2
ENDMDL
MODEL 6
REMARK VINA RESULT:      -6.6      2.480      3.678
REMARK  Name = 
REMARK  2 active torsions:
REMARK  status: ('A' for Active; 'I' for Inactive)
REMARK    1  A    between atoms: N_2  and  C_4
REMARK    2  A    between atoms: C_7  and  N_8
REMARK                            x       y       z     vdW  Elec       q    Type
REMARK                         _______ _______ _______ _____ _____    ______ ____
ROOT
ATOM      1  C   UNL     1       3.010   6.711  18.170  0.00  0.00    +0.000 A 
ATOM      2  C   UNL     1       4.052   7.338  17.487  0.00  0.00    +0.000 A 
ATOM      3  C   UNL     1       4.889   6.575  16.679  0.00  0.00    +0.000 A 
ATOM      4  C   UNL     1       4.722   5.184  16.553  0.00  0.00    +0.000 A 
ATOM      5  C   UNL     1       3.652   4.552  17.278  0.00  0.00    +0.000 A 
ATOM      6  C   UNL     1       3.456   3.150  17.247  0.00  0.00    +0.000 A 
ATOM      7  C   UNL     1       2.393   2.522  17.893  0.00  0.00    +0.000 A 
ATOM      8  C   UNL     1       1.499   3.280  18.626  0.00  0.00    +0.000 A 
ATOM      9  C   UNL     1       1.687   4.659  18.730  0.00  0.00    +0.000 A 
ATOM     10  C   UNL     1       2.763   5.321  18.080  0.00  0.00    +0.000 A 
ENDROOT
BRANCH   4  11
ATOM     11  N   UNL     1       5.566   4.427  15.723  0.00  0.00    +0.000 N 
ATOM     12  C   UNL     1       7.025   4.600  15.727  0.00  0.00    +0.000 C 
ATOM     13  C   UNL     1       7.402   4.785  14.260  0.00  0.00    +0.000 C 
ATOM     14  C   UNL     1       6.358   3.958  13.536  0.00  0.00    +0.000 C 
ATOM     15  C   UNL     1       5.090   4.236  14.338  0.00  0.00    +0.000 C 
ENDBRANCH   4  11
BRANCH   1  17
ATOM     16  O   UNL     1       1.609   8.508  18.454  0.00  0.00    +0.000 OA
ATOM     17  N   UNL     1       2.182   7.561  19.009  0.00  0.00    +0.000 N 
ATOM     18  O   UNL     1       2.134   7.302  20.219  0.00  0.00    +0.000 OA
ENDBRANCH   1  17
TORSDOF 2
ENDMDL
MODEL 7
REMARK VINA RESULT:      -6.5      2.247      4.834
REMARK  Name = 
REMARK  2 active torsions:
REMARK  status: ('A' for Active; 'I' for Inactive)
REMARK    1  A    between atoms: N_2  and  C_4
REMARK    2  A    between atoms: C_7  and  N_8
REMARK                            x       y       z     vdW  Elec       q    Type
REMARK                         _______ _______ _______ _____ _____    ______ ____
ROOT
ATOM      1  C   UNL     1       2.955   3.803  18.581  0.00  0.00    +0.000 A 
ATOM      2  C   UNL     1       2.045   4.236  19.545  0.00  0.00    +0.000 A 
ATOM      3  C   UNL     1       1.835   5.600  19.716  0.00  0.00    +0.000 A 
ATOM      4  C   UNL     1       2.535   6.552  18.953  0.00  0.00    +0.000 A 
ATOM      5  C   UNL     1       3.483   6.089  17.975  0.00  0.00    +0.000 A 
ATOM      6  C   UNL     1       4.266   6.986  17.210  0.00  0.00    +0.000 A 
ATOM      7  C   UNL     1       5.147   6.562  16.217  0.00  0.00    +0.000 A 
ATOM      8  C   UNL     1       5.298   5.210  15.974  0.00  0.00    +0.000 A 
ATOM      9  C   UNL     1       4.587   4.287  16.743  0.00  0.00    +0.000 A 
ATOM     10  C   UNL     1       3.684   4.696  17.761  0.00  0.00    +0.000 A 
ENDROOT
BRANCH   4  11
ATOM     11  N   UNL     1       2.303   7.928  19.125  0.00  0.00    +0.000 N 
ATOM     12  C   UNL     1       1.676   8.468  20.340  0.00  0.00    +0.000 C 
ATOM     13  C   UNL     1       0.542   9.355  19.834  0.00  0.00    +0.000 C 
ATOM     14  C   UNL     1       1.075   9.863  18.508  0.00  0.00    +0.000 C 
ATOM     15  C   UNL     1       1.786   8.638  17.938  0.00  0.00    +0.000 C 
ENDBRANCH   4  11
BRANCH   1  17
ATOM     16  O   UNL     1       2.430   1.775  17.641  0.00  0.00    +0.000 OA
ATOM     17  N   UNL     1       3.141   2.366  18.464  0.00  0.00    +0.000 N 
ATOM     18  O   UNL     1       3.967   1.831  19.216  0.00  0.00    +0.000 OA
ENDBRANCH   1  17
TORSDOF 2
ENDMDL
MODEL 8
REMARK VINA RESULT:      -6.5      3.324      5.102
REMARK  Name = 
REMARK  2 active torsions:
REMARK  status: ('A' for Active; 'I' for Inactive)
REMARK    1  A    between atoms: N_2  and  C_4
REMARK    2  A    between atoms: C_7  and  N_8
REMARK                            x       y       z     vdW  Elec       q    Type
REMARK                         _______ _______ _______ _____ _____    ______ ____
ROOT
ATOM      1  C   UNL     1       6.028   5.746  17.737  0.00  0.00    +0.000 A 
ATOM      2  C   UNL     1       6.390   4.495  18.236  0.00  0.00    +0.000 A 
ATOM      3  C   UNL     1       5.435   3.720  18.883  0.00  0.00    +0.000 A 
ATOM      4  C   UNL     1       4.117   4.178  19.065  0.00  0.00    +0.000 A 
ATOM      5  C   UNL     1       3.765   5.478  18.560  0.00  0.00    +0.000 A 
ATOM      6  C   UNL     1       2.477   6.031  18.755  0.00  0.00    +0.000 A 
ATOM      7  C   UNL     1       2.094   7.261  18.225  0.00  0.00    +0.000 A 
ATOM      8  C   UNL     1       3.009   8.003  17.500  0.00  0.00    +0.000 A 
ATOM      9  C   UNL     1       4.308   7.522  17.331  0.00  0.00    +0.000 A 
ATOM     10  C   UNL     1       4.719   6.270  17.863  0.00  0.00    +0.000 A 
ENDROOT
BRANCH   4  11
ATOM     11  N   UNL     1       3.156   3.378  19.708  0.00  0.00    +0.000 N 
ATOM     12  C   UNL     1       2.192   2.561  18.958  0.00  0.00    +0.000 C 
ATOM     13  C   UNL     1       0.831   2.923  19.545  0.00  0.00    +0.000 C 
ATOM     14  C   UNL     1       1.162   3.252  20.987  0.00  0.00    +0.000 C 
ATOM     15  C   UNL     1       2.487   3.999  20.869  0.00  0.00    +0.000 C 
ENDBRANCH   4  11
BRANCH   1  17
ATOM     16  O   UNL     1       7.355   6.205  15.920  0.00  0.00    +0.000 OA
ATOM     17  N   UNL     1       7.077   6.513  17.087  0.00  0.00    +0.000 N 
ATOM     18  O   UNL     1       7.640   7.394  17.750  0.00  0.00    +0.000 OA
ENDBRANCH   1  17
TORSDOF 2
ENDMDL
MODEL 9
REMARK VINA RESULT:      -6.4      2.537      3.550
REMARK  Name = 
REMARK  2 active torsions:
REMARK  status: ('A' for Active; 'I' for Inactive)
REMARK    1  A    between atoms: N_2  and  C_4
REMARK    2  A    between atoms: C_7  and  N_8
REMARK                            x       y       z     vdW  Elec       q    Type
REMARK                         _______ _______ _______ _____ _____    ______ ____
ROOT
ATOM      1  C   UNL     1       2.534   7.335  18.976  0.00  0.00    +0.000 A 
ATOM      2  C   UNL     1       3.323   7.755  17.906  0.00  0.00    +0.000 A 
ATOM      3  C   UNL     1       4.191   6.848  17.306  0.00  0.00    +0.000 A 
ATOM      4  C   UNL     1       4.305   5.525  17.768  0.00  0.00    +0.000 A 
ATOM      5  C   UNL     1       3.495   5.113  18.884  0.00  0.00    +0.000 A 
ATOM      6  C   UNL     1       3.596   3.816  19.442  0.00  0.00    +0.000 A 
ATOM      7  C   UNL     1       2.782   3.376  20.483  0.00  0.00    +0.000 A 
ATOM      8  C   UNL     1       1.851   4.240  21.030  0.00  0.00    +0.000 A 
ATOM      9  C   UNL     1       1.756   5.546  20.548  0.00  0.00    +0.000 A 
ATOM     10  C   UNL     1       2.576   6.017  19.487  0.00  0.00    +0.000 A 
ENDROOT
BRANCH   4  11
ATOM     11  N   UNL     1       5.175   4.614  17.144  0.00  0.00    +0.000 N 
ATOM     12  C   UNL     1       6.632   4.676  17.325  0.00  0.00    +0.000 C 
ATOM     13  C   UNL     1       7.204   4.659  15.911  0.00  0.00    +0.000 C 
ATOM     14  C   UNL     1       6.189   3.833  15.146  0.00  0.00    +0.000 C 
ATOM     15  C   UNL     1       4.860   4.297  15.736  0.00  0.00    +0.000 C 
ENDBRANCH   4  11
BRANCH   1  17
ATOM     16  O   UNL     1       1.567   8.335  20.803  0.00  0.00    +0.000 OA
ATOM     17  N   UNL     1       1.661   8.335  19.568  0.00  0.00    +0.000 N 
ATOM     18  O   UNL     1       1.050   9.091  18.801  0.00  0.00    +0.000 OA
ENDBRANCH   1  17
TORSDOF 2
ENDMDL
