MODEL 1
REMARK VINA RESULT:      -9.0      0.000      0.000
REMARK  Name = 
REMARK  7 active torsions:
REMARK  status: ('A' for Active; 'I' for Inactive)
REMARK    1  A    between atoms: C_1  and  C_2
REMARK    2  A    between atoms: C_2  and  N_3
REMARK    3  A    between atoms: N_3  and  C_4
REMARK    4  A    between atoms: C_4  and  C_5
REMARK    5  A    between atoms: C_6  and  C_8
REMARK    6  A    between atoms: C_11  and  C_12
REMARK    7  A    between atoms: C_12  and  C_19
REMARK                            x       y       z     vdW  Elec       q    Type
REMARK                         _______ _______ _______ _____ _____    ______ ____
ROOT
ATOM      1  C   UNL     1       3.124   5.945  18.878  0.00  0.00    +0.000 C 
ATOM      2  C   UNL     1       2.896   4.896  19.709  0.00  0.00    +0.000 C 
ATOM      3  C   UNL     1       1.835   4.848  20.801  0.00  0.00    +0.000 C 
ATOM      4  C   UNL     1       0.938   3.605  20.645  0.00  0.00    +0.000 C 
ATOM      5  N   UNL     1       1.696   2.348  20.586  0.00  0.00    +0.000 NA
ATOM      6  C   UNL     1       2.696   2.392  19.513  0.00  0.00    +0.000 C 
ATOM      7  C   UNL     1       3.659   3.573  19.679  0.00  0.00    +0.000 C 
ATOM      8  H   UNL     1       1.053   1.575  20.415  0.00  0.00    +0.000 HD
ENDROOT
BRANCH   1   9
ATOM      9  C   UNL     1       4.173   5.796  17.839  0.00  0.00    +0.000 A 
ATOM     10  C   UNL     1       4.042   4.812  16.852  0.00  0.00    +0.000 A 
ATOM     11  C   UNL     1       5.082   4.578  15.952  0.00  0.00    +0.000 A 
ATOM     12  C   UNL     1       6.259   5.328  16.028  0.00  0.00    +0.000 A 
ATOM     13 CL   UNL     1       7.523   4.951  14.913  0.00  0.00    +0.000 Cl
ATOM     14  C   UNL     1       6.386   6.330  16.998  0.00  0.00    +0.000 A 
ATOM     15 CL   UNL     1       7.814   7.292  17.153  0.00  0.00    +0.000 Cl
ATOM     16  C   UNL     1       5.344   6.565  17.899  0.00  0.00    +0.000 A 
ENDBRANCH   1   9
BRANCH   1  20
ATOM     17  C   UNL     1       0.938   9.641  19.241  0.00  0.00    +0.000 A 
ATOM     18  C   UNL     1       1.469   9.234  18.013  0.00  0.00    +0.000 A 
ATOM     19  C   UNL     1       2.144   8.011  17.893  0.00  0.00    +0.000 A 
ATOM     20  C   UNL     1       2.366   7.211  19.019  0.00  0.00    +0.000 A 
ATOM     21  C   UNL     1       1.877   7.636  20.261  0.00  0.00    +0.000 A 
ATOM     22  C   UNL     1       1.168   8.841  20.369  0.00  0.00    +0.000 A 
BRANCH  17  24
ATOM     23  N   UNL     1      -1.073  11.166  18.957  0.00  0.00    +0.000 N 
ATOM     24  C   UNL     1       0.240  10.953  19.426  0.00  0.00    +0.000 C 
ATOM     25  O   UNL     1       0.876  11.835  20.009  0.00  0.00    +0.000 OA
BRANCH  23  27
ATOM     26  C   UNL     1      -2.528  12.779  20.183  0.00  0.00    +0.000 C 
ATOM     27  C   UNL     1      -1.576  12.544  19.018  0.00  0.00    +0.000 C 
ENDBRANCH  23  27
BRANCH  23  28
ATOM     28  C   UNL     1      -1.896  10.119  18.335  0.00  0.00    +0.000 C 
ATOM     29  C   UNL     1      -2.168  10.192  16.839  0.00  0.00    +0.000 C 
ENDBRANCH  23  28
ENDBRANCH  17  24
ENDBRANCH   1  20
TORSDOF 5
ENDMDL
MODEL 2
REMARK VINA RESULT:      -8.5      1.133      1.879
REMARK  Name = 
REMARK  7 active torsions:
REMARK  status: ('A' for Active; 'I' for Inactive)
REMARK    1  A    between atoms: C_1  and  C_2
REMARK    2  A    between atoms: C_2  and  N_3
REMARK    3  A    between atoms: N_3  and  C_4
REMARK    4  A    between atoms: C_4  and  C_5
REMARK    5  A    between atoms: C_6  and  C_8
REMARK    6  A    between atoms: C_11  and  C_12
REMARK    7  A    between atoms: C_12  and  C_19
REMARK                            x       y       z     vdW  Elec       q    Type
REMARK                         _______ _______ _______ _____ _____    ______ ____
ROOT
ATOM      1  C   UNL     1       3.118   6.099  18.854  0.00  0.00    +0.000 C 
ATOM      2  C   UNL     1       2.914   5.070  19.716  0.00  0.00    +0.000 C 
ATOM      3  C   UNL     1       1.840   5.020  20.795  0.00  0.00    +0.000 C 
ATOM      4  C   UNL     1       0.988   3.743  20.668  0.00  0.00    +0.000 C 
ATOM      5  N   UNL     1       1.789   2.511  20.659  0.00  0.00    +0.000 NA
ATOM      6  C   UNL     1       2.801   2.555  19.598  0.00  0.00    +0.000 C 
ATOM      7  C   UNL     1       3.721   3.774  19.738  0.00  0.00    +0.000 C 
ATOM      8  H   UNL     1       1.176   1.711  20.505  0.00  0.00    +0.000 HD
ENDROOT
BRANCH   1   9
ATOM      9  C   UNL     1       4.185   5.954  17.834  0.00  0.00    +0.000 A 
ATOM     10  C   UNL     1       4.073   4.970  16.844  0.00  0.00    +0.000 A 
ATOM     11  C   UNL     1       5.129   4.740  15.962  0.00  0.00    +0.000 A 
ATOM     12  C   UNL     1       6.303   5.492  16.060  0.00  0.00    +0.000 A 
ATOM     13 CL   UNL     1       7.588   5.119  14.966  0.00  0.00    +0.000 Cl
ATOM     14  C   UNL     1       6.411   6.492  17.033  0.00  0.00    +0.000 A 
ATOM     15 CL   UNL     1       7.835   7.456  17.215  0.00  0.00    +0.000 Cl
ATOM     16  C   UNL     1       5.353   6.724  17.917  0.00  0.00    +0.000 A 
ENDBRANCH   1   9
BRANCH   1  20
ATOM     17  C   UNL     1       0.768   9.699  19.169  0.00  0.00    +0.000 A 
ATOM     18  C   UNL     1       1.077   8.936  20.300  0.00  0.00    +0.000 A 
ATOM     19  C   UNL     1       1.876   7.789  20.196  0.00  0.00    +0.000 A 
ATOM     20  C   UNL     1       2.315   7.342  18.946  0.00  0.00    +0.000 A 
ATOM     21  C   UNL     1       1.969   8.075  17.803  0.00  0.00    +0.000 A 
ATOM     22  C   UNL     1       1.203   9.244  17.916  0.00  0.00    +0.000 A 
BRANCH  17  24
ATOM     23  N   UNL     1       0.427  12.205  19.384  0.00  0.00    +0.000 N 
ATOM     24  C   UNL     1      -0.109  10.910  19.224  0.00  0.00    +0.000 C 
ATOM     25  O   UNL     1      -1.323  10.714  19.124  0.00  0.00    +0.000 OA
BRANCH  23  27
ATOM     26  C   UNL     1       0.058  14.672  19.398  0.00  0.00    +0.000 C 
ATOM     27  C   UNL     1      -0.536  13.288  19.623  0.00  0.00    +0.000 C 
ENDBRANCH  23  27
BRANCH  23  28
ATOM     28  C   UNL     1       1.868  12.492  19.422  0.00  0.00    +0.000 C 
ATOM     29  C   UNL     1       2.617  12.660  18.108  0.00  0.00    +0.000 C 
ENDBRANCH  23  28
ENDBRANCH  17  24
ENDBRANCH   1  20
TORSDOF 5
ENDMDL
MODEL 3
REMARK VINA RESULT:      -8.5      0.699      1.395
REMARK  Name = 
REMARK  7 active torsions:
REMARK  status: ('A' for Active; 'I' for Inactive)
REMARK    1  A    between atoms: C_1  and  C_2
REMARK    2  A    between atoms: C_2  and  N_3
REMARK    3  A    between atoms: N_3  and  C_4
REMARK    4  A    between atoms: C_4  and  C_5
REMARK    5  A    between atoms: C_6  and  C_8
REMARK    6  A    between atoms: C_11  and  C_12
REMARK    7  A    between atoms: C_12  and  C_19
REMARK                            x       y       z     vdW  Elec       q    Type
REMARK                         _______ _______ _______ _____ _____    ______ ____
ROOT
ATOM      1  C   UNL     1       3.311   5.754  18.752  0.00  0.00    +0.000 C 
ATOM      2  C   UNL     1       2.939   4.708  19.533  0.00  0.00    +0.000 C 
ATOM      3  C   UNL     1       1.762   4.700  20.499  0.00  0.00    +0.000 C 
ATOM      4  C   UNL     1       0.828   3.507  20.223  0.00  0.00    +0.000 C 
ATOM      5  N   UNL     1       1.524   2.213  20.225  0.00  0.00    +0.000 NA
ATOM      6  C   UNL     1       2.639   2.220  19.270  0.00  0.00    +0.000 C 
ATOM      7  C   UNL     1       3.634   3.348  19.563  0.00  0.00    +0.000 C 
ATOM      8  H   UNL     1       0.868   1.477  19.969  0.00  0.00    +0.000 HD
ENDROOT
BRANCH   1   9
ATOM      9  C   UNL     1       4.460   5.565  17.833  0.00  0.00    +0.000 A 
ATOM     10  C   UNL     1       5.702   6.130  18.145  0.00  0.00    +0.000 A 
ATOM     11  C   UNL     1       6.751   6.069  17.227  0.00  0.00    +0.000 A 
ATOM     12  C   UNL     1       6.568   5.442  15.992  0.00  0.00    +0.000 A 
ATOM     13 CL   UNL     1       7.895   5.447  14.886  0.00  0.00    +0.000 Cl
ATOM     14  C   UNL     1       5.335   4.855  15.684  0.00  0.00    +0.000 A 
ATOM     15 CL   UNL     1       5.037   4.067  14.174  0.00  0.00    +0.000 Cl
ATOM     16  C   UNL     1       4.284   4.915  16.604  0.00  0.00    +0.000 A 
ENDBRANCH   1   9
BRANCH   1  20
ATOM     17  C   UNL     1       1.280   9.551  18.937  0.00  0.00    +0.000 A 
ATOM     18  C   UNL     1       1.857   9.098  17.747  0.00  0.00    +0.000 A 
ATOM     19  C   UNL     1       2.481   7.845  17.683  0.00  0.00    +0.000 A 
ATOM     20  C   UNL     1       2.605   7.055  18.832  0.00  0.00    +0.000 A 
ATOM     21  C   UNL     1       2.069   7.524  20.039  0.00  0.00    +0.000 A 
ATOM     22  C   UNL     1       1.412   8.762  20.088  0.00  0.00    +0.000 A 
BRANCH  17  24
ATOM     23  N   UNL     1      -0.716  11.105  18.714  0.00  0.00    +0.000 N 
ATOM     24  C   UNL     1       0.634  10.896  19.064  0.00  0.00    +0.000 C 
ATOM     25  O   UNL     1       1.348  11.809  19.488  0.00  0.00    +0.000 OA
BRANCH  23  27
ATOM     26  C   UNL     1      -2.050  12.855  19.888  0.00  0.00    +0.000 C 
ATOM     27  C   UNL     1      -1.180  12.498  18.690  0.00  0.00    +0.000 C 
ENDBRANCH  23  27
BRANCH  23  28
ATOM     28  C   UNL     1      -1.623  10.030  18.286  0.00  0.00    +0.000 C 
ATOM     29  C   UNL     1      -2.067   9.980  16.832  0.00  0.00    +0.000 C 
ENDBRANCH  23  28
ENDBRANCH  17  24
ENDBRANCH   1  20
TORSDOF 5
ENDMDL
MODEL 4
REMARK VINA RESULT:      -8.4      0.451      1.100
REMARK  Name = 
REMARK  7 active torsions:
REMARK  status: ('A' for Active; 'I' for Inactive)
REMARK    1  A    between atoms: C_1  and  C_2
REMARK    2  A    between atoms: C_2  and  N_3
REMARK    3  A    between atoms: N_3  and  C_4
REMARK    4  A    between atoms: C_4  and  C_5
REMARK    5  A    between atoms: C_6  and  C_8
REMARK    6  A    between atoms: C_11  and  C_12
REMARK    7  A    between atoms: C_12  and  C_19
REMARK                            x       y       z     vdW  Elec       q    Type
REMARK                         _______ _______ _______ _____ _____    ______ ____
ROOT
ATOM      1  C   UNL     1       3.147   5.853  18.938  0.00  0.00    +0.000 C 
ATOM      2  C   UNL     1       2.895   4.770  19.717  0.00  0.00    +0.000 C 
ATOM      3  C   UNL     1       1.844   4.697  20.817  0.00  0.00    +0.000 C 
ATOM      4  C   UNL     1       0.908   3.491  20.608  0.00  0.00    +0.000 C 
ATOM      5  N   UNL     1       1.627   2.217  20.476  0.00  0.00    +0.000 NA
ATOM      6  C   UNL     1       2.617   2.286  19.395  0.00  0.00    +0.000 C 
ATOM      7  C   UNL     1       3.617   3.428  19.610  0.00  0.00    +0.000 C 
ATOM      8  H   UNL     1       0.960   1.473  20.273  0.00  0.00    +0.000 HD
ENDROOT
BRANCH   1   9
ATOM      9  C   UNL     1       4.180   5.727  17.881  0.00  0.00    +0.000 A 
ATOM     10  C   UNL     1       4.034   4.766  16.874  0.00  0.00    +0.000 A 
ATOM     11  C   UNL     1       5.060   4.552  15.954  0.00  0.00    +0.000 A 
ATOM     12  C   UNL     1       6.239   5.299  16.030  0.00  0.00    +0.000 A 
ATOM     13 CL   UNL     1       7.486   4.946  14.888  0.00  0.00    +0.000 Cl
ATOM     14  C   UNL     1       6.381   6.278  17.020  0.00  0.00    +0.000 A 
ATOM     15 CL   UNL     1       7.813   7.235  17.177  0.00  0.00    +0.000 Cl
ATOM     16  C   UNL     1       5.353   6.493  17.942  0.00  0.00    +0.000 A 
ENDBRANCH   1   9
BRANCH   1  20
ATOM     17  C   UNL     1       1.038   9.552  19.609  0.00  0.00    +0.000 A 
ATOM     18  C   UNL     1       1.193   8.612  20.633  0.00  0.00    +0.000 A 
ATOM     19  C   UNL     1       1.914   7.430  20.419  0.00  0.00    +0.000 A 
ATOM     20  C   UNL     1       2.429   7.132  19.153  0.00  0.00    +0.000 A 
ATOM     21  C   UNL     1       2.236   8.047  18.110  0.00  0.00    +0.000 A 
ATOM     22  C   UNL     1       1.548   9.247  18.339  0.00  0.00    +0.000 A 
BRANCH  17  24
ATOM     23  N   UNL     1      -0.867  11.102  18.963  0.00  0.00    +0.000 N 
ATOM     24  C   UNL     1       0.247  10.811  19.778  0.00  0.00    +0.000 C 
ATOM     25  O   UNL     1       0.624  11.581  20.667  0.00  0.00    +0.000 OA
BRANCH  23  27
ATOM     26  C   UNL     1      -0.683  13.492  18.276  0.00  0.00    +0.000 C 
ATOM     27  C   UNL     1      -1.438  12.449  19.088  0.00  0.00    +0.000 C 
ENDBRANCH  23  27
BRANCH  23  28
ATOM     28  C   UNL     1      -1.400  10.177  17.953  0.00  0.00    +0.000 C 
ATOM     29  C   UNL     1      -2.903  10.142  17.712  0.00  0.00    +0.000 C 
ENDBRANCH  23  28
ENDBRANCH  17  24
ENDBRANCH   1  20
TORSDOF 5
ENDMDL
MODEL 5
REMARK VINA RESULT:      -8.4      1.225      1.688
REMARK  Name = 
REMARK  7 active torsions:
REMARK  status: ('A' for Active; 'I' for Inactive)
REMARK    1  A    between atoms: C_1  and  C_2
REMARK    2  A    between atoms: C_2  and  N_3
REMARK    3  A    between atoms: N_3  and  C_4
REMARK    4  A    between atoms: C_4  and  C_5
REMARK    5  A    between atoms: C_6  and  C_8
REMARK    6  A    between atoms: C_11  and  C_12
REMARK    7  A    between atoms: C_12  and  C_19
REMARK                            x       y       z     vdW  Elec       q    Type
REMARK                         _______ _______ _______ _____ _____    ______ ____
ROOT
ATOM      1  C   UNL     1       3.117   6.071  18.875  0.00  0.00    +0.000 C 
ATOM      2  C   UNL     1       2.924   5.040  19.738  0.00  0.00    +0.000 C 
ATOM      3  C   UNL     1       1.860   4.987  20.827  0.00  0.00    +0.000 C 
ATOM      4  C   UNL     1       1.010   3.708  20.707  0.00  0.00    +0.000 C 
ATOM      5  N   UNL     1       1.813   2.478  20.689  0.00  0.00    +0.000 NA
ATOM      6  C   UNL     1       2.815   2.525  19.618  0.00  0.00    +0.000 C 
ATOM      7  C   UNL     1       3.734   3.746  19.750  0.00  0.00    +0.000 C 
ATOM      8  H   UNL     1       1.200   1.677  20.540  0.00  0.00    +0.000 HD
ENDROOT
BRANCH   1   9
ATOM      9  C   UNL     1       4.174   5.929  17.844  0.00  0.00    +0.000 A 
ATOM     10  C   UNL     1       4.052   4.951  16.850  0.00  0.00    +0.000 A 
ATOM     11  C   UNL     1       5.100   4.723  15.958  0.00  0.00    +0.000 A 
ATOM     12  C   UNL     1       6.276   5.473  16.049  0.00  0.00    +0.000 A 
ATOM     13 CL   UNL     1       7.550   5.103  14.942  0.00  0.00    +0.000 Cl
ATOM     14  C   UNL     1       6.395   6.468  17.026  0.00  0.00    +0.000 A 
ATOM     15 CL   UNL     1       7.821   7.429  17.200  0.00  0.00    +0.000 Cl
ATOM     16  C   UNL     1       5.344   6.697  17.920  0.00  0.00    +0.000 A 
ENDBRANCH   1   9
BRANCH   1  20
ATOM     17  C   UNL     1       0.792   9.692  19.117  0.00  0.00    +0.000 A 
ATOM     18  C   UNL     1       1.278   9.226  17.891  0.00  0.00    +0.000 A 
ATOM     19  C   UNL     1       1.999   8.026  17.814  0.00  0.00    +0.000 A 
ATOM     20  C   UNL     1       2.312   7.312  18.975  0.00  0.00    +0.000 A 
ATOM     21  C   UNL     1       1.869   7.799  20.212  0.00  0.00    +0.000 A 
ATOM     22  C   UNL     1       1.114   8.978  20.280  0.00  0.00    +0.000 A 
BRANCH  17  24
ATOM     23  N   UNL     1       0.711  12.228  19.213  0.00  0.00    +0.000 N 
ATOM     24  C   UNL     1       0.048  10.984  19.255  0.00  0.00    +0.000 C 
ATOM     25  O   UNL     1      -1.174  10.900  19.408  0.00  0.00    +0.000 OA
BRANCH  23  27
ATOM     26  C   UNL     1       0.046  13.816  21.018  0.00  0.00    +0.000 C 
ATOM     27  C   UNL     1      -0.090  13.410  19.557  0.00  0.00    +0.000 C 
ENDBRANCH  23  27
BRANCH  23  28
ATOM     28  C   UNL     1       2.149  12.377  18.948  0.00  0.00    +0.000 C 
ATOM     29  C   UNL     1       2.621  13.556  18.109  0.00  0.00    +0.000 C 
ENDBRANCH  23  28
ENDBRANCH  17  24
ENDBRANCH   1  20
TORSDOF 5
ENDMDL
MODEL 6
REMARK VINA RESULT:      -8.2      1.104      1.936
REMARK  Name = 
REMARK  7 active torsions:
REMARK  status: ('A' for Active; 'I' for Inactive)
REMARK    1  A    between atoms: C_1  and  C_2
REMARK    2  A    between atoms: C_2  and  N_3
REMARK    3  A    between atoms: N_3  and  C_4
REMARK    4  A    between atoms: C_4  and  C_5
REMARK    5  A    between atoms: C_6  and  C_8
REMARK    6  A    between atoms: C_11  and  C_12
REMARK    7  A    between atoms: C_12  and  C_19
REMARK                            x       y       z     vdW  Elec       q    Type
REMARK                         _______ _______ _______ _____ _____    ______ ____
ROOT
ATOM      1  C   UNL     1       3.372   5.375  18.407  0.00  0.00    +0.000 C 
ATOM      2  C   UNL     1       2.936   4.211  18.953  0.00  0.00    +0.000 C 
ATOM      3  C   UNL     1       1.723   4.060  19.861  0.00  0.00    +0.000 C 
ATOM      4  C   UNL     1       0.761   2.983  19.323  0.00  0.00    +0.000 C 
ATOM      5  N   UNL     1       1.413   1.688  19.090  0.00  0.00    +0.000 NA
ATOM      6  C   UNL     1       2.564   1.838  18.191  0.00  0.00    +0.000 C 
ATOM      7  C   UNL     1       3.584   2.846  18.733  0.00  0.00    +0.000 C 
ATOM      8  H   UNL     1       0.743   1.043  18.673  0.00  0.00    +0.000 HD
ENDROOT
BRANCH   1   9
ATOM      9  C   UNL     1       4.549   5.326  17.505  0.00  0.00    +0.000 A 
ATOM     10  C   UNL     1       5.724   6.000  17.856  0.00  0.00    +0.000 A 
ATOM     11  C   UNL     1       6.789   6.068  16.957  0.00  0.00    +0.000 A 
ATOM     12  C   UNL     1       6.688   5.461  15.702  0.00  0.00    +0.000 A 
ATOM     13 CL   UNL     1       8.027   5.627  14.622  0.00  0.00    +0.000 Cl
ATOM     14  C   UNL     1       5.524   4.765  15.355  0.00  0.00    +0.000 A 
ATOM     15 CL   UNL     1       5.329   3.995  13.819  0.00  0.00    +0.000 Cl
ATOM     16  C   UNL     1       4.458   4.696  16.256  0.00  0.00    +0.000 A 
ENDBRANCH   1   9
BRANCH   1  20
ATOM     17  C   UNL     1       1.418   9.096  19.367  0.00  0.00    +0.000 A 
ATOM     18  C   UNL     1       1.579   8.094  20.330  0.00  0.00    +0.000 A 
ATOM     19  C   UNL     1       2.251   6.903  20.022  0.00  0.00    +0.000 A 
ATOM     20  C   UNL     1       2.707   6.662  18.722  0.00  0.00    +0.000 A 
ATOM     21  C   UNL     1       2.507   7.642  17.740  0.00  0.00    +0.000 A 
ATOM     22  C   UNL     1       1.869   8.848  18.063  0.00  0.00    +0.000 A 
BRANCH  17  24
ATOM     23  N   UNL     1      -0.457  10.739  18.888  0.00  0.00    +0.000 N 
ATOM     24  C   UNL     1       0.679  10.368  19.638  0.00  0.00    +0.000 C 
ATOM     25  O   UNL     1       1.117  11.074  20.551  0.00  0.00    +0.000 OA
BRANCH  23  27
ATOM     26  C   UNL     1      -0.410  13.116  18.132  0.00  0.00    +0.000 C 
ATOM     27  C   UNL     1      -0.976  12.095  19.110  0.00  0.00    +0.000 C 
ENDBRANCH  23  27
BRANCH  23  28
ATOM     28  C   UNL     1      -1.062   9.890  17.851  0.00  0.00    +0.000 C 
ATOM     29  C   UNL     1      -2.571   9.927  17.662  0.00  0.00    +0.000 C 
ENDBRANCH  23  28
ENDBRANCH  17  24
ENDBRANCH   1  20
TORSDOF 5
ENDMDL
MODEL 7
REMARK VINA RESULT:      -8.2      3.519      8.262
REMARK  Name = 
REMARK  7 active torsions:
REMARK  status: ('A' for Active; 'I' for Inactive)
REMARK    1  A    between atoms: C_1  and  C_2
REMARK    2  A    between atoms: C_2  and  N_3
REMARK    3  A    between atoms: N_3  and  C_4
REMARK    4  A    between atoms: C_4  and  C_5
REMARK    5  A    between atoms: C_6  and  C_8
REMARK    6  A    between atoms: C_11  and  C_12
REMARK    7  A    between atoms: C_12  and  C_19
REMARK                            x       y       z     vdW  Elec       q    Type
REMARK                         _______ _______ _______ _____ _____    ______ ____
ROOT
ATOM      1  C   UNL     1       0.338  10.715  19.021  0.00  0.00    +0.000 C 
ATOM      2  C   UNL     1      -0.786  10.871  18.276  0.00  0.00    +0.000 C 
ATOM      3  C   UNL     1      -1.427   9.797  17.407  0.00  0.00    +0.000 C 
ATOM      4  C   UNL     1      -2.914   9.613  17.763  0.00  0.00    +0.000 C 
ATOM      5  N   UNL     1      -3.681  10.865  17.711  0.00  0.00    +0.000 NA
ATOM      6  C   UNL     1      -3.074  11.885  18.574  0.00  0.00    +0.000 C 
ATOM      7  C   UNL     1      -1.612  12.153  18.197  0.00  0.00    +0.000 C 
ATOM      8  H   UNL     1      -4.636  10.689  18.021  0.00  0.00    +0.000 HD
ENDROOT
BRANCH   1   9
ATOM      9  C   UNL     1       0.794  11.861  19.846  0.00  0.00    +0.000 A 
ATOM     10  C   UNL     1       0.061  12.239  20.978  0.00  0.00    +0.000 A 
ATOM     11  C   UNL     1       0.406  13.393  21.683  0.00  0.00    +0.000 A 
ATOM     12  C   UNL     1       1.487  14.174  21.266  0.00  0.00    +0.000 A 
ATOM     13 CL   UNL     1       1.826  15.614  22.158  0.00  0.00    +0.000 Cl
ATOM     14  C   UNL     1       2.237  13.788  20.149  0.00  0.00    +0.000 A 
ATOM     15 CL   UNL     1       3.582  14.710  19.573  0.00  0.00    +0.000 Cl
ATOM     16  C   UNL     1       1.892  12.632  19.442  0.00  0.00    +0.000 A 
ENDBRANCH   1   9
BRANCH   1  20
ATOM     17  C   UNL     1       2.564   7.024  18.990  0.00  0.00    +0.000 A 
ATOM     18  C   UNL     1       1.955   7.491  20.159  0.00  0.00    +0.000 A 
ATOM     19  C   UNL     1       1.199   8.671  20.153  0.00  0.00    +0.000 A 
ATOM     20  C   UNL     1       1.103   9.446  18.992  0.00  0.00    +0.000 A 
ATOM     21  C   UNL     1       1.751   9.008  17.829  0.00  0.00    +0.000 A 
ATOM     22  C   UNL     1       2.473   7.806  17.830  0.00  0.00    +0.000 A 
BRANCH  17  24
ATOM     23  N   UNL     1       2.855   4.507  19.146  0.00  0.00    +0.000 N 
ATOM     24  C   UNL     1       3.409   5.789  18.955  0.00  0.00    +0.000 C 
ATOM     25  O   UNL     1       4.615   5.956  18.752  0.00  0.00    +0.000 OA
BRANCH  23  27
ATOM     26  C   UNL     1       3.749   2.413  18.127  0.00  0.00    +0.000 C 
ATOM     27  C   UNL     1       3.805   3.396  19.289  0.00  0.00    +0.000 C 
ENDBRANCH  23  27
BRANCH  23  28
ATOM     28  C   UNL     1       1.415   4.257  19.306  0.00  0.00    +0.000 C 
ATOM     29  C   UNL     1       0.944   3.404  20.475  0.00  0.00    +0.000 C 
ENDBRANCH  23  28
ENDBRANCH  17  24
ENDBRANCH   1  20
TORSDOF 5
ENDMDL
MODEL 8
REMARK VINA RESULT:      -8.2      3.985      8.353
REMARK  Name = 
REMARK  7 active torsions:
REMARK  status: ('A' for Active; 'I' for Inactive)
REMARK    1  A    between atoms: C_1  and  C_2
REMARK    2  A    between atoms: C_2  and  N_3
REMARK    3  A    between atoms: N_3  and  C_4
REMARK    4  A    between atoms: C_4  and  C_5
REMARK    5  A    between atoms: C_6  and  C_8
REMARK    6  A    between atoms: C_11  and  C_12
REMARK    7  A    between atoms: C_12  and  C_19
REMARK                            x       y       z     vdW  Elec       q    Type
REMARK                         _______ _______ _______ _____ _____    ______ ____
ROOT
ATOM      1  C   UNL     1       0.250  10.770  18.865  0.00  0.00    +0.000 C 
ATOM      2  C   UNL     1      -0.897  10.855  18.142  0.00  0.00    +0.000 C 
ATOM      3  C   UNL     1      -1.522   9.721  17.340  0.00  0.00    +0.000 C 
ATOM      4  C   UNL     1      -2.994   9.506  17.741  0.00  0.00    +0.000 C 
ATOM      5  N   UNL     1      -3.803  10.729  17.650  0.00  0.00    +0.000 NA
ATOM      6  C   UNL     1      -3.209  11.808  18.449  0.00  0.00    +0.000 C 
ATOM      7  C   UNL     1      -1.766  12.105  18.024  0.00  0.00    +0.000 C 
ATOM      8  H   UNL     1      -4.744  10.537  17.992  0.00  0.00    +0.000 HD
ENDROOT
BRANCH   1   9
ATOM      9  C   UNL     1       0.686  11.967  19.624  0.00  0.00    +0.000 A 
ATOM     10  C   UNL     1       1.903  12.585  19.313  0.00  0.00    +0.000 A 
ATOM     11  C   UNL     1       2.382  13.629  20.105  0.00  0.00    +0.000 A 
ATOM     12  C   UNL     1       1.648  14.066  21.211  0.00  0.00    +0.000 A 
ATOM     13 CL   UNL     1       2.326  15.330  22.174  0.00  0.00    +0.000 Cl
ATOM     14  C   UNL     1       0.419  13.468  21.513  0.00  0.00    +0.000 A 
ATOM     15 CL   UNL     1      -0.538  13.954  22.868  0.00  0.00    +0.000 Cl
ATOM     16  C   UNL     1      -0.062  12.422  20.719  0.00  0.00    +0.000 A 
ENDBRANCH   1   9
BRANCH   1  20
ATOM     17  C   UNL     1       2.592   7.153  18.949  0.00  0.00    +0.000 A 
ATOM     18  C   UNL     1       1.942   7.620  20.096  0.00  0.00    +0.000 A 
ATOM     19  C   UNL     1       1.149   8.775  20.052  0.00  0.00    +0.000 A 
ATOM     20  C   UNL     1       1.055   9.526  18.875  0.00  0.00    +0.000 A 
ATOM     21  C   UNL     1       1.743   9.089  17.735  0.00  0.00    +0.000 A 
ATOM     22  C   UNL     1       2.503   7.912  17.774  0.00  0.00    +0.000 A 
BRANCH  17  24
ATOM     23  N   UNL     1       2.949   4.640  19.031  0.00  0.00    +0.000 N 
ATOM     24  C   UNL     1       3.477   5.946  18.955  0.00  0.00    +0.000 C 
ATOM     25  O   UNL     1       4.692   6.156  18.892  0.00  0.00    +0.000 OA
BRANCH  23  27
ATOM     26  C   UNL     1       3.613   2.327  18.377  0.00  0.00    +0.000 C 
ATOM     27  C   UNL     1       3.914   3.552  19.229  0.00  0.00    +0.000 C 
ENDBRANCH  23  27
BRANCH  23  28
ATOM     28  C   UNL     1       1.509   4.342  19.021  0.00  0.00    +0.000 C 
ATOM     29  C   UNL     1       0.842   3.911  20.319  0.00  0.00    +0.000 C 
ENDBRANCH  23  28
ENDBRANCH  17  24
ENDBRANCH   1  20
TORSDOF 5
ENDMDL
MODEL 9
REMARK VINA RESULT:      -8.0      1.014      1.500
REMARK  Name = 
REMARK  7 active torsions:
REMARK  status: ('A' for Active; 'I' for Inactive)
REMARK    1  A    between atoms: C_1  and  C_2
REMARK    2  A    between atoms: C_2  and  N_3
REMARK    3  A    between atoms: N_3  and  C_4
REMARK    4  A    between atoms: C_4  and  C_5
REMARK    5  A    between atoms: C_6  and  C_8
REMARK    6  A    between atoms: C_11  and  C_12
REMARK    7  A    between atoms: C_12  and  C_19
REMARK                            x       y       z     vdW  Elec       q    Type
REMARK                         _______ _______ _______ _____ _____    ______ ____
ROOT
ATOM      1  C   UNL     1       3.073   5.958  18.833  0.00  0.00    +0.000 C 
ATOM      2  C   UNL     1       2.807   4.890  19.627  0.00  0.00    +0.000 C 
ATOM      3  C   UNL     1       1.730   4.834  20.703  0.00  0.00    +0.000 C 
ATOM      4  C   UNL     1       0.805   3.620  20.496  0.00  0.00    +0.000 C 
ATOM      5  N   UNL     1       1.531   2.346  20.406  0.00  0.00    +0.000 NA
ATOM      6  C   UNL     1       2.546   2.399  19.348  0.00  0.00    +0.000 C 
ATOM      7  C   UNL     1       3.536   3.549  19.564  0.00  0.00    +0.000 C 
ATOM      8  H   UNL     1       0.872   1.596  20.202  0.00  0.00    +0.000 HD
ENDROOT
BRANCH   1   9
ATOM      9  C   UNL     1       4.132   5.816  17.803  0.00  0.00    +0.000 A 
ATOM     10  C   UNL     1       4.018   4.827  16.818  0.00  0.00    +0.000 A 
ATOM     11  C   UNL     1       5.067   4.600  15.928  0.00  0.00    +0.000 A 
ATOM     12  C   UNL     1       6.236   5.361  16.011  0.00  0.00    +0.000 A 
ATOM     13 CL   UNL     1       7.513   4.992  14.907  0.00  0.00    +0.000 Cl
ATOM     14  C   UNL     1       6.346   6.367  16.978  0.00  0.00    +0.000 A 
ATOM     15 CL   UNL     1       7.765   7.342  17.142  0.00  0.00    +0.000 Cl
ATOM     16  C   UNL     1       5.295   6.595  17.871  0.00  0.00    +0.000 A 
ENDBRANCH   1   9
BRANCH   1  20
ATOM     17  C   UNL     1       0.971   9.694  19.285  0.00  0.00    +0.000 A 
ATOM     18  C   UNL     1       1.414   9.261  18.031  0.00  0.00    +0.000 A 
ATOM     19  C   UNL     1       2.062   8.026  17.885  0.00  0.00    +0.000 A 
ATOM     20  C   UNL     1       2.345   7.238  19.005  0.00  0.00    +0.000 A 
ATOM     21  C   UNL     1       1.945   7.688  20.270  0.00  0.00    +0.000 A 
ATOM     22  C   UNL     1       1.263   8.905  20.406  0.00  0.00    +0.000 A 
BRANCH  17  24
ATOM     23  N   UNL     1      -0.445  11.293  20.657  0.00  0.00    +0.000 N 
ATOM     24  C   UNL     1       0.307  11.019  19.496  0.00  0.00    +0.000 C 
ATOM     25  O   UNL     1       0.453  11.854  18.599  0.00  0.00    +0.000 OA
BRANCH  23  27
ATOM     26  C   UNL     1      -2.572  12.414  19.995  0.00  0.00    +0.000 C 
ATOM     27  C   UNL     1      -1.210  12.547  20.662  0.00  0.00    +0.000 C 
ENDBRANCH  23  27
BRANCH  23  28
ATOM     28  C   UNL     1      -0.573  10.360  21.785  0.00  0.00    +0.000 C 
ATOM     29  C   UNL     1      -1.174  10.863  23.089  0.00  0.00    +0.000 C 
ENDBRANCH  23  28
ENDBRANCH  17  24
ENDBRANCH   1  20
TORSDOF 5
ENDMDL
