MODEL 1
REMARK VINA RESULT:      -7.1      0.000      0.000
REMARK  Name = 
REMARK  12 active torsions:
REMARK  status: ('A' for Active; 'I' for Inactive)
REMARK    1  A    between atoms: C_1  and  C_2
REMARK    2  A    between atoms: C_2  and  C_3
REMARK    3  A    between atoms: C_2  and  C_4
REMARK    4  A    between atoms: C_4  and  O_5
REMARK    5  A    between atoms: O_5  and  C_6
REMARK    6  A    between atoms: C_9  and  C_10
REMARK    7  A    between atoms: C_10  and  S_11
REMARK    8  A    between atoms: S_11  and  C_12
REMARK    9  A    between atoms: C_12  and  C_13
REMARK   10  A    between atoms: C_13  and  N_14
REMARK   11  A    between atoms: C_15  and  S_16
REMARK   12  A    between atoms: N_17  and  C_18
REMARK                            x       y       z     vdW  Elec       q    Type
REMARK                         _______ _______ _______ _____ _____    ______ ____
ROOT
ATOM      1  C   UNL     1       4.312   3.734  18.269  0.00  0.00    +0.000 C 
ENDROOT
BRANCH   1   2
ATOM      2  S   UNL     1       2.977   4.949  17.997  0.00  0.00    +0.000 S 
BRANCH   2   3
ATOM      3  C   UNL     1       3.547   6.272  19.105  0.00  0.00    +0.000 C 
BRANCH   3   7
ATOM      4  C   UNL     1       0.897   9.688  18.946  0.00  0.00    +0.000 A 
ATOM      5  C   UNL     1       1.667   9.320  17.838  0.00  0.00    +0.000 A 
ATOM      6  C   UNL     1       2.504   8.208  17.891  0.00  0.00    +0.000 A 
ATOM      7  C   UNL     1       2.588   7.435  19.054  0.00  0.00    +0.000 A 
ATOM      8  C   UNL     1       1.829   7.809  20.171  0.00  0.00    +0.000 A 
ATOM      9  C   UNL     1       0.987   8.930  20.112  0.00  0.00    +0.000 A 
BRANCH   4  10
ATOM     10  O   UNL     1       0.045  10.765  18.991  0.00  0.00    +0.000 OA
BRANCH  10  11
ATOM     11  C   UNL     1      -1.346  10.429  19.017  0.00  0.00    +0.000 C 
BRANCH  11  13
ATOM     12  C   UNL     1      -3.240   9.511  17.681  0.00  0.00    +0.000 C 
ATOM     13  C   UNL     1      -1.918  10.275  17.604  0.00  0.00    +0.000 C 
ATOM     14  C   UNL     1      -2.126  11.630  16.928  0.00  0.00    +0.000 C 
ENDBRANCH  11  13
ENDBRANCH  10  11
ENDBRANCH   4  10
ENDBRANCH   3   7
ENDBRANCH   2   3
ENDBRANCH   1   2
BRANCH   1  15
ATOM     15  C   UNL     1       5.666   4.446  18.404  0.00  0.00    +0.000 C 
BRANCH  15  16
ATOM     16  N   UNL     1       6.326   4.490  17.107  0.00  0.00    +0.000 NA
ATOM     17  C   UNL     1       6.826   5.553  16.588  0.00  0.00    +0.000 C 
ATOM     18  N   UNL     1       7.422   5.602  15.354  0.00  0.00    +0.000 N 
ATOM     19  H   UNL     1       7.821   6.503  15.126  0.00  0.00    +0.000 HD
BRANCH  18  20
ATOM     20  C   UNL     1       6.982   4.921  14.200  0.00  0.00    +0.000 A 
ATOM     21  C   UNL     1       7.701   4.899  13.000  0.00  0.00    +0.000 A 
ATOM     22  C   UNL     1       7.238   4.173  11.898  0.00  0.00    +0.000 A 
ATOM     23  C   UNL     1       6.035   3.475  11.978  0.00  0.00    +0.000 A 
ATOM     24  C   UNL     1       5.298   3.500  13.158  0.00  0.00    +0.000 A 
ATOM     25  C   UNL     1       5.775   4.210  14.263  0.00  0.00    +0.000 A 
ENDBRANCH  18  20
BRANCH  17  26
ATOM     26  S   UNL     1       6.895   7.120  17.387  0.00  0.00    +0.000 S 
ATOM     27  H   UNL     1       6.359   6.758  18.555  0.00  0.00    +0.000 HD
ENDBRANCH  17  26
ENDBRANCH  15  16
ENDBRANCH   1  15
TORSDOF 10
ENDMDL
MODEL 2
REMARK VINA RESULT:      -6.9      3.260      3.867
REMARK  Name = 
REMARK  12 active torsions:
REMARK  status: ('A' for Active; 'I' for Inactive)
REMARK    1  A    between atoms: C_1  and  C_2
REMARK    2  A    between atoms: C_2  and  C_3
REMARK    3  A    between atoms: C_2  and  C_4
REMARK    4  A    between atoms: C_4  and  O_5
REMARK    5  A    between atoms: O_5  and  C_6
REMARK    6  A    between atoms: C_9  and  C_10
REMARK    7  A    between atoms: C_10  and  S_11
REMARK    8  A    between atoms: S_11  and  C_12
REMARK    9  A    between atoms: C_12  and  C_13
REMARK   10  A    between atoms: C_13  and  N_14
REMARK   11  A    between atoms: C_15  and  S_16
REMARK   12  A    between atoms: N_17  and  C_18
REMARK                            x       y       z     vdW  Elec       q    Type
REMARK                         _______ _______ _______ _____ _____    ______ ____
ROOT
ATOM      1  C   UNL     1       1.499   4.239  18.151  0.00  0.00    +0.000 C 
ENDROOT
BRANCH   1   2
ATOM      2  S   UNL     1       1.431   4.609  19.937  0.00  0.00    +0.000 S 
BRANCH   2   3
ATOM      3  C   UNL     1       2.730   5.877  20.029  0.00  0.00    +0.000 C 
BRANCH   3   7
ATOM      4  C   UNL     1       1.218   9.790  18.970  0.00  0.00    +0.000 A 
ATOM      5  C   UNL     1       1.980   9.042  18.066  0.00  0.00    +0.000 A 
ATOM      6  C   UNL     1       2.448   7.775  18.408  0.00  0.00    +0.000 A 
ATOM      7  C   UNL     1       2.161   7.225  19.662  0.00  0.00    +0.000 A 
ATOM      8  C   UNL     1       1.410   7.977  20.575  0.00  0.00    +0.000 A 
ATOM      9  C   UNL     1       0.941   9.253  20.225  0.00  0.00    +0.000 A 
BRANCH   4  10
ATOM     10  O   UNL     1       0.714  11.044  18.725  0.00  0.00    +0.000 OA
BRANCH  10  11
ATOM     11  C   UNL     1       1.383  12.105  19.415  0.00  0.00    +0.000 C 
BRANCH  11  13
ATOM     12  C   UNL     1      -0.362  13.587  18.425  0.00  0.00    +0.000 C 
ATOM     13  C   UNL     1       0.441  13.282  19.691  0.00  0.00    +0.000 C 
ATOM     14  C   UNL     1      -0.499  12.992  20.860  0.00  0.00    +0.000 C 
ENDBRANCH  11  13
ENDBRANCH  10  11
ENDBRANCH   4  10
ENDBRANCH   3   7
ENDBRANCH   2   3
ENDBRANCH   1   2
BRANCH   1  15
ATOM     15  C   UNL     1       2.434   3.050  17.885  0.00  0.00    +0.000 C 
BRANCH  15  16
ATOM     16  N   UNL     1       3.816   3.510  17.867  0.00  0.00    +0.000 NA
ATOM     17  C   UNL     1       4.675   3.250  18.785  0.00  0.00    +0.000 C 
ATOM     18  N   UNL     1       5.967   3.707  18.785  0.00  0.00    +0.000 N 
ATOM     19  H   UNL     1       6.529   3.355  19.549  0.00  0.00    +0.000 HD
BRANCH  18  20
ATOM     20  C   UNL     1       6.386   4.993  18.381  0.00  0.00    +0.000 A 
ATOM     21  C   UNL     1       7.561   5.597  18.841  0.00  0.00    +0.000 A 
ATOM     22  C   UNL     1       7.949   6.857  18.376  0.00  0.00    +0.000 A 
ATOM     23  C   UNL     1       7.153   7.539  17.460  0.00  0.00    +0.000 A 
ATOM     24  C   UNL     1       5.971   6.960  17.005  0.00  0.00    +0.000 A 
ATOM     25  C   UNL     1       5.597   5.692  17.456  0.00  0.00    +0.000 A 
ENDBRANCH  18  20
BRANCH  17  26
ATOM     26  S   UNL     1       4.372   2.214  20.175  0.00  0.00    +0.000 S 
ATOM     27  H   UNL     1       3.394   1.472  19.646  0.00  0.00    +0.000 HD
ENDBRANCH  17  26
ENDBRANCH  15  16
ENDBRANCH   1  15
TORSDOF 10
ENDMDL
MODEL 3
REMARK VINA RESULT:      -6.9      0.716      1.548
REMARK  Name = 
REMARK  12 active torsions:
REMARK  status: ('A' for Active; 'I' for Inactive)
REMARK    1  A    between atoms: C_1  and  C_2
REMARK    2  A    between atoms: C_2  and  C_3
REMARK    3  A    between atoms: C_2  and  C_4
REMARK    4  A    between atoms: C_4  and  O_5
REMARK    5  A    between atoms: O_5  and  C_6
REMARK    6  A    between atoms: C_9  and  C_10
REMARK    7  A    between atoms: C_10  and  S_11
REMARK    8  A    between atoms: S_11  and  C_12
REMARK    9  A    between atoms: C_12  and  C_13
REMARK   10  A    between atoms: C_13  and  N_14
REMARK   11  A    between atoms: C_15  and  S_16
REMARK   12  A    between atoms: N_17  and  C_18
REMARK                            x       y       z     vdW  Elec       q    Type
REMARK                         _______ _______ _______ _____ _____    ______ ____
ROOT
ATOM      1  C   UNL     1       4.463   4.765  18.676  0.00  0.00    +0.000 C 
ENDROOT
BRANCH   1   2
ATOM      2  S   UNL     1       3.691   6.317  18.105  0.00  0.00    +0.000 S 
BRANCH   2   3
ATOM      3  C   UNL     1       2.663   6.692  19.555  0.00  0.00    +0.000 C 
BRANCH   3   7
ATOM      4  C   UNL     1       0.433  10.352  18.965  0.00  0.00    +0.000 A 
ATOM      5  C   UNL     1       0.452   9.711  20.208  0.00  0.00    +0.000 A 
ATOM      6  C   UNL     1       1.187   8.543  20.395  0.00  0.00    +0.000 A 
ATOM      7  C   UNL     1       1.925   7.989  19.343  0.00  0.00    +0.000 A 
ATOM      8  C   UNL     1       1.897   8.621  18.092  0.00  0.00    +0.000 A 
ATOM      9  C   UNL     1       1.155   9.798  17.909  0.00  0.00    +0.000 A 
BRANCH   4  10
ATOM     10  O   UNL     1      -0.259  11.505  18.683  0.00  0.00    +0.000 OA
BRANCH  10  11
ATOM     11  C   UNL     1      -1.677  11.343  18.580  0.00  0.00    +0.000 C 
BRANCH  11  13
ATOM     12  C   UNL     1      -3.130   9.473  17.799  0.00  0.00    +0.000 C 
ATOM     13  C   UNL     1      -2.062  10.482  17.372  0.00  0.00    +0.000 C 
ATOM     14  C   UNL     1      -2.570  11.333  16.210  0.00  0.00    +0.000 C 
ENDBRANCH  11  13
ENDBRANCH  10  11
ENDBRANCH   4  10
ENDBRANCH   3   7
ENDBRANCH   2   3
ENDBRANCH   1   2
BRANCH   1  15
ATOM     15  C   UNL     1       5.988   4.922  18.755  0.00  0.00    +0.000 C 
BRANCH  15  16
ATOM     16  N   UNL     1       6.559   4.820  17.419  0.00  0.00    +0.000 NA
ATOM     17  C   UNL     1       7.078   5.805  16.779  0.00  0.00    +0.000 C 
ATOM     18  N   UNL     1       7.589   5.718  15.510  0.00  0.00    +0.000 N 
ATOM     19  H   UNL     1       8.019   6.572  15.180  0.00  0.00    +0.000 HD
BRANCH  18  20
ATOM     20  C   UNL     1       7.035   4.970  14.450  0.00  0.00    +0.000 A 
ATOM     21  C   UNL     1       5.844   4.245  14.562  0.00  0.00    +0.000 A 
ATOM     22  C   UNL     1       5.318   3.554  13.465  0.00  0.00    +0.000 A 
ATOM     23  C   UNL     1       5.992   3.564  12.246  0.00  0.00    +0.000 A 
ATOM     24  C   UNL     1       7.187   4.266  12.122  0.00  0.00    +0.000 A 
ATOM     25  C   UNL     1       7.698   4.972  13.214  0.00  0.00    +0.000 A 
ENDBRANCH  18  20
BRANCH  17  26
ATOM     26  S   UNL     1       7.285   7.426  17.434  0.00  0.00    +0.000 S 
ATOM     27  H   UNL     1       8.618   7.481  17.380  0.00  0.00    +0.000 HD
ENDBRANCH  17  26
ENDBRANCH  15  16
ENDBRANCH   1  15
TORSDOF 10
ENDMDL
MODEL 4
REMARK VINA RESULT:      -6.8      3.875      7.807
REMARK  Name = 
REMARK  12 active torsions:
REMARK  status: ('A' for Active; 'I' for Inactive)
REMARK    1  A    between atoms: C_1  and  C_2
REMARK    2  A    between atoms: C_2  and  C_3
REMARK    3  A    between atoms: C_2  and  C_4
REMARK    4  A    between atoms: C_4  and  O_5
REMARK    5  A    between atoms: O_5  and  C_6
REMARK    6  A    between atoms: C_9  and  C_10
REMARK    7  A    between atoms: C_10  and  S_11
REMARK    8  A    between atoms: S_11  and  C_12
REMARK    9  A    between atoms: C_12  and  C_13
REMARK   10  A    between atoms: C_13  and  N_14
REMARK   11  A    between atoms: C_15  and  S_16
REMARK   12  A    between atoms: N_17  and  C_18
REMARK                            x       y       z     vdW  Elec       q    Type
REMARK                         _______ _______ _______ _____ _____    ______ ____
ROOT
ATOM      1  C   UNL     1       3.936   3.248  17.508  0.00  0.00    +0.000 C 
ENDROOT
BRANCH   1   2
ATOM      2  S   UNL     1       5.268   4.032  16.539  0.00  0.00    +0.000 S 
BRANCH   2   3
ATOM      3  C   UNL     1       6.469   4.334  17.869  0.00  0.00    +0.000 C 
BRANCH   3   7
ATOM      4  C   UNL     1       7.752   8.465  17.883  0.00  0.00    +0.000 A 
ATOM      5  C   UNL     1       8.362   7.517  18.711  0.00  0.00    +0.000 A 
ATOM      6  C   UNL     1       7.956   6.185  18.688  0.00  0.00    +0.000 A 
ATOM      7  C   UNL     1       6.930   5.769  17.832  0.00  0.00    +0.000 A 
ATOM      8  C   UNL     1       6.307   6.718  17.011  0.00  0.00    +0.000 A 
ATOM      9  C   UNL     1       6.721   8.059  17.038  0.00  0.00    +0.000 A 
BRANCH   4  10
ATOM     10  O   UNL     1       8.082   9.798  17.835  0.00  0.00    +0.000 OA
BRANCH  10  11
ATOM     11  C   UNL     1       9.146  10.185  18.710  0.00  0.00    +0.000 C 
BRANCH  11  13
ATOM     12  C   UNL     1       8.859  12.474  17.763  0.00  0.00    +0.000 C 
ATOM     13  C   UNL     1       9.885  11.422  18.189  0.00  0.00    +0.000 C 
ATOM     14  C   UNL     1      10.832  11.999  19.241  0.00  0.00    +0.000 C 
ENDBRANCH  11  13
ENDBRANCH  10  11
ENDBRANCH   4  10
ENDBRANCH   3   7
ENDBRANCH   2   3
ENDBRANCH   1   2
BRANCH   1  15
ATOM     15  C   UNL     1       4.204   3.403  19.013  0.00  0.00    +0.000 C 
BRANCH  15  16
ATOM     16  N   UNL     1       3.707   4.695  19.466  0.00  0.00    +0.000 NA
ATOM     17  C   UNL     1       2.778   4.844  20.340  0.00  0.00    +0.000 C 
ATOM     18  N   UNL     1       2.288   6.058  20.747  0.00  0.00    +0.000 N 
ATOM     19  H   UNL     1       1.604   5.998  21.490  0.00  0.00    +0.000 HD
BRANCH  18  20
ATOM     20  C   UNL     1       2.055   7.172  19.913  0.00  0.00    +0.000 A 
ATOM     21  C   UNL     1       2.407   7.205  18.559  0.00  0.00    +0.000 A 
ATOM     22  C   UNL     1       2.115   8.321  17.769  0.00  0.00    +0.000 A 
ATOM     23  C   UNL     1       1.483   9.429  18.330  0.00  0.00    +0.000 A 
ATOM     24  C   UNL     1       1.141   9.419  19.680  0.00  0.00    +0.000 A 
ATOM     25  C   UNL     1       1.416   8.294  20.461  0.00  0.00    +0.000 A 
ENDBRANCH  18  20
BRANCH  17  26
ATOM     26  S   UNL     1       2.009   3.526  21.218  0.00  0.00    +0.000 S 
ATOM     27  H   UNL     1       0.909   4.177  21.607  0.00  0.00    +0.000 HD
ENDBRANCH  17  26
ENDBRANCH  15  16
ENDBRANCH   1  15
TORSDOF 10
ENDMDL
MODEL 5
REMARK VINA RESULT:      -6.8      1.266      2.100
REMARK  Name = 
REMARK  12 active torsions:
REMARK  status: ('A' for Active; 'I' for Inactive)
REMARK    1  A    between atoms: C_1  and  C_2
REMARK    2  A    between atoms: C_2  and  C_3
REMARK    3  A    between atoms: C_2  and  C_4
REMARK    4  A    between atoms: C_4  and  O_5
REMARK    5  A    between atoms: O_5  and  C_6
REMARK    6  A    between atoms: C_9  and  C_10
REMARK    7  A    between atoms: C_10  and  S_11
REMARK    8  A    between atoms: S_11  and  C_12
REMARK    9  A    between atoms: C_12  and  C_13
REMARK   10  A    between atoms: C_13  and  N_14
REMARK   11  A    between atoms: C_15  and  S_16
REMARK   12  A    between atoms: N_17  and  C_18
REMARK                            x       y       z     vdW  Elec       q    Type
REMARK                         _______ _______ _______ _____ _____    ______ ____
ROOT
ATOM      1  C   UNL     1       5.034   3.910  19.111  0.00  0.00    +0.000 C 
ENDROOT
BRANCH   1   2
ATOM      2  S   UNL     1       3.342   4.527  19.408  0.00  0.00    +0.000 S 
BRANCH   2   3
ATOM      3  C   UNL     1       3.206   5.701  18.028  0.00  0.00    +0.000 C 
BRANCH   3   7
ATOM      4  C   UNL     1       1.328   9.337  19.432  0.00  0.00    +0.000 A 
ATOM      5  C   UNL     1       1.583   8.274  20.304  0.00  0.00    +0.000 A 
ATOM      6  C   UNL     1       2.205   7.114  19.848  0.00  0.00    +0.000 A 
ATOM      7  C   UNL     1       2.589   6.991  18.508  0.00  0.00    +0.000 A 
ATOM      8  C   UNL     1       2.323   8.049  17.629  0.00  0.00    +0.000 A 
ATOM      9  C   UNL     1       1.697   9.216  18.093  0.00  0.00    +0.000 A 
BRANCH   4  10
ATOM     10  O   UNL     1       0.723  10.519  19.786  0.00  0.00    +0.000 OA
BRANCH  10  11
ATOM     11  C   UNL     1      -0.706  10.463  19.855  0.00  0.00    +0.000 C 
BRANCH  11  13
ATOM     12  C   UNL     1      -0.221  12.133  21.643  0.00  0.00    +0.000 C 
ATOM     13  C   UNL     1      -1.279  11.637  20.656  0.00  0.00    +0.000 C 
ATOM     14  C   UNL     1      -1.730  12.777  19.744  0.00  0.00    +0.000 C 
ENDBRANCH  11  13
ENDBRANCH  10  11
ENDBRANCH   4  10
ENDBRANCH   3   7
ENDBRANCH   2   3
ENDBRANCH   1   2
BRANCH   1  15
ATOM     15  C   UNL     1       5.982   5.075  18.793  0.00  0.00    +0.000 C 
BRANCH  15  16
ATOM     16  N   UNL     1       6.529   4.908  17.454  0.00  0.00    +0.000 NA
ATOM     17  C   UNL     1       7.085   5.849  16.780  0.00  0.00    +0.000 C 
ATOM     18  N   UNL     1       7.575   5.702  15.508  0.00  0.00    +0.000 N 
ATOM     19  H   UNL     1       8.039   6.525  15.147  0.00  0.00    +0.000 HD
BRANCH  18  20
ATOM     20  C   UNL     1       6.972   4.952  14.476  0.00  0.00    +0.000 A 
ATOM     21  C   UNL     1       5.734   4.314  14.613  0.00  0.00    +0.000 A 
ATOM     22  C   UNL     1       5.163   3.617  13.543  0.00  0.00    +0.000 A 
ATOM     23  C   UNL     1       5.836   3.532  12.327  0.00  0.00    +0.000 A 
ATOM     24  C   UNL     1       7.077   4.146  12.178  0.00  0.00    +0.000 A 
ATOM     25  C   UNL     1       7.634   4.859  13.243  0.00  0.00    +0.000 A 
ENDBRANCH  18  20
BRANCH  17  26
ATOM     26  S   UNL     1       7.377   7.477  17.384  0.00  0.00    +0.000 S 
ATOM     27  H   UNL     1       6.504   8.124  16.608  0.00  0.00    +0.000 HD
ENDBRANCH  17  26
ENDBRANCH  15  16
ENDBRANCH   1  15
TORSDOF 10
ENDMDL
MODEL 6
REMARK VINA RESULT:      -6.8      2.546      3.442
REMARK  Name = 
REMARK  12 active torsions:
REMARK  status: ('A' for Active; 'I' for Inactive)
REMARK    1  A    between atoms: C_1  and  C_2
REMARK    2  A    between atoms: C_2  and  C_3
REMARK    3  A    between atoms: C_2  and  C_4
REMARK    4  A    between atoms: C_4  and  O_5
REMARK    5  A    between atoms: O_5  and  C_6
REMARK    6  A    between atoms: C_9  and  C_10
REMARK    7  A    between atoms: C_10  and  S_11
REMARK    8  A    between atoms: S_11  and  C_12
REMARK    9  A    between atoms: C_12  and  C_13
REMARK   10  A    between atoms: C_13  and  N_14
REMARK   11  A    between atoms: C_15  and  S_16
REMARK   12  A    between atoms: N_17  and  C_18
REMARK                            x       y       z     vdW  Elec       q    Type
REMARK                         _______ _______ _______ _____ _____    ______ ____
ROOT
ATOM      1  C   UNL     1       1.291   4.208  18.540  0.00  0.00    +0.000 C 
ENDROOT
BRANCH   1   2
ATOM      2  S   UNL     1       1.683   4.995  20.140  0.00  0.00    +0.000 S 
BRANCH   2   3
ATOM      3  C   UNL     1       2.803   6.304  19.563  0.00  0.00    +0.000 C 
BRANCH   3   7
ATOM      4  C   UNL     1       0.820  10.145  19.395  0.00  0.00    +0.000 A 
ATOM      5  C   UNL     1       1.468   9.618  18.273  0.00  0.00    +0.000 A 
ATOM      6  C   UNL     1       2.089   8.372  18.330  0.00  0.00    +0.000 A 
ATOM      7  C   UNL     1       2.073   7.622  19.511  0.00  0.00    +0.000 A 
ATOM      8  C   UNL     1       1.437   8.154  20.641  0.00  0.00    +0.000 A 
ATOM      9  C   UNL     1       0.813   9.409  20.578  0.00  0.00    +0.000 A 
BRANCH   4  10
ATOM     10  O   UNL     1       0.182  11.361  19.438  0.00  0.00    +0.000 OA
BRANCH  10  11
ATOM     11  C   UNL     1      -0.688  11.621  18.332  0.00  0.00    +0.000 C 
BRANCH  11  13
ATOM     12  C   UNL     1      -3.173  11.636  18.542  0.00  0.00    +0.000 C 
ATOM     13  C   UNL     1      -1.942  10.742  18.380  0.00  0.00    +0.000 C 
ATOM     14  C   UNL     1      -2.075   9.876  17.128  0.00  0.00    +0.000 C 
ENDBRANCH  11  13
ENDBRANCH  10  11
ENDBRANCH   4  10
ENDBRANCH   3   7
ENDBRANCH   2   3
ENDBRANCH   1   2
BRANCH   1  15
ATOM     15  C   UNL     1       2.082   2.902  18.377  0.00  0.00    +0.000 C 
BRANCH  15  16
ATOM     16  N   UNL     1       3.491   3.207  18.168  0.00  0.00    +0.000 NA
ATOM     17  C   UNL     1       4.410   3.000  19.041  0.00  0.00    +0.000 C 
ATOM     18  N   UNL     1       5.732   3.313  18.858  0.00  0.00    +0.000 N 
ATOM     19  H   UNL     1       6.334   3.024  19.619  0.00  0.00    +0.000 HD
BRANCH  18  20
ATOM     20  C   UNL     1       6.223   4.473  18.220  0.00  0.00    +0.000 A 
ATOM     21  C   UNL     1       6.619   5.621  18.914  0.00  0.00    +0.000 A 
ATOM     22  C   UNL     1       7.137   6.728  18.234  0.00  0.00    +0.000 A 
ATOM     23  C   UNL     1       7.244   6.707  16.846  0.00  0.00    +0.000 A 
ATOM     24  C   UNL     1       6.838   5.579  16.138  0.00  0.00    +0.000 A 
ATOM     25  C   UNL     1       6.341   4.467  16.823  0.00  0.00    +0.000 A 
ENDBRANCH  18  20
BRANCH  17  26
ATOM     26  S   UNL     1       4.155   2.222  20.599  0.00  0.00    +0.000 S 
ATOM     27  H   UNL     1       3.205   1.361  20.225  0.00  0.00    +0.000 HD
ENDBRANCH  17  26
ENDBRANCH  15  16
ENDBRANCH   1  15
TORSDOF 10
ENDMDL
MODEL 7
REMARK VINA RESULT:      -6.8      3.004      3.650
REMARK  Name = 
REMARK  12 active torsions:
REMARK  status: ('A' for Active; 'I' for Inactive)
REMARK    1  A    between atoms: C_1  and  C_2
REMARK    2  A    between atoms: C_2  and  C_3
REMARK    3  A    between atoms: C_2  and  C_4
REMARK    4  A    between atoms: C_4  and  O_5
REMARK    5  A    between atoms: O_5  and  C_6
REMARK    6  A    between atoms: C_9  and  C_10
REMARK    7  A    between atoms: C_10  and  S_11
REMARK    8  A    between atoms: S_11  and  C_12
REMARK    9  A    between atoms: C_12  and  C_13
REMARK   10  A    between atoms: C_13  and  N_14
REMARK   11  A    between atoms: C_15  and  S_16
REMARK   12  A    between atoms: N_17  and  C_18
REMARK                            x       y       z     vdW  Elec       q    Type
REMARK                         _______ _______ _______ _____ _____    ______ ____
ROOT
ATOM      1  C   UNL     1       1.560   4.294  18.023  0.00  0.00    +0.000 C 
ENDROOT
BRANCH   1   2
ATOM      2  S   UNL     1       1.481   4.639  19.813  0.00  0.00    +0.000 S 
BRANCH   2   3
ATOM      3  C   UNL     1       2.736   5.948  19.922  0.00  0.00    +0.000 C 
BRANCH   3   7
ATOM      4  C   UNL     1       1.009   9.866  19.310  0.00  0.00    +0.000 A 
ATOM      5  C   UNL     1       1.573   9.153  18.248  0.00  0.00    +0.000 A 
ATOM      6  C   UNL     1       2.111   7.884  18.449  0.00  0.00    +0.000 A 
ATOM      7  C   UNL     1       2.094   7.296  19.719  0.00  0.00    +0.000 A 
ATOM      8  C   UNL     1       1.542   8.014  20.788  0.00  0.00    +0.000 A 
ATOM      9  C   UNL     1       1.001   9.292  20.580  0.00  0.00    +0.000 A 
BRANCH   4  10
ATOM     10  O   UNL     1       0.455  11.120  19.211  0.00  0.00    +0.000 OA
BRANCH  10  11
ATOM     11  C   UNL     1      -0.621  11.228  18.274  0.00  0.00    +0.000 C 
BRANCH  11  13
ATOM     12  C   UNL     1      -2.741  11.980  19.349  0.00  0.00    +0.000 C 
ATOM     13  C   UNL     1      -1.509  12.442  18.569  0.00  0.00    +0.000 C 
ATOM     14  C   UNL     1      -0.756  13.516  19.352  0.00  0.00    +0.000 C 
ENDBRANCH  11  13
ENDBRANCH  10  11
ENDBRANCH   4  10
ENDBRANCH   3   7
ENDBRANCH   2   3
ENDBRANCH   1   2
BRANCH   1  15
ATOM     15  C   UNL     1       2.484   3.099  17.747  0.00  0.00    +0.000 C 
BRANCH  15  16
ATOM     16  N   UNL     1       3.871   3.541  17.756  0.00  0.00    +0.000 NA
ATOM     17  C   UNL     1       4.701   3.294  18.704  0.00  0.00    +0.000 C 
ATOM     18  N   UNL     1       5.999   3.735  18.728  0.00  0.00    +0.000 N 
ATOM     19  H   UNL     1       6.534   3.396  19.517  0.00  0.00    +0.000 HD
BRANCH  18  20
ATOM     20  C   UNL     1       6.445   5.005  18.304  0.00  0.00    +0.000 A 
ATOM     21  C   UNL     1       5.783   5.767  17.335  0.00  0.00    +0.000 A 
ATOM     22  C   UNL     1       6.246   7.038  16.982  0.00  0.00    +0.000 A 
ATOM     23  C   UNL     1       7.393   7.555  17.581  0.00  0.00    +0.000 A 
ATOM     24  C   UNL     1       8.073   6.803  18.535  0.00  0.00    +0.000 A 
ATOM     25  C   UNL     1       7.596   5.542  18.900  0.00  0.00    +0.000 A 
ENDBRANCH  18  20
BRANCH  17  26
ATOM     26  S   UNL     1       4.346   2.298  20.111  0.00  0.00    +0.000 S 
ATOM     27  H   UNL     1       5.599   2.121  20.536  0.00  0.00    +0.000 HD
ENDBRANCH  17  26
ENDBRANCH  15  16
ENDBRANCH   1  15
TORSDOF 10
ENDMDL
MODEL 8
REMARK VINA RESULT:      -6.8      3.954      8.019
REMARK  Name = 
REMARK  12 active torsions:
REMARK  status: ('A' for Active; 'I' for Inactive)
REMARK    1  A    between atoms: C_1  and  C_2
REMARK    2  A    between atoms: C_2  and  C_3
REMARK    3  A    between atoms: C_2  and  C_4
REMARK    4  A    between atoms: C_4  and  O_5
REMARK    5  A    between atoms: O_5  and  C_6
REMARK    6  A    between atoms: C_9  and  C_10
REMARK    7  A    between atoms: C_10  and  S_11
REMARK    8  A    between atoms: S_11  and  C_12
REMARK    9  A    between atoms: C_12  and  C_13
REMARK   10  A    between atoms: C_13  and  N_14
REMARK   11  A    between atoms: C_15  and  S_16
REMARK   12  A    between atoms: N_17  and  C_18
REMARK                            x       y       z     vdW  Elec       q    Type
REMARK                         _______ _______ _______ _____ _____    ______ ____
ROOT
ATOM      1  C   UNL     1       3.808   3.046  17.637  0.00  0.00    +0.000 C 
ENDROOT
BRANCH   1   2
ATOM      2  S   UNL     1       5.045   3.987  18.593  0.00  0.00    +0.000 S 
BRANCH   2   3
ATOM      3  C   UNL     1       6.025   4.670  17.224  0.00  0.00    +0.000 C 
BRANCH   3   7
ATOM      4  C   UNL     1       8.231   8.189  18.436  0.00  0.00    +0.000 A 
ATOM      5  C   UNL     1       7.301   8.244  17.393  0.00  0.00    +0.000 A 
ATOM      6  C   UNL     1       6.581   7.111  17.021  0.00  0.00    +0.000 A 
ATOM      7  C   UNL     1       6.773   5.895  17.686  0.00  0.00    +0.000 A 
ATOM      8  C   UNL     1       7.715   5.833  18.722  0.00  0.00    +0.000 A 
ATOM      9  C   UNL     1       8.437   6.977  19.093  0.00  0.00    +0.000 A 
BRANCH   4  10
ATOM     10  O   UNL     1       8.987   9.249  18.874  0.00  0.00    +0.000 OA
BRANCH  10  11
ATOM     11  C   UNL     1       8.743  10.483  18.191  0.00  0.00    +0.000 C 
BRANCH  11  13
ATOM     12  C   UNL     1       9.681  12.721  17.618  0.00  0.00    +0.000 C 
ATOM     13  C   UNL     1      10.036  11.278  17.980  0.00  0.00    +0.000 C 
ATOM     14  C   UNL     1      10.929  11.245  19.219  0.00  0.00    +0.000 C 
ENDBRANCH  11  13
ENDBRANCH  10  11
ENDBRANCH   4  10
ENDBRANCH   3   7
ENDBRANCH   2   3
ENDBRANCH   1   2
BRANCH   1  15
ATOM     15  C   UNL     1       2.412   3.661  17.815  0.00  0.00    +0.000 C 
BRANCH  15  16
ATOM     16  N   UNL     1       2.527   4.951  18.480  0.00  0.00    +0.000 NA
ATOM     17  C   UNL     1       2.182   5.168  19.697  0.00  0.00    +0.000 C 
ATOM     18  N   UNL     1       2.262   6.389  20.316  0.00  0.00    +0.000 N 
ATOM     19  H   UNL     1       2.011   6.371  21.296  0.00  0.00    +0.000 HD
BRANCH  18  20
ATOM     20  C   UNL     1       1.958   7.633  19.724  0.00  0.00    +0.000 A 
ATOM     21  C   UNL     1       2.279   7.953  18.401  0.00  0.00    +0.000 A 
ATOM     22  C   UNL     1       1.918   9.187  17.852  0.00  0.00    +0.000 A 
ATOM     23  C   UNL     1       1.246  10.127  18.630  0.00  0.00    +0.000 A 
ATOM     24  C   UNL     1       0.933   9.832  19.954  0.00  0.00    +0.000 A 
ATOM     25  C   UNL     1       1.279   8.590  20.493  0.00  0.00    +0.000 A 
ENDBRANCH  18  20
BRANCH  17  26
ATOM     26  S   UNL     1       1.604   3.933  20.810  0.00  0.00    +0.000 S 
ATOM     27  H   UNL     1       0.343   4.359  20.925  0.00  0.00    +0.000 HD
ENDBRANCH  17  26
ENDBRANCH  15  16
ENDBRANCH   1  15
TORSDOF 10
ENDMDL
MODEL 9
REMARK VINA RESULT:      -6.7      6.910      9.086
REMARK  Name = 
REMARK  12 active torsions:
REMARK  status: ('A' for Active; 'I' for Inactive)
REMARK    1  A    between atoms: C_1  and  C_2
REMARK    2  A    between atoms: C_2  and  C_3
REMARK    3  A    between atoms: C_2  and  C_4
REMARK    4  A    between atoms: C_4  and  O_5
REMARK    5  A    between atoms: O_5  and  C_6
REMARK    6  A    between atoms: C_9  and  C_10
REMARK    7  A    between atoms: C_10  and  S_11
REMARK    8  A    between atoms: S_11  and  C_12
REMARK    9  A    between atoms: C_12  and  C_13
REMARK   10  A    between atoms: C_13  and  N_14
REMARK   11  A    between atoms: C_15  and  S_16
REMARK   12  A    between atoms: N_17  and  C_18
REMARK                            x       y       z     vdW  Elec       q    Type
REMARK                         _______ _______ _______ _____ _____    ______ ____
ROOT
ATOM      1  C   UNL     1       7.843   7.424  18.111  0.00  0.00    +0.000 C 
ENDROOT
BRANCH   1   2
ATOM      2  S   UNL     1       8.116   9.207  17.836  0.00  0.00    +0.000 S 
BRANCH   2   3
ATOM      3  C   UNL     1       9.054   9.602  19.342  0.00  0.00    +0.000 C 
BRANCH   3   7
ATOM      4  C   UNL     1      11.330  13.236  18.770  0.00  0.00    +0.000 A 
ATOM      5  C   UNL     1      11.042  12.760  20.053  0.00  0.00    +0.000 A 
ATOM      6  C   UNL     1      10.324  11.578  20.229  0.00  0.00    +0.000 A 
ATOM      7  C   UNL     1       9.880  10.844  19.124  0.00  0.00    +0.000 A 
ATOM      8  C   UNL     1      10.154  11.327  17.837  0.00  0.00    +0.000 A 
ATOM      9  C   UNL     1      10.878  12.517  17.666  0.00  0.00    +0.000 A 
BRANCH   4  10
ATOM     10  O   UNL     1      12.029  14.387  18.496  0.00  0.00    +0.000 OA
BRANCH  10  11
ATOM     11  C   UNL     1      11.869  15.431  19.461  0.00  0.00    +0.000 C 
BRANCH  11  13
ATOM     12  C   UNL     1      12.077  16.818  17.400  0.00  0.00    +0.000 C 
ATOM     13  C   UNL     1      11.469  16.755  18.802  0.00  0.00    +0.000 C 
ATOM     14  C   UNL     1       9.951  16.916  18.731  0.00  0.00    +0.000 C 
ENDBRANCH  11  13
ENDBRANCH  10  11
ENDBRANCH   4  10
ENDBRANCH   3   7
ENDBRANCH   2   3
ENDBRANCH   1   2
BRANCH   1  15
ATOM     15  C   UNL     1       7.035   6.820  16.953  0.00  0.00    +0.000 C 
BRANCH  15  16
ATOM     16  N   UNL     1       6.242   5.701  17.442  0.00  0.00    +0.000 NA
ATOM     17  C   UNL     1       5.987   4.644  16.759  0.00  0.00    +0.000 C 
ATOM     18  N   UNL     1       5.216   3.603  17.207  0.00  0.00    +0.000 N 
ATOM     19  H   UNL     1       5.170   2.820  16.568  0.00  0.00    +0.000 HD
BRANCH  18  20
ATOM     20  C   UNL     1       4.034   3.723  17.967  0.00  0.00    +0.000 A 
ATOM     21  C   UNL     1       4.010   3.660  19.365  0.00  0.00    +0.000 A 
ATOM     22  C   UNL     1       2.814   3.826  20.071  0.00  0.00    +0.000 A 
ATOM     23  C   UNL     1       1.621   4.037  19.384  0.00  0.00    +0.000 A 
ATOM     24  C   UNL     1       1.624   4.086  17.992  0.00  0.00    +0.000 A 
ATOM     25  C   UNL     1       2.824   3.939  17.292  0.00  0.00    +0.000 A 
ENDBRANCH  18  20
BRANCH  17  26
ATOM     26  S   UNL     1       6.630   4.310  15.155  0.00  0.00    +0.000 S 
ATOM     27  H   UNL     1       7.111   3.087  15.397  0.00  0.00    +0.000 HD
ENDBRANCH  17  26
ENDBRANCH  15  16
ENDBRANCH   1  15
TORSDOF 10
ENDMDL
