MODEL 1
REMARK VINA RESULT:      -7.8      0.000      0.000
REMARK  Name = 
REMARK  9 active torsions:
REMARK  status: ('A' for Active; 'I' for Inactive)
REMARK    1  A    between atoms: O_1  and  C_2
REMARK    2  A    between atoms: C_5  and  C_6
REMARK    3  A    between atoms: C_6  and  N_7
REMARK    4  A    between atoms: N_7  and  C_8
REMARK    5  A    between atoms: C_8  and  C_9
REMARK    6  A    between atoms: C_8  and  C_15
REMARK    7  A    between atoms: C_15  and  O_16
REMARK    8  A    between atoms: C_15  and  C_17
REMARK    9  A    between atoms: C_23  and  O_24
REMARK                            x       y       z     vdW  Elec       q    Type
REMARK                         _______ _______ _______ _____ _____    ______ ____
ROOT
ATOM      1  C   UNL     1       2.623   5.947  18.340  0.00  0.00    +0.000 C 
ENDROOT
BRANCH   1   2
ATOM      2  C   UNL     1       2.072   4.856  19.269  0.00  0.00    +0.000 A 
ATOM      3  C   UNL     1       2.478   4.815  20.616  0.00  0.00    +0.000 A 
ATOM      4  C   UNL     1       2.108   3.753  21.448  0.00  0.00    +0.000 A 
ATOM      5  C   UNL     1       1.314   2.723  20.953  0.00  0.00    +0.000 A 
ATOM      6  C   UNL     1       0.871   2.765  19.635  0.00  0.00    +0.000 A 
ATOM      7  C   UNL     1       1.248   3.821  18.803  0.00  0.00    +0.000 A 
ENDBRANCH   1   2
BRANCH   1   8
ATOM      8  N   UNL     1       2.711   7.220  19.094  0.00  0.00    +0.000 NA
ATOM      9  H   UNL     1       2.327   7.054  20.028  0.00  0.00    +0.000 HD
BRANCH   8  10
ATOM     10  C   UNL     1       1.950   8.329  18.500  0.00  0.00    +0.000 C 
BRANCH  10  14
ATOM     11  C   UNL     1      -0.151   9.737  21.218  0.00  0.00    +0.000 C 
ATOM     12  C   UNL     1      -0.698  10.243  19.887  0.00  0.00    +0.000 C 
ATOM     13  N   UNL     1       0.441  10.265  18.947  0.00  0.00    +0.000 NA
ATOM     14  C   UNL     1       1.471   9.364  19.530  0.00  0.00    +0.000 C 
ATOM     15  C   UNL     1       0.866   8.697  20.768  0.00  0.00    +0.000 C 
ATOM     16  H   UNL     1       0.836  11.206  18.935  0.00  0.00    +0.000 HD
BRANCH  11  17
ATOM     17  O   UNL     1       0.533  10.784  21.926  0.00  0.00    +0.000 OA
ATOM     18  H   UNL     1       1.430  10.840  21.551  0.00  0.00    +0.000 HD
ENDBRANCH  11  17
BRANCH  15  19
ATOM     19  O   UNL     1       1.844   8.468  21.779  0.00  0.00    +0.000 OA
ATOM     20  H   UNL     1       1.347   8.085  22.532  0.00  0.00    +0.000 HD
ENDBRANCH  15  19
ENDBRANCH  10  14
ENDBRANCH   8  10
ENDBRANCH   1   8
BRANCH   1  21
ATOM     21  C   UNL     1       3.882   5.526  17.479  0.00  0.00    +0.000 C 
BRANCH  21  22
ATOM     22  C   UNL     1       5.289   5.948  17.887  0.00  0.00    +0.000 A 
ATOM     23  C   UNL     1       5.915   5.311  18.973  0.00  0.00    +0.000 A 
ATOM     24  C   UNL     1       7.231   5.617  19.330  0.00  0.00    +0.000 A 
ATOM     25  C   UNL     1       7.954   6.557  18.602  0.00  0.00    +0.000 A 
ATOM     26  C   UNL     1       7.370   7.176  17.506  0.00  0.00    +0.000 A 
ATOM     27  C   UNL     1       6.057   6.859  17.149  0.00  0.00    +0.000 A 
ENDBRANCH  21  22
BRANCH  21  28
ATOM     28  O   UNL     1       3.827   4.107  17.245  0.00  0.00    +0.000 OA
ATOM     29  H   UNL     1       3.600   3.706  18.104  0.00  0.00    +0.000 HD
ENDBRANCH  21  28
ENDBRANCH   1  21
TORSDOF 9
ENDMDL
MODEL 2
REMARK VINA RESULT:      -7.8      0.581      1.162
REMARK  Name = 
REMARK  9 active torsions:
REMARK  status: ('A' for Active; 'I' for Inactive)
REMARK    1  A    between atoms: O_1  and  C_2
REMARK    2  A    between atoms: C_5  and  C_6
REMARK    3  A    between atoms: C_6  and  N_7
REMARK    4  A    between atoms: N_7  and  C_8
REMARK    5  A    between atoms: C_8  and  C_9
REMARK    6  A    between atoms: C_8  and  C_15
REMARK    7  A    between atoms: C_15  and  O_16
REMARK    8  A    between atoms: C_15  and  C_17
REMARK    9  A    between atoms: C_23  and  O_24
REMARK                            x       y       z     vdW  Elec       q    Type
REMARK                         _______ _______ _______ _____ _____    ______ ____
ROOT
ATOM      1  C   UNL     1       2.762   5.844  18.110  0.00  0.00    +0.000 C 
ENDROOT
BRANCH   1   2
ATOM      2  C   UNL     1       2.297   4.774  19.108  0.00  0.00    +0.000 A 
ATOM      3  C   UNL     1       1.352   3.810  18.709  0.00  0.00    +0.000 A 
ATOM      4  C   UNL     1       0.804   2.914  19.633  0.00  0.00    +0.000 A 
ATOM      5  C   UNL     1       1.200   2.955  20.966  0.00  0.00    +0.000 A 
ATOM      6  C   UNL     1       2.161   3.875  21.371  0.00  0.00    +0.000 A 
ATOM      7  C   UNL     1       2.703   4.775  20.451  0.00  0.00    +0.000 A 
ENDBRANCH   1   2
BRANCH   1   8
ATOM      8  N   UNL     1       2.702   7.172  18.768  0.00  0.00    +0.000 NA
ATOM      9  H   UNL     1       2.091   7.085  19.585  0.00  0.00    +0.000 HD
BRANCH   8  10
ATOM     10  C   UNL     1       2.151   8.241  17.922  0.00  0.00    +0.000 C 
BRANCH  10  14
ATOM     11  C   UNL     1      -0.248  10.080  20.076  0.00  0.00    +0.000 C 
ATOM     12  C   UNL     1      -0.563  10.417  18.622  0.00  0.00    +0.000 C 
ATOM     13  N   UNL     1       0.702  10.270  17.875  0.00  0.00    +0.000 NA
ATOM     14  C   UNL     1       1.583   9.423  18.722  0.00  0.00    +0.000 C 
ATOM     15  C   UNL     1       0.766   8.954  19.928  0.00  0.00    +0.000 C 
ATOM     16  H   UNL     1       1.146  11.187  17.801  0.00  0.00    +0.000 HD
BRANCH  11  17
ATOM     17  O   UNL     1       0.380  11.190  20.739  0.00  0.00    +0.000 OA
ATOM     18  H   UNL     1       1.095  10.823  21.289  0.00  0.00    +0.000 HD
ENDBRANCH  11  17
BRANCH  15  19
ATOM     19  O   UNL     1       1.568   8.831  21.098  0.00  0.00    +0.000 OA
ATOM     20  H   UNL     1       0.944   8.932  21.847  0.00  0.00    +0.000 HD
ENDBRANCH  15  19
ENDBRANCH  10  14
ENDBRANCH   8  10
ENDBRANCH   1   8
BRANCH   1  21
ATOM     21  C   UNL     1       4.081   5.491  17.310  0.00  0.00    +0.000 C 
BRANCH  21  22
ATOM     22  C   UNL     1       5.444   5.974  17.791  0.00  0.00    +0.000 A 
ATOM     23  C   UNL     1       6.078   5.312  18.857  0.00  0.00    +0.000 A 
ATOM     24  C   UNL     1       7.360   5.677  19.276  0.00  0.00    +0.000 A 
ATOM     25  C   UNL     1       8.041   6.706  18.631  0.00  0.00    +0.000 A 
ATOM     26  C   UNL     1       7.452   7.354  17.556  0.00  0.00    +0.000 A 
ATOM     27  C   UNL     1       6.173   6.977  17.136  0.00  0.00    +0.000 A 
ENDBRANCH  21  22
BRANCH  21  28
ATOM     28  O   UNL     1       4.105   4.073  17.063  0.00  0.00    +0.000 OA
ATOM     29  H   UNL     1       4.990   3.772  17.339  0.00  0.00    +0.000 HD
ENDBRANCH  21  28
ENDBRANCH   1  21
TORSDOF 9
ENDMDL
MODEL 3
REMARK VINA RESULT:      -7.7      3.044      6.608
REMARK  Name = 
REMARK  9 active torsions:
REMARK  status: ('A' for Active; 'I' for Inactive)
REMARK    1  A    between atoms: O_1  and  C_2
REMARK    2  A    between atoms: C_5  and  C_6
REMARK    3  A    between atoms: C_6  and  N_7
REMARK    4  A    between atoms: N_7  and  C_8
REMARK    5  A    between atoms: C_8  and  C_9
REMARK    6  A    between atoms: C_8  and  C_15
REMARK    7  A    between atoms: C_15  and  O_16
REMARK    8  A    between atoms: C_15  and  C_17
REMARK    9  A    between atoms: C_23  and  O_24
REMARK                            x       y       z     vdW  Elec       q    Type
REMARK                         _______ _______ _______ _____ _____    ______ ____
ROOT
ATOM      1  C   UNL     1       3.783   5.498  17.916  0.00  0.00    +0.000 C 
ENDROOT
BRANCH   1   2
ATOM      2  C   UNL     1       2.882   6.638  18.408  0.00  0.00    +0.000 A 
ATOM      3  C   UNL     1       2.526   7.677  17.528  0.00  0.00    +0.000 A 
ATOM      4  C   UNL     1       1.826   8.799  17.985  0.00  0.00    +0.000 A 
ATOM      5  C   UNL     1       1.458   8.896  19.323  0.00  0.00    +0.000 A 
ATOM      6  C   UNL     1       1.768   7.862  20.200  0.00  0.00    +0.000 A 
ATOM      7  C   UNL     1       2.473   6.745  19.746  0.00  0.00    +0.000 A 
ENDBRANCH   1   2
BRANCH   1   8
ATOM      8  N   UNL     1       5.121   5.640  18.540  0.00  0.00    +0.000 NA
ATOM      9  H   UNL     1       5.567   6.466  18.132  0.00  0.00    +0.000 HD
BRANCH   8  10
ATOM     10  C   UNL     1       6.021   4.500  18.308  0.00  0.00    +0.000 C 
BRANCH  10  14
ATOM     11  C   UNL     1       6.518   5.462  14.757  0.00  0.00    +0.000 C 
ATOM     12  C   UNL     1       5.752   4.143  14.787  0.00  0.00    +0.000 C 
ATOM     13  N   UNL     1       6.135   3.465  16.041  0.00  0.00    +0.000 NA
ATOM     14  C   UNL     1       6.693   4.523  16.926  0.00  0.00    +0.000 C 
ATOM     15  C   UNL     1       6.506   5.870  16.224  0.00  0.00    +0.000 C 
ATOM     16  H   UNL     1       6.893   2.811  15.840  0.00  0.00    +0.000 HD
BRANCH  11  17
ATOM     17  O   UNL     1       7.877   5.259  14.340  0.00  0.00    +0.000 OA
ATOM     18  H   UNL     1       8.174   6.090  13.928  0.00  0.00    +0.000 HD
ENDBRANCH  11  17
BRANCH  15  19
ATOM     19  O   UNL     1       7.570   6.772  16.513  0.00  0.00    +0.000 OA
ATOM     20  H   UNL     1       8.388   6.282  16.283  0.00  0.00    +0.000 HD
ENDBRANCH  15  19
ENDBRANCH  10  14
ENDBRANCH   8  10
ENDBRANCH   1   8
BRANCH   1  21
ATOM     21  C   UNL     1       3.124   4.059  17.938  0.00  0.00    +0.000 C 
BRANCH  21  22
ATOM     22  C   UNL     1       2.524   3.490  19.218  0.00  0.00    +0.000 A 
ATOM     23  C   UNL     1       3.375   3.060  20.251  0.00  0.00    +0.000 A 
ATOM     24  C   UNL     1       2.862   2.603  21.468  0.00  0.00    +0.000 A 
ATOM     25  C   UNL     1       1.487   2.576  21.683  0.00  0.00    +0.000 A 
ATOM     26  C   UNL     1       0.627   3.024  20.692  0.00  0.00    +0.000 A 
ATOM     27  C   UNL     1       1.146   3.489  19.480  0.00  0.00    +0.000 A 
ENDBRANCH  21  22
BRANCH  21  28
ATOM     28  O   UNL     1       2.182   3.968  16.853  0.00  0.00    +0.000 OA
ATOM     29  H   UNL     1       2.048   4.882  16.543  0.00  0.00    +0.000 HD
ENDBRANCH  21  28
ENDBRANCH   1  21
TORSDOF 9
ENDMDL
MODEL 4
REMARK VINA RESULT:      -7.7      0.519      1.105
REMARK  Name = 
REMARK  9 active torsions:
REMARK  status: ('A' for Active; 'I' for Inactive)
REMARK    1  A    between atoms: O_1  and  C_2
REMARK    2  A    between atoms: C_5  and  C_6
REMARK    3  A    between atoms: C_6  and  N_7
REMARK    4  A    between atoms: N_7  and  C_8
REMARK    5  A    between atoms: C_8  and  C_9
REMARK    6  A    between atoms: C_8  and  C_15
REMARK    7  A    between atoms: C_15  and  O_16
REMARK    8  A    between atoms: C_15  and  C_17
REMARK    9  A    between atoms: C_23  and  O_24
REMARK                            x       y       z     vdW  Elec       q    Type
REMARK                         _______ _______ _______ _____ _____    ______ ____
ROOT
ATOM      1  C   UNL     1       2.936   5.823  17.926  0.00  0.00    +0.000 C 
ENDROOT
BRANCH   1   2
ATOM      2  C   UNL     1       2.249   4.896  18.938  0.00  0.00    +0.000 A 
ATOM      3  C   UNL     1       2.556   5.007  20.308  0.00  0.00    +0.000 A 
ATOM      4  C   UNL     1       2.057   4.085  21.234  0.00  0.00    +0.000 A 
ATOM      5  C   UNL     1       1.232   3.047  20.812  0.00  0.00    +0.000 A 
ATOM      6  C   UNL     1       0.887   2.943  19.468  0.00  0.00    +0.000 A 
ATOM      7  C   UNL     1       1.392   3.859  18.543  0.00  0.00    +0.000 A 
ENDBRANCH   1   2
BRANCH   1   8
ATOM      8  N   UNL     1       3.002   7.190  18.495  0.00  0.00    +0.000 NA
ATOM      9  H   UNL     1       2.890   7.109  19.510  0.00  0.00    +0.000 HD
BRANCH   8  10
ATOM     10  C   UNL     1       1.951   8.098  18.012  0.00  0.00    +0.000 C 
BRANCH  10  14
ATOM     11  C   UNL     1       0.130  10.058  20.585  0.00  0.00    +0.000 C 
ATOM     12  C   UNL     1      -0.293  10.572  19.213  0.00  0.00    +0.000 C 
ATOM     13  N   UNL     1       0.839  10.312  18.302  0.00  0.00    +0.000 NA
ATOM     14  C   UNL     1       1.669   9.270  18.964  0.00  0.00    +0.000 C 
ATOM     15  C   UNL     1       0.932   8.815  20.226  0.00  0.00    +0.000 C 
ATOM     16  H   UNL     1       1.410  11.157  18.241  0.00  0.00    +0.000 HD
BRANCH  11  17
ATOM     17  O   UNL     1       0.994  10.997  21.244  0.00  0.00    +0.000 OA
ATOM     18  H   UNL     1       1.134  10.667  22.150  0.00  0.00    +0.000 HD
ENDBRANCH  11  17
BRANCH  15  19
ATOM     19  O   UNL     1       1.834   8.468  21.272  0.00  0.00    +0.000 OA
ATOM     20  H   UNL     1       1.732   7.500  21.386  0.00  0.00    +0.000 HD
ENDBRANCH  15  19
ENDBRANCH  10  14
ENDBRANCH   8  10
ENDBRANCH   1   8
BRANCH   1  21
ATOM     21  C   UNL     1       4.257   5.246  17.272  0.00  0.00    +0.000 C 
BRANCH  21  22
ATOM     22  C   UNL     1       5.630   5.741  17.710  0.00  0.00    +0.000 A 
ATOM     23  C   UNL     1       6.185   6.878  17.096  0.00  0.00    +0.000 A 
ATOM     24  C   UNL     1       7.407   7.406  17.522  0.00  0.00    +0.000 A 
ATOM     25  C   UNL     1       8.096   6.815  18.578  0.00  0.00    +0.000 A 
ATOM     26  C   UNL     1       7.555   5.712  19.221  0.00  0.00    +0.000 A 
ATOM     27  C   UNL     1       6.328   5.195  18.797  0.00  0.00    +0.000 A 
ENDBRANCH  21  22
BRANCH  21  28
ATOM     28  O   UNL     1       4.201   3.808  17.312  0.00  0.00    +0.000 OA
ATOM     29  H   UNL     1       3.263   3.577  17.183  0.00  0.00    +0.000 HD
ENDBRANCH  21  28
ENDBRANCH   1  21
TORSDOF 9
ENDMDL
MODEL 5
REMARK VINA RESULT:      -7.7      2.627      6.265
REMARK  Name = 
REMARK  9 active torsions:
REMARK  status: ('A' for Active; 'I' for Inactive)
REMARK    1  A    between atoms: O_1  and  C_2
REMARK    2  A    between atoms: C_5  and  C_6
REMARK    3  A    between atoms: C_6  and  N_7
REMARK    4  A    between atoms: N_7  and  C_8
REMARK    5  A    between atoms: C_8  and  C_9
REMARK    6  A    between atoms: C_8  and  C_15
REMARK    7  A    between atoms: C_15  and  O_16
REMARK    8  A    between atoms: C_15  and  C_17
REMARK    9  A    between atoms: C_23  and  O_24
REMARK                            x       y       z     vdW  Elec       q    Type
REMARK                         _______ _______ _______ _____ _____    ______ ____
ROOT
ATOM      1  C   UNL     1       3.342   6.099  19.301  0.00  0.00    +0.000 C 
ENDROOT
BRANCH   1   2
ATOM      2  C   UNL     1       2.411   4.914  19.594  0.00  0.00    +0.000 A 
ATOM      3  C   UNL     1       2.344   4.385  20.897  0.00  0.00    +0.000 A 
ATOM      4  C   UNL     1       1.617   3.220  21.164  0.00  0.00    +0.000 A 
ATOM      5  C   UNL     1       0.934   2.573  20.139  0.00  0.00    +0.000 A 
ATOM      6  C   UNL     1       0.957   3.102  18.853  0.00  0.00    +0.000 A 
ATOM      7  C   UNL     1       1.689   4.261  18.585  0.00  0.00    +0.000 A 
ENDBRANCH   1   2
BRANCH   1   8
ATOM      8  N   UNL     1       4.687   5.578  18.955  0.00  0.00    +0.000 NA
ATOM      9  H   UNL     1       5.225   6.352  18.555  0.00  0.00    +0.000 HD
BRANCH   8  10
ATOM     10  C   UNL     1       4.679   4.494  17.961  0.00  0.00    +0.000 C 
BRANCH  10  14
ATOM     11  C   UNL     1       6.359   5.201  14.728  0.00  0.00    +0.000 C 
ATOM     12  C   UNL     1       5.982   3.723  14.751  0.00  0.00    +0.000 C 
ATOM     13  N   UNL     1       5.959   3.320  16.171  0.00  0.00    +0.000 NA
ATOM     14  C   UNL     1       5.836   4.579  16.954  0.00  0.00    +0.000 C 
ATOM     15  C   UNL     1       5.647   5.731  15.964  0.00  0.00    +0.000 C 
ATOM     16  H   UNL     1       6.862   2.905  16.407  0.00  0.00    +0.000 HD
BRANCH  11  17
ATOM     17  O   UNL     1       7.776   5.373  14.895  0.00  0.00    +0.000 OA
ATOM     18  H   UNL     1       8.168   5.376  14.004  0.00  0.00    +0.000 HD
ENDBRANCH  11  17
BRANCH  15  19
ATOM     19  O   UNL     1       6.253   6.934  16.428  0.00  0.00    +0.000 OA
ATOM     20  H   UNL     1       5.824   7.650  15.914  0.00  0.00    +0.000 HD
ENDBRANCH  15  19
ENDBRANCH  10  14
ENDBRANCH   8  10
ENDBRANCH   1   8
BRANCH   1  21
ATOM     21  C   UNL     1       2.735   7.216  18.359  0.00  0.00    +0.000 C 
BRANCH  21  22
ATOM     22  C   UNL     1       1.819   8.300  18.915  0.00  0.00    +0.000 A 
ATOM     23  C   UNL     1       1.226   9.223  18.037  0.00  0.00    +0.000 A 
ATOM     24  C   UNL     1       0.321  10.183  18.499  0.00  0.00    +0.000 A 
ATOM     25  C   UNL     1      -0.018  10.234  19.848  0.00  0.00    +0.000 A 
ATOM     26  C   UNL     1       0.529   9.313  20.730  0.00  0.00    +0.000 A 
ATOM     27  C   UNL     1       1.425   8.350  20.260  0.00  0.00    +0.000 A 
ENDBRANCH  21  22
BRANCH  21  28
ATOM     28  O   UNL     1       3.803   7.801  17.590  0.00  0.00    +0.000 OA
ATOM     29  H   UNL     1       4.346   7.053  17.281  0.00  0.00    +0.000 HD
ENDBRANCH  21  28
ENDBRANCH   1  21
TORSDOF 9
ENDMDL
MODEL 6
REMARK VINA RESULT:      -7.7      2.641      6.226
REMARK  Name = 
REMARK  9 active torsions:
REMARK  status: ('A' for Active; 'I' for Inactive)
REMARK    1  A    between atoms: O_1  and  C_2
REMARK    2  A    between atoms: C_5  and  C_6
REMARK    3  A    between atoms: C_6  and  N_7
REMARK    4  A    between atoms: N_7  and  C_8
REMARK    5  A    between atoms: C_8  and  C_9
REMARK    6  A    between atoms: C_8  and  C_15
REMARK    7  A    between atoms: C_15  and  O_16
REMARK    8  A    between atoms: C_15  and  C_17
REMARK    9  A    between atoms: C_23  and  O_24
REMARK                            x       y       z     vdW  Elec       q    Type
REMARK                         _______ _______ _______ _____ _____    ______ ____
ROOT
ATOM      1  C   UNL     1       3.434   6.029  19.307  0.00  0.00    +0.000 C 
ENDROOT
BRANCH   1   2
ATOM      2  C   UNL     1       2.580   4.791  19.612  0.00  0.00    +0.000 A 
ATOM      3  C   UNL     1       1.790   4.220  18.596  0.00  0.00    +0.000 A 
ATOM      4  C   UNL     1       0.895   3.182  18.878  0.00  0.00    +0.000 A 
ATOM      5  C   UNL     1       0.785   2.687  20.173  0.00  0.00    +0.000 A 
ATOM      6  C   UNL     1       1.585   3.212  21.183  0.00  0.00    +0.000 A 
ATOM      7  C   UNL     1       2.473   4.254  20.903  0.00  0.00    +0.000 A 
ENDBRANCH   1   2
BRANCH   1   8
ATOM      8  N   UNL     1       4.802   5.591  18.939  0.00  0.00    +0.000 NA
ATOM      9  H   UNL     1       5.261   6.375  18.466  0.00  0.00    +0.000 HD
BRANCH   8  10
ATOM     10  C   UNL     1       4.842   4.444  18.019  0.00  0.00    +0.000 C 
BRANCH  10  14
ATOM     11  C   UNL     1       6.368   5.245  14.732  0.00  0.00    +0.000 C 
ATOM     12  C   UNL     1       5.970   3.772  14.722  0.00  0.00    +0.000 C 
ATOM     13  N   UNL     1       6.012   3.318  16.126  0.00  0.00    +0.000 NA
ATOM     14  C   UNL     1       5.948   4.550  16.958  0.00  0.00    +0.000 C 
ATOM     15  C   UNL     1       5.727   5.739  16.021  0.00  0.00    +0.000 C 
ATOM     16  H   UNL     1       6.920   2.883  16.301  0.00  0.00    +0.000 HD
BRANCH  11  17
ATOM     17  O   UNL     1       7.794   5.392  14.833  0.00  0.00    +0.000 OA
ATOM     18  H   UNL     1       7.959   6.209  15.336  0.00  0.00    +0.000 HD
ENDBRANCH  11  17
BRANCH  15  19
ATOM     19  O   UNL     1       6.374   6.916  16.495  0.00  0.00    +0.000 OA
ATOM     20  H   UNL     1       5.646   7.521  16.753  0.00  0.00    +0.000 HD
ENDBRANCH  15  19
ENDBRANCH  10  14
ENDBRANCH   8  10
ENDBRANCH   1   8
BRANCH   1  21
ATOM     21  C   UNL     1       2.746   7.111  18.379  0.00  0.00    +0.000 C 
BRANCH  21  22
ATOM     22  C   UNL     1       1.849   8.193  18.966  0.00  0.00    +0.000 A 
ATOM     23  C   UNL     1       1.543   8.171  20.337  0.00  0.00    +0.000 A 
ATOM     24  C   UNL     1       0.786   9.189  20.926  0.00  0.00    +0.000 A 
ATOM     25  C   UNL     1       0.328  10.255  20.158  0.00  0.00    +0.000 A 
ATOM     26  C   UNL     1       0.644  10.317  18.809  0.00  0.00    +0.000 A 
ATOM     27  C   UNL     1       1.408   9.302  18.228  0.00  0.00    +0.000 A 
ENDBRANCH  21  22
BRANCH  21  28
ATOM     28  O   UNL     1       3.751   7.693  17.527  0.00  0.00    +0.000 OA
ATOM     29  H   UNL     1       3.448   7.532  16.615  0.00  0.00    +0.000 HD
ENDBRANCH  21  28
ENDBRANCH   1  21
TORSDOF 9
ENDMDL
MODEL 7
REMARK VINA RESULT:      -7.6      1.559      1.783
REMARK  Name = 
REMARK  9 active torsions:
REMARK  status: ('A' for Active; 'I' for Inactive)
REMARK    1  A    between atoms: O_1  and  C_2
REMARK    2  A    between atoms: C_5  and  C_6
REMARK    3  A    between atoms: C_6  and  N_7
REMARK    4  A    between atoms: N_7  and  C_8
REMARK    5  A    between atoms: C_8  and  C_9
REMARK    6  A    between atoms: C_8  and  C_15
REMARK    7  A    between atoms: C_15  and  O_16
REMARK    8  A    between atoms: C_15  and  C_17
REMARK    9  A    between atoms: C_23  and  O_24
REMARK                            x       y       z     vdW  Elec       q    Type
REMARK                         _______ _______ _______ _____ _____    ______ ____
ROOT
ATOM      1  C   UNL     1       2.616   5.980  18.112  0.00  0.00    +0.000 C 
ENDROOT
BRANCH   1   2
ATOM      2  C   UNL     1       2.093   4.954  19.127  0.00  0.00    +0.000 A 
ATOM      3  C   UNL     1       2.524   5.014  20.466  0.00  0.00    +0.000 A 
ATOM      4  C   UNL     1       2.179   4.011  21.378  0.00  0.00    +0.000 A 
ATOM      5  C   UNL     1       1.388   2.941  20.974  0.00  0.00    +0.000 A 
ATOM      6  C   UNL     1       0.921   2.884  19.664  0.00  0.00    +0.000 A 
ATOM      7  C   UNL     1       1.271   3.881  18.752  0.00  0.00    +0.000 A 
ENDBRANCH   1   2
BRANCH   1   8
ATOM      8  N   UNL     1       2.614   7.322  18.742  0.00  0.00    +0.000 NA
ATOM      9  H   UNL     1       1.719   7.436  19.226  0.00  0.00    +0.000 HD
BRANCH   8  10
ATOM     10  C   UNL     1       2.740   8.437  17.791  0.00  0.00    +0.000 C 
BRANCH  10  14
ATOM     11  C   UNL     1       1.197  11.521  19.164  0.00  0.00    +0.000 C 
ATOM     12  C   UNL     1       0.677  10.333  19.969  0.00  0.00    +0.000 C 
ATOM     13  N   UNL     1       0.724   9.165  19.068  0.00  0.00    +0.000 NA
ATOM     14  C   UNL     1       1.671   9.525  17.978  0.00  0.00    +0.000 C 
ATOM     15  C   UNL     1       2.292  10.880  18.324  0.00  0.00    +0.000 C 
ATOM     16  H   UNL     1      -0.195   9.044  18.640  0.00  0.00    +0.000 HD
BRANCH  11  17
ATOM     17  O   UNL     1       0.179  12.037  18.291  0.00  0.00    +0.000 OA
ATOM     18  H   UNL     1      -0.662  11.992  18.779  0.00  0.00    +0.000 HD
ENDBRANCH  11  17
BRANCH  15  19
ATOM     19  O   UNL     1       2.561  11.653  17.158  0.00  0.00    +0.000 OA
ATOM     20  H   UNL     1       1.925  11.330  16.486  0.00  0.00    +0.000 HD
ENDBRANCH  15  19
ENDBRANCH  10  14
ENDBRANCH   8  10
ENDBRANCH   1   8
BRANCH   1  21
ATOM     21  C   UNL     1       3.922   5.549  17.330  0.00  0.00    +0.000 C 
BRANCH  21  22
ATOM     22  C   UNL     1       5.305   5.943  17.834  0.00  0.00    +0.000 A 
ATOM     23  C   UNL     1       5.856   5.273  18.940  0.00  0.00    +0.000 A 
ATOM     24  C   UNL     1       7.152   5.554  19.384  0.00  0.00    +0.000 A 
ATOM     25  C   UNL     1       7.928   6.503  18.726  0.00  0.00    +0.000 A 
ATOM     26  C   UNL     1       7.419   7.155  17.612  0.00  0.00    +0.000 A 
ATOM     27  C   UNL     1       6.127   6.863  17.167  0.00  0.00    +0.000 A 
ENDBRANCH  21  22
BRANCH  21  28
ATOM     28  O   UNL     1       3.861   4.133  17.075  0.00  0.00    +0.000 OA
ATOM     29  H   UNL     1       2.956   3.862  17.312  0.00  0.00    +0.000 HD
ENDBRANCH  21  28
ENDBRANCH   1  21
TORSDOF 9
ENDMDL
MODEL 8
REMARK VINA RESULT:      -7.6      2.181      6.552
REMARK  Name = 
REMARK  9 active torsions:
REMARK  status: ('A' for Active; 'I' for Inactive)
REMARK    1  A    between atoms: O_1  and  C_2
REMARK    2  A    between atoms: C_5  and  C_6
REMARK    3  A    between atoms: C_6  and  N_7
REMARK    4  A    between atoms: N_7  and  C_8
REMARK    5  A    between atoms: C_8  and  C_9
REMARK    6  A    between atoms: C_8  and  C_15
REMARK    7  A    between atoms: C_15  and  O_16
REMARK    8  A    between atoms: C_15  and  C_17
REMARK    9  A    between atoms: C_23  and  O_24
REMARK                            x       y       z     vdW  Elec       q    Type
REMARK                         _______ _______ _______ _____ _____    ______ ____
ROOT
ATOM      1  C   UNL     1       2.863   7.038  18.432  0.00  0.00    +0.000 C 
ENDROOT
BRANCH   1   2
ATOM      2  C   UNL     1       2.064   8.308  18.757  0.00  0.00    +0.000 A 
ATOM      3  C   UNL     1       2.096   9.400  17.869  0.00  0.00    +0.000 A 
ATOM      4  C   UNL     1       1.497  10.619  18.206  0.00  0.00    +0.000 A 
ATOM      5  C   UNL     1       0.843  10.763  19.425  0.00  0.00    +0.000 A 
ATOM      6  C   UNL     1       0.768   9.683  20.299  0.00  0.00    +0.000 A 
ATOM      7  C   UNL     1       1.373   8.469  19.967  0.00  0.00    +0.000 A 
ENDBRANCH   1   2
BRANCH   1   8
ATOM      8  N   UNL     1       4.136   7.426  17.777  0.00  0.00    +0.000 NA
ATOM      9  H   UNL     1       4.062   8.414  17.518  0.00  0.00    +0.000 HD
BRANCH   8  10
ATOM     10  C   UNL     1       4.437   6.676  16.549  0.00  0.00    +0.000 C 
BRANCH  10  14
ATOM     11  C   UNL     1       7.303   4.746  17.905  0.00  0.00    +0.000 C 
ATOM     12  C   UNL     1       7.581   6.228  18.133  0.00  0.00    +0.000 C 
ATOM     13  N   UNL     1       6.860   6.957  17.072  0.00  0.00    +0.000 NA
ATOM     14  C   UNL     1       5.826   6.019  16.558  0.00  0.00    +0.000 C 
ATOM     15  C   UNL     1       5.856   4.763  17.432  0.00  0.00    +0.000 C 
ATOM     16  H   UNL     1       7.507   7.141  16.303  0.00  0.00    +0.000 HD
BRANCH  11  17
ATOM     17  O   UNL     1       8.132   4.221  16.855  0.00  0.00    +0.000 OA
ATOM     18  H   UNL     1       7.575   3.621  16.327  0.00  0.00    +0.000 HD
ENDBRANCH  11  17
BRANCH  15  19
ATOM     19  O   UNL     1       5.548   3.589  16.686  0.00  0.00    +0.000 OA
ATOM     20  H   UNL     1       4.669   3.302  17.014  0.00  0.00    +0.000 HD
ENDBRANCH  15  19
ENDBRANCH  10  14
ENDBRANCH   8  10
ENDBRANCH   1   8
BRANCH   1  21
ATOM     21  C   UNL     1       2.946   5.976  19.602  0.00  0.00    +0.000 C 
BRANCH  21  22
ATOM     22  C   UNL     1       2.259   4.621  19.484  0.00  0.00    +0.000 A 
ATOM     23  C   UNL     1       2.280   3.939  18.255  0.00  0.00    +0.000 A 
ATOM     24  C   UNL     1       1.727   2.661  18.128  0.00  0.00    +0.000 A 
ATOM     25  C   UNL     1       1.150   2.035  19.228  0.00  0.00    +0.000 A 
ATOM     26  C   UNL     1       1.145   2.673  20.459  0.00  0.00    +0.000 A 
ATOM     27  C   UNL     1       1.708   3.946  20.583  0.00  0.00    +0.000 A 
ENDBRANCH  21  22
BRANCH  21  28
ATOM     28  O   UNL     1       4.326   5.812  19.978  0.00  0.00    +0.000 OA
ATOM     29  H   UNL     1       4.530   4.871  19.831  0.00  0.00    +0.000 HD
ENDBRANCH  21  28
ENDBRANCH   1  21
TORSDOF 9
ENDMDL
MODEL 9
REMARK VINA RESULT:      -7.6      2.236      6.352
REMARK  Name = 
REMARK  9 active torsions:
REMARK  status: ('A' for Active; 'I' for Inactive)
REMARK    1  A    between atoms: O_1  and  C_2
REMARK    2  A    between atoms: C_5  and  C_6
REMARK    3  A    between atoms: C_6  and  N_7
REMARK    4  A    between atoms: N_7  and  C_8
REMARK    5  A    between atoms: C_8  and  C_9
REMARK    6  A    between atoms: C_8  and  C_15
REMARK    7  A    between atoms: C_15  and  O_16
REMARK    8  A    between atoms: C_15  and  C_17
REMARK    9  A    between atoms: C_23  and  O_24
REMARK                            x       y       z     vdW  Elec       q    Type
REMARK                         _______ _______ _______ _____ _____    ______ ____
ROOT
ATOM      1  C   UNL     1       2.891   6.713  19.169  0.00  0.00    +0.000 C 
ENDROOT
BRANCH   1   2
ATOM      2  C   UNL     1       2.248   5.329  19.326  0.00  0.00    +0.000 A 
ATOM      3  C   UNL     1       1.911   4.581  18.181  0.00  0.00    +0.000 A 
ATOM      4  C   UNL     1       1.196   3.384  18.288  0.00  0.00    +0.000 A 
ATOM      5  C   UNL     1       0.819   2.905  19.539  0.00  0.00    +0.000 A 
ATOM      6  C   UNL     1       1.176   3.610  20.684  0.00  0.00    +0.000 A 
ATOM      7  C   UNL     1       1.883   4.809  20.576  0.00  0.00    +0.000 A 
ENDBRANCH   1   2
BRANCH   1   8
ATOM      8  N   UNL     1       4.106   6.587  18.330  0.00  0.00    +0.000 NA
ATOM      9  H   UNL     1       3.805   6.327  17.386  0.00  0.00    +0.000 HD
BRANCH   8  10
ATOM     10  C   UNL     1       5.051   5.555  18.786  0.00  0.00    +0.000 C 
BRANCH  10  14
ATOM     11  C   UNL     1       6.355   5.064  15.345  0.00  0.00    +0.000 C 
ATOM     12  C   UNL     1       5.611   3.797  15.754  0.00  0.00    +0.000 C 
ATOM     13  N   UNL     1       5.696   3.719  17.226  0.00  0.00    +0.000 NA
ATOM     14  C   UNL     1       6.026   5.092  17.692  0.00  0.00    +0.000 C 
ATOM     15  C   UNL     1       5.999   6.020  16.475  0.00  0.00    +0.000 C 
ATOM     16  H   UNL     1       6.484   3.119  17.477  0.00  0.00    +0.000 HD
BRANCH  11  17
ATOM     17  O   UNL     1       7.776   4.850  15.344  0.00  0.00    +0.000 OA
ATOM     18  H   UNL     1       8.187   5.680  15.042  0.00  0.00    +0.000 HD
ENDBRANCH  11  17
BRANCH  15  19
ATOM     19  O   UNL     1       6.961   7.065  16.583  0.00  0.00    +0.000 OA
ATOM     20  H   UNL     1       7.363   6.951  17.470  0.00  0.00    +0.000 HD
ENDBRANCH  15  19
ENDBRANCH  10  14
ENDBRANCH   8  10
ENDBRANCH   1   8
BRANCH   1  21
ATOM     21  C   UNL     1       1.888   7.886  18.818  0.00  0.00    +0.000 C 
BRANCH  21  22
ATOM     22  C   UNL     1       1.215   8.701  19.916  0.00  0.00    +0.000 A 
ATOM     23  C   UNL     1       1.393   8.331  21.260  0.00  0.00    +0.000 A 
ATOM     24  C   UNL     1       0.855   9.097  22.299  0.00  0.00    +0.000 A 
ATOM     25  C   UNL     1       0.136  10.255  22.015  0.00  0.00    +0.000 A 
ATOM     26  C   UNL     1      -0.026  10.659  20.698  0.00  0.00    +0.000 A 
ATOM     27  C   UNL     1       0.522   9.894  19.665  0.00  0.00    +0.000 A 
ENDBRANCH  21  22
BRANCH  21  28
ATOM     28  O   UNL     1       2.515   8.755  17.855  0.00  0.00    +0.000 OA
ATOM     29  H   UNL     1       1.956   8.712  17.058  0.00  0.00    +0.000 HD
ENDBRANCH  21  28
ENDBRANCH   1  21
TORSDOF 9
ENDMDL
