MODEL 1
REMARK VINA RESULT:      -7.2      0.000      0.000
REMARK  Name = 
REMARK  6 active torsions:
REMARK  status: ('A' for Active; 'I' for Inactive)
REMARK    1  A    between atoms: C_1  and  C_2
REMARK    2  A    between atoms: C_2  and  C_3
REMARK    3  A    between atoms: C_2  and  C_4
REMARK    4  A    between atoms: C_7  and  N_8
REMARK    5  A    between atoms: N_8  and  N_9
REMARK    6  A    between atoms: C_10  and  C_12
REMARK                            x       y       z     vdW  Elec       q    Type
REMARK                         _______ _______ _______ _____ _____    ______ ____
ROOT
ATOM      1  N   UNL     1       5.857   4.005  19.000  0.00  0.00    +0.000 N 
ATOM      2  H   UNL     1       6.356   4.701  19.569  0.00  0.00    +0.000 HD
ENDROOT
BRANCH   1   6
ATOM      3  C   UNL     1       6.293   4.577  14.797  0.00  0.00    +0.000 A 
ATOM      4  C   UNL     1       7.382   4.709  15.668  0.00  0.00    +0.000 A 
ATOM      5  C   UNL     1       7.219   4.553  17.054  0.00  0.00    +0.000 A 
ATOM      6  C   UNL     1       5.960   4.285  17.612  0.00  0.00    +0.000 A 
ATOM      7  C   UNL     1       4.879   4.143  16.734  0.00  0.00    +0.000 A 
ATOM      8  C   UNL     1       5.037   4.301  15.351  0.00  0.00    +0.000 A 
BRANCH   3  10
ATOM      9  C   UNL     1       7.888   5.209  12.945  0.00  0.00    +0.000 C 
ATOM     10  C   UNL     1       6.489   4.692  13.294  0.00  0.00    +0.000 C 
ATOM     11  C   UNL     1       6.210   3.367  12.579  0.00  0.00    +0.000 C 
ENDBRANCH   3  10
ENDBRANCH   1   6
BRANCH   1  12
ATOM     12  N   UNL     1       4.538   3.857  19.466  0.00  0.00    +0.000 N 
ATOM     13  C   UNL     1       4.203   2.662  20.091  0.00  0.00    +0.000 C 
ATOM     14  O   UNL     1       5.053   1.802  20.339  0.00  0.00    +0.000 OA
ATOM     15  H   UNL     1       3.828   4.438  19.041  0.00  0.00    +0.000 HD
BRANCH  13  16
ATOM     16  C   UNL     1       2.691   2.568  20.451  0.00  0.00    +0.000 C 
ATOM     17  C   UNL     1       1.927   3.871  20.815  0.00  0.00    +0.000 C 
ATOM     18  C   UNL     1       0.697   3.262  20.109  0.00  0.00    +0.000 C 
ATOM     19  C   UNL     1       1.688   2.430  19.271  0.00  0.00    +0.000 C 
ENDBRANCH  13  16
ENDBRANCH   1  12
TORSDOF 4
ENDMDL
MODEL 2
REMARK VINA RESULT:      -7.1      0.303      1.192
REMARK  Name = 
REMARK  6 active torsions:
REMARK  status: ('A' for Active; 'I' for Inactive)
REMARK    1  A    between atoms: C_1  and  C_2
REMARK    2  A    between atoms: C_2  and  C_3
REMARK    3  A    between atoms: C_2  and  C_4
REMARK    4  A    between atoms: C_7  and  N_8
REMARK    5  A    between atoms: N_8  and  N_9
REMARK    6  A    between atoms: C_10  and  C_12
REMARK                            x       y       z     vdW  Elec       q    Type
REMARK                         _______ _______ _______ _____ _____    ______ ____
ROOT
ATOM      1  N   UNL     1       5.811   4.047  18.889  0.00  0.00    +0.000 N 
ATOM      2  H   UNL     1       6.152   4.879  19.384  0.00  0.00    +0.000 HD
ENDROOT
BRANCH   1   6
ATOM      3  C   UNL     1       6.428   4.500  14.694  0.00  0.00    +0.000 A 
ATOM      4  C   UNL     1       5.230   3.982  15.204  0.00  0.00    +0.000 A 
ATOM      5  C   UNL     1       5.052   3.805  16.585  0.00  0.00    +0.000 A 
ATOM      6  C   UNL     1       6.073   4.116  17.495  0.00  0.00    +0.000 A 
ATOM      7  C   UNL     1       7.263   4.643  16.979  0.00  0.00    +0.000 A 
ATOM      8  C   UNL     1       7.445   4.819  15.601  0.00  0.00    +0.000 A 
BRANCH   3  10
ATOM      9  C   UNL     1       7.977   5.303  12.868  0.00  0.00    +0.000 C 
ATOM     10  C   UNL     1       6.591   4.740  13.202  0.00  0.00    +0.000 C 
ATOM     11  C   UNL     1       6.314   3.474  12.387  0.00  0.00    +0.000 C 
ENDBRANCH   3  10
ENDBRANCH   1   6
BRANCH   1  12
ATOM     12  N   UNL     1       4.463   3.810  19.214  0.00  0.00    +0.000 N 
ATOM     13  C   UNL     1       4.166   2.667  19.948  0.00  0.00    +0.000 C 
ATOM     14  O   UNL     1       5.055   1.941  20.403  0.00  0.00    +0.000 OA
ATOM     15  H   UNL     1       3.761   4.254  18.637  0.00  0.00    +0.000 HD
BRANCH  13  16
ATOM     16  C   UNL     1       2.636   2.449  20.140  0.00  0.00    +0.000 C 
ATOM     17  C   UNL     1       1.738   3.681  20.440  0.00  0.00    +0.000 C 
ATOM     18  C   UNL     1       0.642   2.998  19.595  0.00  0.00    +0.000 C 
ATOM     19  C   UNL     1       1.779   2.265  18.856  0.00  0.00    +0.000 C 
ENDBRANCH  13  16
ENDBRANCH   1  12
TORSDOF 4
ENDMDL
MODEL 3
REMARK VINA RESULT:      -7.0      2.504      6.851
REMARK  Name = 
REMARK  6 active torsions:
REMARK  status: ('A' for Active; 'I' for Inactive)
REMARK    1  A    between atoms: C_1  and  C_2
REMARK    2  A    between atoms: C_2  and  C_3
REMARK    3  A    between atoms: C_2  and  C_4
REMARK    4  A    between atoms: C_7  and  N_8
REMARK    5  A    between atoms: N_8  and  N_9
REMARK    6  A    between atoms: C_10  and  C_12
REMARK                            x       y       z     vdW  Elec       q    Type
REMARK                         _______ _______ _______ _____ _____    ______ ____
ROOT
ATOM      1  N   UNL     1       6.475   3.957  16.357  0.00  0.00    +0.000 N 
ATOM      2  H   UNL     1       7.094   3.252  16.777  0.00  0.00    +0.000 HD
ENDROOT
BRANCH   1   6
ATOM      3  C   UNL     1       3.041   4.409  18.843  0.00  0.00    +0.000 A 
ATOM      4  C   UNL     1       2.950   3.831  17.570  0.00  0.00    +0.000 A 
ATOM      5  C   UNL     1       4.081   3.720  16.747  0.00  0.00    +0.000 A 
ATOM      6  C   UNL     1       5.331   4.204  17.160  0.00  0.00    +0.000 A 
ATOM      7  C   UNL     1       5.417   4.769  18.438  0.00  0.00    +0.000 A 
ATOM      8  C   UNL     1       4.290   4.885  19.261  0.00  0.00    +0.000 A 
BRANCH   3  10
ATOM      9  C   UNL     1       0.852   3.322  19.477  0.00  0.00    +0.000 C 
ATOM     10  C   UNL     1       1.823   4.476  19.750  0.00  0.00    +0.000 C 
ATOM     11  C   UNL     1       2.214   4.511  21.229  0.00  0.00    +0.000 C 
ENDBRANCH   3  10
ENDBRANCH   1   6
BRANCH   1  12
ATOM     12  N   UNL     1       6.185   3.610  15.024  0.00  0.00    +0.000 N 
ATOM     13  C   UNL     1       6.718   4.407  14.018  0.00  0.00    +0.000 C 
ATOM     14  O   UNL     1       7.513   5.317  14.267  0.00  0.00    +0.000 OA
ATOM     15  H   UNL     1       5.361   3.047  14.860  0.00  0.00    +0.000 HD
BRANCH  13  16
ATOM     16  C   UNL     1       6.228   3.999  12.597  0.00  0.00    +0.000 C 
ATOM     17  C   UNL     1       6.687   2.635  12.012  0.00  0.00    +0.000 C 
ATOM     18  C   UNL     1       5.297   2.533  11.349  0.00  0.00    +0.000 C 
ATOM     19  C   UNL     1       4.780   3.448  12.476  0.00  0.00    +0.000 C 
ENDBRANCH  13  16
ENDBRANCH   1  12
TORSDOF 4
ENDMDL
MODEL 4
REMARK VINA RESULT:      -6.9      2.249      3.606
REMARK  Name = 
REMARK  6 active torsions:
REMARK  status: ('A' for Active; 'I' for Inactive)
REMARK    1  A    between atoms: C_1  and  C_2
REMARK    2  A    between atoms: C_2  and  C_3
REMARK    3  A    between atoms: C_2  and  C_4
REMARK    4  A    between atoms: C_7  and  N_8
REMARK    5  A    between atoms: N_8  and  N_9
REMARK    6  A    between atoms: C_10  and  C_12
REMARK                            x       y       z     vdW  Elec       q    Type
REMARK                         _______ _______ _______ _____ _____    ______ ____
ROOT
ATOM      1  N   UNL     1       7.430   5.817  15.850  0.00  0.00    +0.000 N 
ATOM      2  H   UNL     1       7.643   6.780  15.562  0.00  0.00    +0.000 HD
ENDROOT
BRANCH   1   6
ATOM      3  C   UNL     1       6.034   3.595  12.489  0.00  0.00    +0.000 A 
ATOM      4  C   UNL     1       5.357   3.566  13.716  0.00  0.00    +0.000 A 
ATOM      5  C   UNL     1       5.846   4.274  14.825  0.00  0.00    +0.000 A 
ATOM      6  C   UNL     1       7.037   5.011  14.750  0.00  0.00    +0.000 A 
ATOM      7  C   UNL     1       7.702   5.044  13.518  0.00  0.00    +0.000 A 
ATOM      8  C   UNL     1       7.219   4.337  12.410  0.00  0.00    +0.000 A 
BRANCH   3  10
ATOM      9  C   UNL     1       5.820   1.379  11.297  0.00  0.00    +0.000 C 
ATOM     10  C   UNL     1       5.468   2.870  11.279  0.00  0.00    +0.000 C 
ATOM     11  C   UNL     1       3.955   3.065  11.154  0.00  0.00    +0.000 C 
ENDBRANCH   3  10
ENDBRANCH   1   6
BRANCH   1  12
ATOM     12  N   UNL     1       6.515   5.825  16.919  0.00  0.00    +0.000 N 
ATOM     13  C   UNL     1       6.803   5.030  18.023  0.00  0.00    +0.000 C 
ATOM     14  O   UNL     1       7.876   4.427  18.123  0.00  0.00    +0.000 OA
ATOM     15  H   UNL     1       5.566   6.107  16.716  0.00  0.00    +0.000 HD
BRANCH  13  16
ATOM     16  C   UNL     1       5.663   5.026  19.083  0.00  0.00    +0.000 C 
ATOM     17  C   UNL     1       4.315   5.716  18.733  0.00  0.00    +0.000 C 
ATOM     18  C   UNL     1       3.618   4.606  19.548  0.00  0.00    +0.000 C 
ATOM     19  C   UNL     1       4.838   3.718  19.234  0.00  0.00    +0.000 C 
ENDBRANCH  13  16
ENDBRANCH   1  12
TORSDOF 4
ENDMDL
MODEL 5
REMARK VINA RESULT:      -6.9      3.204      6.565
REMARK  Name = 
REMARK  6 active torsions:
REMARK  status: ('A' for Active; 'I' for Inactive)
REMARK    1  A    between atoms: C_1  and  C_2
REMARK    2  A    between atoms: C_2  and  C_3
REMARK    3  A    between atoms: C_2  and  C_4
REMARK    4  A    between atoms: C_7  and  N_8
REMARK    5  A    between atoms: N_8  and  N_9
REMARK    6  A    between atoms: C_10  and  C_12
REMARK                            x       y       z     vdW  Elec       q    Type
REMARK                         _______ _______ _______ _____ _____    ______ ____
ROOT
ATOM      1  N   UNL     1       6.568   3.961  16.187  0.00  0.00    +0.000 N 
ATOM      2  H   UNL     1       6.834   3.138  16.742  0.00  0.00    +0.000 HD
ENDROOT
BRANCH   1   6
ATOM      3  C   UNL     1       3.417   6.316  17.834  0.00  0.00    +0.000 A 
ATOM      4  C   UNL     1       4.537   6.910  17.237  0.00  0.00    +0.000 A 
ATOM      5  C   UNL     1       5.584   6.124  16.730  0.00  0.00    +0.000 A 
ATOM      6  C   UNL     1       5.556   4.726  16.826  0.00  0.00    +0.000 A 
ATOM      7  C   UNL     1       4.428   4.139  17.413  0.00  0.00    +0.000 A 
ATOM      8  C   UNL     1       3.383   4.919  17.923  0.00  0.00    +0.000 A 
BRANCH   3  10
ATOM      9  C   UNL     1       2.193   7.194  19.860  0.00  0.00    +0.000 C 
ATOM     10  C   UNL     1       2.263   7.172  18.330  0.00  0.00    +0.000 C 
ATOM     11  C   UNL     1       2.329   8.596  17.773  0.00  0.00    +0.000 C 
ENDBRANCH   3  10
ENDBRANCH   1   6
BRANCH   1  12
ATOM     12  N   UNL     1       6.259   3.576  14.870  0.00  0.00    +0.000 N 
ATOM     13  C   UNL     1       6.793   4.331  13.833  0.00  0.00    +0.000 C 
ATOM     14  O   UNL     1       7.604   5.237  14.044  0.00  0.00    +0.000 OA
ATOM     15  H   UNL     1       5.425   3.020  14.732  0.00  0.00    +0.000 HD
BRANCH  13  16
ATOM     16  C   UNL     1       6.284   3.884  12.430  0.00  0.00    +0.000 C 
ATOM     17  C   UNL     1       6.504   2.410  11.991  0.00  0.00    +0.000 C 
ATOM     18  C   UNL     1       5.141   2.497  11.272  0.00  0.00    +0.000 C 
ATOM     19  C   UNL     1       4.764   3.593  12.288  0.00  0.00    +0.000 C 
ENDBRANCH  13  16
ENDBRANCH   1  12
TORSDOF 4
ENDMDL
MODEL 6
REMARK VINA RESULT:      -6.9      2.443      6.932
REMARK  Name = 
REMARK  6 active torsions:
REMARK  status: ('A' for Active; 'I' for Inactive)
REMARK    1  A    between atoms: C_1  and  C_2
REMARK    2  A    between atoms: C_2  and  C_3
REMARK    3  A    between atoms: C_2  and  C_4
REMARK    4  A    between atoms: C_7  and  N_8
REMARK    5  A    between atoms: N_8  and  N_9
REMARK    6  A    between atoms: C_10  and  C_12
REMARK                            x       y       z     vdW  Elec       q    Type
REMARK                         _______ _______ _______ _____ _____    ______ ____
ROOT
ATOM      1  N   UNL     1       4.930   6.387  16.332  0.00  0.00    +0.000 N 
ATOM      2  H   UNL     1       5.712   6.884  16.776  0.00  0.00    +0.000 HD
ENDROOT
BRANCH   1   6
ATOM      3  C   UNL     1       2.239   4.506  19.053  0.00  0.00    +0.000 A 
ATOM      4  C   UNL     1       2.521   5.876  19.134  0.00  0.00    +0.000 A 
ATOM      5  C   UNL     1       3.436   6.477  18.255  0.00  0.00    +0.000 A 
ATOM      6  C   UNL     1       4.113   5.724  17.286  0.00  0.00    +0.000 A 
ATOM      7  C   UNL     1       3.818   4.358  17.202  0.00  0.00    +0.000 A 
ATOM      8  C   UNL     1       2.908   3.754  18.080  0.00  0.00    +0.000 A 
BRANCH   3  10
ATOM      9  C   UNL     1       0.602   2.609  19.359  0.00  0.00    +0.000 C 
ATOM     10  C   UNL     1       1.207   3.875  19.973  0.00  0.00    +0.000 C 
ATOM     11  C   UNL     1       1.784   3.578  21.359  0.00  0.00    +0.000 C 
ENDBRANCH   3  10
ENDBRANCH   1   6
BRANCH   1  12
ATOM     12  N   UNL     1       5.409   5.557  15.302  0.00  0.00    +0.000 N 
ATOM     13  C   UNL     1       6.744   5.174  15.347  0.00  0.00    +0.000 C 
ATOM     14  O   UNL     1       7.463   5.448  16.313  0.00  0.00    +0.000 OA
ATOM     15  H   UNL     1       4.899   5.560  14.428  0.00  0.00    +0.000 HD
BRANCH  13  16
ATOM     16  C   UNL     1       7.187   4.362  14.094  0.00  0.00    +0.000 C 
ATOM     17  C   UNL     1       6.093   3.757  13.172  0.00  0.00    +0.000 C 
ATOM     18  C   UNL     1       7.032   4.054  11.984  0.00  0.00    +0.000 C 
ATOM     19  C   UNL     1       7.645   5.172  12.849  0.00  0.00    +0.000 C 
ENDBRANCH  13  16
ENDBRANCH   1  12
TORSDOF 4
ENDMDL
MODEL 7
REMARK VINA RESULT:      -6.9      2.677      6.712
REMARK  Name = 
REMARK  6 active torsions:
REMARK  status: ('A' for Active; 'I' for Inactive)
REMARK    1  A    between atoms: C_1  and  C_2
REMARK    2  A    between atoms: C_2  and  C_3
REMARK    3  A    between atoms: C_2  and  C_4
REMARK    4  A    between atoms: C_7  and  N_8
REMARK    5  A    between atoms: N_8  and  N_9
REMARK    6  A    between atoms: C_10  and  C_12
REMARK                            x       y       z     vdW  Elec       q    Type
REMARK                         _______ _______ _______ _____ _____    ______ ____
ROOT
ATOM      1  N   UNL     1       6.625   3.954  16.326  0.00  0.00    +0.000 N 
ATOM      2  H   UNL     1       7.249   3.238  16.718  0.00  0.00    +0.000 HD
ENDROOT
BRANCH   1   6
ATOM      3  C   UNL     1       3.314   5.024  18.791  0.00  0.00    +0.000 A 
ATOM      4  C   UNL     1       4.628   5.351  19.151  0.00  0.00    +0.000 A 
ATOM      5  C   UNL     1       5.713   4.963  18.349  0.00  0.00    +0.000 A 
ATOM      6  C   UNL     1       5.520   4.215  17.178  0.00  0.00    +0.000 A 
ATOM      7  C   UNL     1       4.203   3.902  16.818  0.00  0.00    +0.000 A 
ATOM      8  C   UNL     1       3.119   4.285  17.618  0.00  0.00    +0.000 A 
BRANCH   3  10
ATOM      9  C   UNL     1       2.042   4.714  20.950  0.00  0.00    +0.000 C 
ATOM     10  C   UNL     1       2.143   5.496  19.636  0.00  0.00    +0.000 C 
ATOM     11  C   UNL     1       2.206   7.001  19.909  0.00  0.00    +0.000 C 
ENDBRANCH   3  10
ENDBRANCH   1   6
BRANCH   1  12
ATOM     12  N   UNL     1       6.274   3.618  15.006  0.00  0.00    +0.000 N 
ATOM     13  C   UNL     1       6.774   4.413  13.981  0.00  0.00    +0.000 C 
ATOM     14  O   UNL     1       7.591   5.311  14.200  0.00  0.00    +0.000 OA
ATOM     15  H   UNL     1       5.436   3.067  14.875  0.00  0.00    +0.000 HD
BRANCH  13  16
ATOM     16  C   UNL     1       6.219   4.018  12.580  0.00  0.00    +0.000 C 
ATOM     17  C   UNL     1       6.620   2.643  11.978  0.00  0.00    +0.000 C 
ATOM     18  C   UNL     1       5.203   2.577  11.371  0.00  0.00    +0.000 C 
ATOM     19  C   UNL     1       4.753   3.504  12.517  0.00  0.00    +0.000 C 
ENDBRANCH  13  16
ENDBRANCH   1  12
TORSDOF 4
ENDMDL
MODEL 8
REMARK VINA RESULT:      -6.8      2.363      6.875
REMARK  Name = 
REMARK  6 active torsions:
REMARK  status: ('A' for Active; 'I' for Inactive)
REMARK    1  A    between atoms: C_1  and  C_2
REMARK    2  A    between atoms: C_2  and  C_3
REMARK    3  A    between atoms: C_2  and  C_4
REMARK    4  A    between atoms: C_7  and  N_8
REMARK    5  A    between atoms: N_8  and  N_9
REMARK    6  A    between atoms: C_10  and  C_12
REMARK                            x       y       z     vdW  Elec       q    Type
REMARK                         _______ _______ _______ _____ _____    ______ ____
ROOT
ATOM      1  N   UNL     1       5.200   6.218  16.488  0.00  0.00    +0.000 N 
ATOM      2  H   UNL     1       6.007   6.388  17.101  0.00  0.00    +0.000 HD
ENDROOT
BRANCH   1   6
ATOM      3  C   UNL     1       2.110   4.396  18.793  0.00  0.00    +0.000 A 
ATOM      4  C   UNL     1       2.806   3.680  17.810  0.00  0.00    +0.000 A 
ATOM      5  C   UNL     1       3.797   4.301  17.033  0.00  0.00    +0.000 A 
ATOM      6  C   UNL     1       4.105   5.659  17.199  0.00  0.00    +0.000 A 
ATOM      7  C   UNL     1       3.414   6.365  18.191  0.00  0.00    +0.000 A 
ATOM      8  C   UNL     1       2.422   5.750  18.966  0.00  0.00    +0.000 A 
BRANCH   3  10
ATOM      9  C   UNL     1       0.663   2.347  19.084  0.00  0.00    +0.000 C 
ATOM     10  C   UNL     1       1.077   3.702  19.666  0.00  0.00    +0.000 C 
ATOM     11  C   UNL     1       1.565   3.542  21.108  0.00  0.00    +0.000 C 
ENDBRANCH   3  10
ENDBRANCH   1   6
BRANCH   1  12
ATOM     12  N   UNL     1       5.599   5.477  15.361  0.00  0.00    +0.000 N 
ATOM     13  C   UNL     1       6.869   4.912  15.373  0.00  0.00    +0.000 C 
ATOM     14  O   UNL     1       7.584   4.952  16.379  0.00  0.00    +0.000 OA
ATOM     15  H   UNL     1       5.124   5.667  14.489  0.00  0.00    +0.000 HD
BRANCH  13  16
ATOM     16  C   UNL     1       7.241   4.223  14.027  0.00  0.00    +0.000 C 
ATOM     17  C   UNL     1       6.098   3.704  13.112  0.00  0.00    +0.000 C 
ATOM     18  C   UNL     1       6.971   4.115  11.909  0.00  0.00    +0.000 C 
ATOM     19  C   UNL     1       7.632   5.149  12.841  0.00  0.00    +0.000 C 
ENDBRANCH  13  16
ENDBRANCH   1  12
TORSDOF 4
ENDMDL
MODEL 9
REMARK VINA RESULT:      -6.8      1.704      2.395
REMARK  Name = 
REMARK  6 active torsions:
REMARK  status: ('A' for Active; 'I' for Inactive)
REMARK    1  A    between atoms: C_1  and  C_2
REMARK    2  A    between atoms: C_2  and  C_3
REMARK    3  A    between atoms: C_2  and  C_4
REMARK    4  A    between atoms: C_7  and  N_8
REMARK    5  A    between atoms: N_8  and  N_9
REMARK    6  A    between atoms: C_10  and  C_12
REMARK                            x       y       z     vdW  Elec       q    Type
REMARK                         _______ _______ _______ _____ _____    ______ ____
ROOT
ATOM      1  N   UNL     1       5.196   5.442  18.942  0.00  0.00    +0.000 N 
ATOM      2  H   UNL     1       5.039   6.458  18.944  0.00  0.00    +0.000 HD
ENDROOT
BRANCH   1   6
ATOM      3  C   UNL     1       6.234   4.261  14.978  0.00  0.00    +0.000 A 
ATOM      4  C   UNL     1       4.949   4.042  15.492  0.00  0.00    +0.000 A 
ATOM      5  C   UNL     1       4.630   4.403  16.811  0.00  0.00    +0.000 A 
ATOM      6  C   UNL     1       5.590   4.971  17.661  0.00  0.00    +0.000 A 
ATOM      7  C   UNL     1       6.868   5.198  17.137  0.00  0.00    +0.000 A 
ATOM      8  C   UNL     1       7.191   4.836  15.823  0.00  0.00    +0.000 A 
BRANCH   3  10
ATOM      9  C   UNL     1       5.283   3.686  12.711  0.00  0.00    +0.000 C 
ATOM     10  C   UNL     1       6.555   3.918  13.532  0.00  0.00    +0.000 C 
ATOM     11  C   UNL     1       7.434   4.985  12.875  0.00  0.00    +0.000 C 
ENDBRANCH   3  10
ENDBRANCH   1   6
BRANCH   1  12
ATOM     12  N   UNL     1       4.082   4.779  19.486  0.00  0.00    +0.000 N 
ATOM     13  C   UNL     1       2.946   5.535  19.754  0.00  0.00    +0.000 C 
ATOM     14  O   UNL     1       2.866   6.721  19.421  0.00  0.00    +0.000 OA
ATOM     15  H   UNL     1       4.251   3.907  19.969  0.00  0.00    +0.000 HD
BRANCH  13  16
ATOM     16  C   UNL     1       1.827   4.720  20.466  0.00  0.00    +0.000 C 
ATOM     17  C   UNL     1       1.218   3.491  19.734  0.00  0.00    +0.000 C 
ATOM     18  C   UNL     1       1.104   2.816  21.117  0.00  0.00    +0.000 C 
ATOM     19  C   UNL     1       2.271   3.716  21.567  0.00  0.00    +0.000 C 
ENDBRANCH  13  16
ENDBRANCH   1  12
TORSDOF 4
ENDMDL
