MODEL 1
REMARK VINA RESULT:      -8.8      0.000      0.000
REMARK  Name = 
REMARK  6 active torsions:
REMARK  status: ('A' for Active; 'I' for Inactive)
REMARK    1  A    between atoms: C_4  and  C_5
REMARK    2  A    between atoms: C_5  and  N_6
REMARK    3  A    between atoms: C_10  and  C_11
REMARK    4  A    between atoms: C_11  and  C_12
REMARK    5  A    between atoms: C_11  and  N_18
REMARK    6  A    between atoms: N_21  and  C_22
REMARK                            x       y       z     vdW  Elec       q    Type
REMARK                         _______ _______ _______ _____ _____    ______ ____
ROOT
ATOM      1  C   UNL     1       4.065   5.926  17.450  0.00  0.00    +0.000 C 
ENDROOT
BRANCH   1   2
ATOM      2  C   UNL     1       3.958   4.512  18.005  0.00  0.00    +0.000 A 
ATOM      3  C   UNL     1       3.193   3.503  17.400  0.00  0.00    +0.000 A 
ATOM      4  C   UNL     1       3.192   2.209  17.911  0.00  0.00    +0.000 A 
ATOM      5  C   UNL     1       3.944   1.954  19.039  0.00  0.00    +0.000 A 
ATOM      6  N   UNL     1       4.672   2.895  19.678  0.00  0.00    +0.000 NA
ATOM      7  C   UNL     1       4.660   4.143  19.151  0.00  0.00    +0.000 A 
ENDBRANCH   1   2
BRANCH   1   8
ATOM      8  N   UNL     1       3.281   6.941  18.183  0.00  0.00    +0.000 NA
ATOM      9  C   UNL     1       2.308   6.430  19.154  0.00  0.00    +0.000 C 
ATOM     10  C   UNL     1       2.123   7.509  20.221  0.00  0.00    +0.000 C 
ATOM     11  N   UNL     1       1.514   8.749  19.717  0.00  0.00    +0.000 NA
ATOM     12  C   UNL     1       2.057   9.121  18.388  0.00  0.00    +0.000 C 
ATOM     13  C   UNL     1       2.602   7.999  17.427  0.00  0.00    +0.000 C 
BRANCH  11  14
ATOM     14  C   UNL     1       0.063   8.847  19.970  0.00  0.00    +0.000 C 
ATOM     15  C   UNL     1      -0.255   8.679  21.485  0.00  0.00    +0.000 C 
ATOM     16  C   UNL     1       0.409   9.765  22.334  0.00  0.00    +0.000 C 
ATOM     17  C   UNL     1       0.025  11.172  21.885  0.00  0.00    +0.000 C 
ATOM     18  C   UNL     1       0.028  11.375  20.368  0.00  0.00    +0.000 C 
ATOM     19  C   UNL     1      -0.575  10.201  19.593  0.00  0.00    +0.000 C 
ENDBRANCH  11  14
ENDBRANCH   1   8
BRANCH   1  24
ATOM     20  N   UNL     1       6.547   5.788  16.689  0.00  0.00    +0.000 N 
ATOM     21  N   UNL     1       7.569   6.659  16.519  0.00  0.00    +0.000 NA
ATOM     22  N   UNL     1       7.203   7.757  17.158  0.00  0.00    +0.000 NA
ATOM     23  N   UNL     1       5.949   7.619  17.675  0.00  0.00    +0.000 NA
ATOM     24  C   UNL     1       5.504   6.420  17.323  0.00  0.00    +0.000 A 
BRANCH  20  25
ATOM     25  C   UNL     1       6.682   4.460  16.128  0.00  0.00    +0.000 C 
BRANCH  25  29
ATOM     26  C   UNL     1       6.715   4.070  11.813  0.00  0.00    +0.000 A 
ATOM     27  C   UNL     1       7.639   4.883  12.462  0.00  0.00    +0.000 A 
ATOM     28  C   UNL     1       7.578   5.053  13.851  0.00  0.00    +0.000 A 
ATOM     29  C   UNL     1       6.586   4.404  14.612  0.00  0.00    +0.000 A 
ATOM     30  C   UNL     1       5.650   3.608  13.932  0.00  0.00    +0.000 A 
ATOM     31  C   UNL     1       5.712   3.442  12.545  0.00  0.00    +0.000 A 
ENDBRANCH  25  29
ENDBRANCH  20  25
ENDBRANCH   1  24
TORSDOF 6
ENDMDL
MODEL 2
REMARK VINA RESULT:      -7.8      0.745      1.550
REMARK  Name = 
REMARK  6 active torsions:
REMARK  status: ('A' for Active; 'I' for Inactive)
REMARK    1  A    between atoms: C_4  and  C_5
REMARK    2  A    between atoms: C_5  and  N_6
REMARK    3  A    between atoms: C_10  and  C_11
REMARK    4  A    between atoms: C_11  and  C_12
REMARK    5  A    between atoms: C_11  and  N_18
REMARK    6  A    between atoms: N_21  and  C_22
REMARK                            x       y       z     vdW  Elec       q    Type
REMARK                         _______ _______ _______ _____ _____    ______ ____
ROOT
ATOM      1  C   UNL     1       4.003   5.648  17.372  0.00  0.00    +0.000 C 
ENDROOT
BRANCH   1   2
ATOM      2  C   UNL     1       3.969   4.257  17.991  0.00  0.00    +0.000 A 
ATOM      3  C   UNL     1       3.239   3.189  17.447  0.00  0.00    +0.000 A 
ATOM      4  C   UNL     1       3.305   1.921  18.014  0.00  0.00    +0.000 A 
ATOM      5  C   UNL     1       4.088   1.750  19.136  0.00  0.00    +0.000 A 
ATOM      6  N   UNL     1       4.785   2.750  19.719  0.00  0.00    +0.000 NA
ATOM      7  C   UNL     1       4.707   3.972  19.138  0.00  0.00    +0.000 A 
ENDBRANCH   1   2
BRANCH   1   8
ATOM      8  N   UNL     1       3.079   6.623  17.987  0.00  0.00    +0.000 NA
ATOM      9  C   UNL     1       3.171   8.001  17.494  0.00  0.00    +0.000 C 
ATOM     10  C   UNL     1       1.801   8.649  17.699  0.00  0.00    +0.000 C 
ATOM     11  N   UNL     1       1.416   8.794  19.111  0.00  0.00    +0.000 NA
ATOM     12  C   UNL     1       1.783   7.594  19.902  0.00  0.00    +0.000 C 
ATOM     13  C   UNL     1       3.001   6.706  19.449  0.00  0.00    +0.000 C 
BRANCH  11  14
ATOM     14  C   UNL     1       1.664  10.141  19.662  0.00  0.00    +0.000 C 
ATOM     15  C   UNL     1       1.080  11.245  18.732  0.00  0.00    +0.000 C 
ATOM     16  C   UNL     1      -0.436  11.114  18.568  0.00  0.00    +0.000 C 
ATOM     17  C   UNL     1      -1.170  11.134  19.907  0.00  0.00    +0.000 C 
ATOM     18  C   UNL     1      -0.513  10.291  21.001  0.00  0.00    +0.000 C 
ATOM     19  C   UNL     1       1.012  10.414  21.035  0.00  0.00    +0.000 C 
ENDBRANCH  11  14
ENDBRANCH   1   8
BRANCH   1  24
ATOM     20  N   UNL     1       6.521   5.735  16.732  0.00  0.00    +0.000 N 
ATOM     21  N   UNL     1       7.474   6.691  16.639  0.00  0.00    +0.000 NA
ATOM     22  N   UNL     1       6.990   7.734  17.291  0.00  0.00    +0.000 NA
ATOM     23  N   UNL     1       5.728   7.479  17.741  0.00  0.00    +0.000 NA
ATOM     24  C   UNL     1       5.400   6.260  17.332  0.00  0.00    +0.000 A 
BRANCH  20  25
ATOM     25  C   UNL     1       6.790   4.442  16.139  0.00  0.00    +0.000 C 
BRANCH  25  29
ATOM     26  C   UNL     1       6.711   4.100  11.821  0.00  0.00    +0.000 A 
ATOM     27  C   UNL     1       7.647   4.911  12.454  0.00  0.00    +0.000 A 
ATOM     28  C   UNL     1       7.622   5.065  13.846  0.00  0.00    +0.000 A 
ATOM     29  C   UNL     1       6.655   4.402  14.626  0.00  0.00    +0.000 A 
ATOM     30  C   UNL     1       5.705   3.608  13.962  0.00  0.00    +0.000 A 
ATOM     31  C   UNL     1       5.731   3.458  12.572  0.00  0.00    +0.000 A 
ENDBRANCH  25  29
ENDBRANCH  20  25
ENDBRANCH   1  24
TORSDOF 6
ENDMDL
MODEL 3
REMARK VINA RESULT:      -7.7      0.984      1.023
REMARK  Name = 
REMARK  6 active torsions:
REMARK  status: ('A' for Active; 'I' for Inactive)
REMARK    1  A    between atoms: C_4  and  C_5
REMARK    2  A    between atoms: C_5  and  N_6
REMARK    3  A    between atoms: C_10  and  C_11
REMARK    4  A    between atoms: C_11  and  C_12
REMARK    5  A    between atoms: C_11  and  N_18
REMARK    6  A    between atoms: N_21  and  C_22
REMARK                            x       y       z     vdW  Elec       q    Type
REMARK                         _______ _______ _______ _____ _____    ______ ____
ROOT
ATOM      1  C   UNL     1       3.698   5.424  17.569  0.00  0.00    +0.000 C 
ENDROOT
BRANCH   1   2
ATOM      2  C   UNL     1       3.163   4.156  18.224  0.00  0.00    +0.000 A 
ATOM      3  C   UNL     1       2.061   3.442  17.732  0.00  0.00    +0.000 A 
ATOM      4  C   UNL     1       1.662   2.250  18.327  0.00  0.00    +0.000 A 
ATOM      5  C   UNL     1       2.368   1.805  19.426  0.00  0.00    +0.000 A 
ATOM      6  N   UNL     1       3.416   2.470  19.959  0.00  0.00    +0.000 NA
ATOM      7  C   UNL     1       3.785   3.623  19.350  0.00  0.00    +0.000 A 
ENDBRANCH   1   2
BRANCH   1   8
ATOM      8  N   UNL     1       3.133   6.681  18.099  0.00  0.00    +0.000 NA
ATOM      9  C   UNL     1       2.033   6.542  19.059  0.00  0.00    +0.000 C 
ATOM     10  C   UNL     1       2.053   7.782  19.953  0.00  0.00    +0.000 C 
ATOM     11  N   UNL     1       1.755   9.035  19.242  0.00  0.00    +0.000 NA
ATOM     12  C   UNL     1       2.419   9.079  17.916  0.00  0.00    +0.000 C 
ATOM     13  C   UNL     1       2.736   7.735  17.160  0.00  0.00    +0.000 C 
BRANCH  11  14
ATOM     14  C   UNL     1       0.354   9.479  19.377  0.00  0.00    +0.000 C 
ATOM     15  C   UNL     1      -0.057   9.597  20.874  0.00  0.00    +0.000 C 
ATOM     16  C   UNL     1       0.799  10.620  21.624  0.00  0.00    +0.000 C 
ATOM     17  C   UNL     1       0.759  12.001  20.974  0.00  0.00    +0.000 C 
ATOM     18  C   UNL     1       0.871  11.985  19.448  0.00  0.00    +0.000 C 
ATOM     19  C   UNL     1       0.053  10.874  18.786  0.00  0.00    +0.000 C 
ENDBRANCH  11  14
ENDBRANCH   1   8
BRANCH   1  24
ATOM     20  N   UNL     1       6.115   4.839  16.809  0.00  0.00    +0.000 N 
ATOM     21  N   UNL     1       7.337   5.412  16.906  0.00  0.00    +0.000 NA
ATOM     22  N   UNL     1       7.215   6.341  17.838  0.00  0.00    +0.000 NA
ATOM     23  N   UNL     1       5.930   6.408  18.288  0.00  0.00    +0.000 NA
ATOM     24  C   UNL     1       5.221   5.524  17.598  0.00  0.00    +0.000 A 
BRANCH  20  25
ATOM     25  C   UNL     1       5.948   3.739  15.882  0.00  0.00    +0.000 C 
BRANCH  25  29
ATOM     26  C   UNL     1       7.338   4.475  11.845  0.00  0.00    +0.000 A 
ATOM     27  C   UNL     1       7.857   5.190  12.919  0.00  0.00    +0.000 A 
ATOM     28  C   UNL     1       7.355   4.990  14.211  0.00  0.00    +0.000 A 
ATOM     29  C   UNL     1       6.321   4.064  14.445  0.00  0.00    +0.000 A 
ATOM     30  C   UNL     1       5.795   3.371  13.342  0.00  0.00    +0.000 A 
ATOM     31  C   UNL     1       6.298   3.574  12.053  0.00  0.00    +0.000 A 
ENDBRANCH  25  29
ENDBRANCH  20  25
ENDBRANCH   1  24
TORSDOF 6
ENDMDL
MODEL 4
REMARK VINA RESULT:      -7.7      1.576      2.098
REMARK  Name = 
REMARK  6 active torsions:
REMARK  status: ('A' for Active; 'I' for Inactive)
REMARK    1  A    between atoms: C_4  and  C_5
REMARK    2  A    between atoms: C_5  and  N_6
REMARK    3  A    between atoms: C_10  and  C_11
REMARK    4  A    between atoms: C_11  and  C_12
REMARK    5  A    between atoms: C_11  and  N_18
REMARK    6  A    between atoms: N_21  and  C_22
REMARK                            x       y       z     vdW  Elec       q    Type
REMARK                         _______ _______ _______ _____ _____    ______ ____
ROOT
ATOM      1  C   UNL     1       3.511   5.350  18.230  0.00  0.00    +0.000 C 
ENDROOT
BRANCH   1   2
ATOM      2  C   UNL     1       2.756   4.154  18.794  0.00  0.00    +0.000 A 
ATOM      3  C   UNL     1       2.801   3.784  20.147  0.00  0.00    +0.000 A 
ATOM      4  C   UNL     1       2.031   2.727  20.621  0.00  0.00    +0.000 A 
ATOM      5  C   UNL     1       1.244   2.040  19.719  0.00  0.00    +0.000 A 
ATOM      6  N   UNL     1       1.189   2.334  18.402  0.00  0.00    +0.000 NA
ATOM      7  C   UNL     1       1.943   3.376  17.974  0.00  0.00    +0.000 A 
ENDBRANCH   1   2
BRANCH   1   8
ATOM      8  N   UNL     1       2.952   6.667  18.599  0.00  0.00    +0.000 NA
ATOM      9  C   UNL     1       1.827   6.651  19.540  0.00  0.00    +0.000 C 
ATOM     10  C   UNL     1       1.843   7.984  20.288  0.00  0.00    +0.000 C 
ATOM     11  N   UNL     1       1.583   9.152  19.433  0.00  0.00    +0.000 NA
ATOM     12  C   UNL     1       2.280   9.037  18.129  0.00  0.00    +0.000 C 
ATOM     13  C   UNL     1       2.596   7.613  17.537  0.00  0.00    +0.000 C 
BRANCH  11  14
ATOM     14  C   UNL     1       0.186   9.626  19.479  0.00  0.00    +0.000 C 
ATOM     15  C   UNL     1      -0.231  10.005  20.931  0.00  0.00    +0.000 C 
ATOM     16  C   UNL     1       0.632  11.135  21.498  0.00  0.00    +0.000 C 
ATOM     17  C   UNL     1       0.610  12.382  20.619  0.00  0.00    +0.000 C 
ATOM     18  C   UNL     1       0.730  12.101  19.120  0.00  0.00    +0.000 C 
ATOM     19  C   UNL     1      -0.097  10.900  18.655  0.00  0.00    +0.000 C 
ENDBRANCH  11  14
ENDBRANCH   1   8
BRANCH   1  24
ATOM     20  N   UNL     1       6.022   5.894  17.831  0.00  0.00    +0.000 N 
ATOM     21  N   UNL     1       7.142   5.958  18.588  0.00  0.00    +0.000 NA
ATOM     22  N   UNL     1       6.840   5.332  19.713  0.00  0.00    +0.000 NA
ATOM     23  N   UNL     1       5.537   4.929  19.707  0.00  0.00    +0.000 NA
ATOM     24  C   UNL     1       5.000   5.342  18.566  0.00  0.00    +0.000 A 
BRANCH  20  25
ATOM     25  C   UNL     1       6.063   6.467  16.502  0.00  0.00    +0.000 C 
BRANCH  25  29
ATOM     26  C   UNL     1       6.334   3.791  13.106  0.00  0.00    +0.000 A 
ATOM     27  C   UNL     1       5.212   3.787  13.929  0.00  0.00    +0.000 A 
ATOM     28  C   UNL     1       5.163   4.610  15.061  0.00  0.00    +0.000 A 
ATOM     29  C   UNL     1       6.243   5.454  15.384  0.00  0.00    +0.000 A 
ATOM     30  C   UNL     1       7.375   5.422  14.553  0.00  0.00    +0.000 A 
ATOM     31  C   UNL     1       7.422   4.598  13.424  0.00  0.00    +0.000 A 
ENDBRANCH  25  29
ENDBRANCH  20  25
ENDBRANCH   1  24
TORSDOF 6
ENDMDL
MODEL 5
REMARK VINA RESULT:      -7.6      0.920      1.387
REMARK  Name = 
REMARK  6 active torsions:
REMARK  status: ('A' for Active; 'I' for Inactive)
REMARK    1  A    between atoms: C_4  and  C_5
REMARK    2  A    between atoms: C_5  and  N_6
REMARK    3  A    between atoms: C_10  and  C_11
REMARK    4  A    between atoms: C_11  and  C_12
REMARK    5  A    between atoms: C_11  and  N_18
REMARK    6  A    between atoms: N_21  and  C_22
REMARK                            x       y       z     vdW  Elec       q    Type
REMARK                         _______ _______ _______ _____ _____    ______ ____
ROOT
ATOM      1  C   UNL     1       3.236   5.985  17.630  0.00  0.00    +0.000 C 
ENDROOT
BRANCH   1   2
ATOM      2  C   UNL     1       2.984   4.654  18.326  0.00  0.00    +0.000 A 
ATOM      3  C   UNL     1       1.911   3.808  18.005  0.00  0.00    +0.000 A 
ATOM      4  C   UNL     1       1.773   2.569  18.622  0.00  0.00    +0.000 A 
ATOM      5  C   UNL     1       2.706   2.209  19.573  0.00  0.00    +0.000 A 
ATOM      6  N   UNL     1       3.738   2.998  19.942  0.00  0.00    +0.000 NA
ATOM      7  C   UNL     1       3.850   4.195  19.315  0.00  0.00    +0.000 A 
ENDBRANCH   1   2
BRANCH   1   8
ATOM      8  N   UNL     1       2.662   7.161  18.315  0.00  0.00    +0.000 NA
ATOM      9  C   UNL     1       1.804   6.882  19.470  0.00  0.00    +0.000 C 
ATOM     10  C   UNL     1       1.875   8.099  20.393  0.00  0.00    +0.000 C 
ATOM     11  N   UNL     1       1.308   9.324  19.808  0.00  0.00    +0.000 NA
ATOM     12  C   UNL     1       1.677   9.467  18.379  0.00  0.00    +0.000 C 
ATOM     13  C   UNL     1       1.972   8.182  17.519  0.00  0.00    +0.000 C 
BRANCH  11  14
ATOM     14  C   UNL     1      -0.074   9.607  20.242  0.00  0.00    +0.000 C 
ATOM     15  C   UNL     1      -0.093  10.521  21.502  0.00  0.00    +0.000 C 
ATOM     16  C   UNL     1       0.566  11.877  21.236  0.00  0.00    +0.000 C 
ATOM     17  C   UNL     1      -0.073  12.614  20.061  0.00  0.00    +0.000 C 
ATOM     18  C   UNL     1      -0.366  11.732  18.846  0.00  0.00    +0.000 C 
ATOM     19  C   UNL     1      -0.940  10.361  19.209  0.00  0.00    +0.000 C 
ENDBRANCH  11  14
ENDBRANCH   1   8
BRANCH   1  24
ATOM     20  N   UNL     1       5.540   5.561  16.503  0.00  0.00    +0.000 N 
ATOM     21  N   UNL     1       6.672   6.272  16.291  0.00  0.00    +0.000 NA
ATOM     22  N   UNL     1       6.589   7.311  17.104  0.00  0.00    +0.000 NA
ATOM     23  N   UNL     1       5.405   7.304  17.779  0.00  0.00    +0.000 NA
ATOM     24  C   UNL     1       4.713   6.255  17.354  0.00  0.00    +0.000 A 
BRANCH  20  25
ATOM     25  C   UNL     1       5.365   4.323  15.772  0.00  0.00    +0.000 C 
BRANCH  25  29
ATOM     26  C   UNL     1       7.243   4.328  11.868  0.00  0.00    +0.000 A 
ATOM     27  C   UNL     1       6.158   3.499  12.136  0.00  0.00    +0.000 A 
ATOM     28  C   UNL     1       5.600   3.458  13.420  0.00  0.00    +0.000 A 
ATOM     29  C   UNL     1       6.123   4.254  14.458  0.00  0.00    +0.000 A 
ATOM     30  C   UNL     1       7.234   5.064  14.169  0.00  0.00    +0.000 A 
ATOM     31  C   UNL     1       7.790   5.102  12.887  0.00  0.00    +0.000 A 
ENDBRANCH  25  29
ENDBRANCH  20  25
ENDBRANCH   1  24
TORSDOF 6
ENDMDL
MODEL 6
REMARK VINA RESULT:      -7.6      1.742      2.190
REMARK  Name = 
REMARK  6 active torsions:
REMARK  status: ('A' for Active; 'I' for Inactive)
REMARK    1  A    between atoms: C_4  and  C_5
REMARK    2  A    between atoms: C_5  and  N_6
REMARK    3  A    between atoms: C_10  and  C_11
REMARK    4  A    between atoms: C_11  and  C_12
REMARK    5  A    between atoms: C_11  and  N_18
REMARK    6  A    between atoms: N_21  and  C_22
REMARK                            x       y       z     vdW  Elec       q    Type
REMARK                         _______ _______ _______ _____ _____    ______ ____
ROOT
ATOM      1  C   UNL     1       3.085   5.422  18.730  0.00  0.00    +0.000 C 
ENDROOT
BRANCH   1   2
ATOM      2  C   UNL     1       2.447   4.389  19.651  0.00  0.00    +0.000 A 
ATOM      3  C   UNL     1       1.682   3.310  19.185  0.00  0.00    +0.000 A 
ATOM      4  C   UNL     1       1.187   2.355  20.067  0.00  0.00    +0.000 A 
ATOM      5  C   UNL     1       1.450   2.515  21.412  0.00  0.00    +0.000 A 
ATOM      6  N   UNL     1       2.154   3.551  21.916  0.00  0.00    +0.000 NA
ATOM      7  C   UNL     1       2.630   4.459  21.030  0.00  0.00    +0.000 A 
ENDBRANCH   1   2
BRANCH   1   8
ATOM      8  N   UNL     1       2.611   6.807  18.930  0.00  0.00    +0.000 NA
ATOM      9  C   UNL     1       1.512   6.983  19.884  0.00  0.00    +0.000 C 
ATOM     10  C   UNL     1       1.623   8.401  20.447  0.00  0.00    +0.000 C 
ATOM     11  N   UNL     1       1.408   9.458  19.448  0.00  0.00    +0.000 NA
ATOM     12  C   UNL     1       2.064   9.130  18.158  0.00  0.00    +0.000 C 
ATOM     13  C   UNL     1       2.282   7.624  17.757  0.00  0.00    +0.000 C 
BRANCH  11  14
ATOM     14  C   UNL     1       0.042  10.017  19.455  0.00  0.00    +0.000 C 
ATOM     15  C   UNL     1      -0.418  10.358  20.903  0.00  0.00    +0.000 C 
ATOM     16  C   UNL     1       0.485  11.405  21.560  0.00  0.00    +0.000 C 
ATOM     17  C   UNL     1       0.580  12.689  20.739  0.00  0.00    +0.000 C 
ATOM     18  C   UNL     1       0.752  12.467  19.236  0.00  0.00    +0.000 C 
ATOM     19  C   UNL     1      -0.124  11.342  18.679  0.00  0.00    +0.000 C 
ENDBRANCH  11  14
ENDBRANCH   1   8
BRANCH   1  24
ATOM     20  N   UNL     1       5.474   5.896  17.821  0.00  0.00    +0.000 N 
ATOM     21  N   UNL     1       6.717   6.001  18.345  0.00  0.00    +0.000 NA
ATOM     22  N   UNL     1       6.635   5.469  19.552  0.00  0.00    +0.000 NA
ATOM     23  N   UNL     1       5.355   5.086  19.825  0.00  0.00    +0.000 NA
ATOM     24  C   UNL     1       4.611   5.417  18.778  0.00  0.00    +0.000 A 
BRANCH  20  25
ATOM     25  C   UNL     1       5.261   6.364  16.468  0.00  0.00    +0.000 C 
BRANCH  25  29
ATOM     26  C   UNL     1       6.545   3.904  13.141  0.00  0.00    +0.000 A 
ATOM     27  C   UNL     1       5.277   3.751  13.693  0.00  0.00    +0.000 A 
ATOM     28  C   UNL     1       4.896   4.507  14.809  0.00  0.00    +0.000 A 
ATOM     29  C   UNL     1       5.785   5.432  15.389  0.00  0.00    +0.000 A 
ATOM     30  C   UNL     1       7.068   5.552  14.829  0.00  0.00    +0.000 A 
ATOM     31  C   UNL     1       7.446   4.795  13.716  0.00  0.00    +0.000 A 
ENDBRANCH  25  29
ENDBRANCH  20  25
ENDBRANCH   1  24
TORSDOF 6
ENDMDL
MODEL 7
REMARK VINA RESULT:      -7.5      1.482      2.349
REMARK  Name = 
REMARK  6 active torsions:
REMARK  status: ('A' for Active; 'I' for Inactive)
REMARK    1  A    between atoms: C_4  and  C_5
REMARK    2  A    between atoms: C_5  and  N_6
REMARK    3  A    between atoms: C_10  and  C_11
REMARK    4  A    between atoms: C_11  and  C_12
REMARK    5  A    between atoms: C_11  and  N_18
REMARK    6  A    between atoms: N_21  and  C_22
REMARK                            x       y       z     vdW  Elec       q    Type
REMARK                         _______ _______ _______ _____ _____    ______ ____
ROOT
ATOM      1  C   UNL     1       3.271   5.403  17.891  0.00  0.00    +0.000 C 
ENDROOT
BRANCH   1   2
ATOM      2  C   UNL     1       2.676   4.040  18.219  0.00  0.00    +0.000 A 
ATOM      3  C   UNL     1       1.338   3.855  18.601  0.00  0.00    +0.000 A 
ATOM      4  C   UNL     1       0.830   2.578  18.816  0.00  0.00    +0.000 A 
ATOM      5  C   UNL     1       1.683   1.505  18.664  0.00  0.00    +0.000 A 
ATOM      6  N   UNL     1       2.986   1.629  18.330  0.00  0.00    +0.000 NA
ATOM      7  C   UNL     1       3.448   2.885  18.119  0.00  0.00    +0.000 A 
ENDBRANCH   1   2
BRANCH   1   8
ATOM      8  N   UNL     1       2.517   6.554  18.429  0.00  0.00    +0.000 NA
ATOM      9  C   UNL     1       2.776   7.850  17.794  0.00  0.00    +0.000 C 
ATOM     10  C   UNL     1       1.518   8.701  17.971  0.00  0.00    +0.000 C 
ATOM     11  N   UNL     1       1.216   9.037  19.371  0.00  0.00    +0.000 NA
ATOM     12  C   UNL     1       1.449   7.881  20.270  0.00  0.00    +0.000 C 
ATOM     13  C   UNL     1       2.513   6.790  19.876  0.00  0.00    +0.000 C 
BRANCH  11  14
ATOM     14  C   UNL     1       1.670  10.383  19.772  0.00  0.00    +0.000 C 
ATOM     15  C   UNL     1       1.208  11.461  18.748  0.00  0.00    +0.000 C 
ATOM     16  C   UNL     1      -0.317  11.530  18.638  0.00  0.00    +0.000 C 
ATOM     17  C   UNL     1      -0.987  11.786  19.986  0.00  0.00    +0.000 C 
ATOM     18  C   UNL     1      -0.409  10.971  21.144  0.00  0.00    +0.000 C 
ATOM     19  C   UNL     1       1.118  10.880  21.126  0.00  0.00    +0.000 C 
ENDBRANCH  11  14
ENDBRANCH   1   8
BRANCH   1  24
ATOM     20  N   UNL     1       5.751   6.122  17.587  0.00  0.00    +0.000 N 
ATOM     21  N   UNL     1       6.815   6.333  18.396  0.00  0.00    +0.000 NA
ATOM     22  N   UNL     1       6.496   5.769  19.548  0.00  0.00    +0.000 NA
ATOM     23  N   UNL     1       5.232   5.260  19.504  0.00  0.00    +0.000 NA
ATOM     24  C   UNL     1       4.733   5.542  18.307  0.00  0.00    +0.000 A 
BRANCH  20  25
ATOM     25  C   UNL     1       5.826   6.597  16.222  0.00  0.00    +0.000 C 
BRANCH  25  29
ATOM     26  C   UNL     1       6.355   3.698  13.046  0.00  0.00    +0.000 A 
ATOM     27  C   UNL     1       5.184   3.726  13.798  0.00  0.00    +0.000 A 
ATOM     28  C   UNL     1       5.051   4.624  14.863  0.00  0.00    +0.000 A 
ATOM     29  C   UNL     1       6.093   5.513  15.191  0.00  0.00    +0.000 A 
ATOM     30  C   UNL     1       7.274   5.449  14.433  0.00  0.00    +0.000 A 
ATOM     31  C   UNL     1       7.406   4.550  13.371  0.00  0.00    +0.000 A 
ENDBRANCH  25  29
ENDBRANCH  20  25
ENDBRANCH   1  24
TORSDOF 6
ENDMDL
MODEL 8
REMARK VINA RESULT:      -7.4      3.583      7.352
REMARK  Name = 
REMARK  6 active torsions:
REMARK  status: ('A' for Active; 'I' for Inactive)
REMARK    1  A    between atoms: C_4  and  C_5
REMARK    2  A    between atoms: C_5  and  N_6
REMARK    3  A    between atoms: C_10  and  C_11
REMARK    4  A    between atoms: C_11  and  C_12
REMARK    5  A    between atoms: C_11  and  N_18
REMARK    6  A    between atoms: N_21  and  C_22
REMARK                            x       y       z     vdW  Elec       q    Type
REMARK                         _______ _______ _______ _____ _____    ______ ____
ROOT
ATOM      1  C   UNL     1       0.324  10.597  18.500  0.00  0.00    +0.000 C 
ENDROOT
BRANCH   1   2
ATOM      2  C   UNL     1      -1.170  10.716  18.231  0.00  0.00    +0.000 A 
ATOM      3  C   UNL     1      -1.861   9.882  17.339  0.00  0.00    +0.000 A 
ATOM      4  C   UNL     1      -3.240   9.988  17.189  0.00  0.00    +0.000 A 
ATOM      5  C   UNL     1      -3.902  10.949  17.925  0.00  0.00    +0.000 A 
ATOM      6  N   UNL     1      -3.282  11.798  18.773  0.00  0.00    +0.000 NA
ATOM      7  C   UNL     1      -1.940  11.663  18.903  0.00  0.00    +0.000 A 
ENDBRANCH   1   2
BRANCH   1   8
ATOM      8  N   UNL     1       0.964  11.831  19.001  0.00  0.00    +0.000 NA
ATOM      9  C   UNL     1       2.210  12.228  18.338  0.00  0.00    +0.000 C 
ATOM     10  C   UNL     1       2.335  13.746  18.480  0.00  0.00    +0.000 C 
ATOM     11  N   UNL     1       2.502  14.204  19.867  0.00  0.00    +0.000 NA
ATOM     12  C   UNL     1       1.624  13.452  20.797  0.00  0.00    +0.000 C 
ATOM     13  C   UNL     1       1.191  11.981  20.442  0.00  0.00    +0.000 C 
BRANCH  11  14
ATOM     14  C   UNL     1       3.903  14.478  20.241  0.00  0.00    +0.000 C 
ATOM     15  C   UNL     1       4.558  15.492  19.258  0.00  0.00    +0.000 C 
ATOM     16  C   UNL     1       3.835  16.841  19.259  0.00  0.00    +0.000 C 
ATOM     17  C   UNL     1       3.757  17.459  20.652  0.00  0.00    +0.000 C 
ATOM     18  C   UNL     1       3.391  16.472  21.762  0.00  0.00    +0.000 C 
ATOM     19  C   UNL     1       4.093  15.118  21.633  0.00  0.00    +0.000 C 
ENDBRANCH  11  14
ENDBRANCH   1   8
BRANCH   1  24
ATOM     20  N   UNL     1       1.677   8.515  19.268  0.00  0.00    +0.000 N 
ATOM     21  N   UNL     1       1.889   7.860  20.433  0.00  0.00    +0.000 NA
ATOM     22  N   UNL     1       0.948   8.295  21.255  0.00  0.00    +0.000 NA
ATOM     23  N   UNL     1       0.187   9.252  20.653  0.00  0.00    +0.000 NA
ATOM     24  C   UNL     1       0.682   9.448  19.438  0.00  0.00    +0.000 A 
BRANCH  20  25
ATOM     25  C   UNL     1       2.540   8.208  18.147  0.00  0.00    +0.000 C 
BRANCH  25  29
ATOM     26  C   UNL     1       3.577   4.051  17.505  0.00  0.00    +0.000 A 
ATOM     27  C   UNL     1       2.257   4.430  17.726  0.00  0.00    +0.000 A 
ATOM     28  C   UNL     1       1.942   5.768  17.996  0.00  0.00    +0.000 A 
ATOM     29  C   UNL     1       2.951   6.749  18.047  0.00  0.00    +0.000 A 
ATOM     30  C   UNL     1       4.279   6.338  17.846  0.00  0.00    +0.000 A 
ATOM     31  C   UNL     1       4.591   5.002  17.578  0.00  0.00    +0.000 A 
ENDBRANCH  25  29
ENDBRANCH  20  25
ENDBRANCH   1  24
TORSDOF 6
ENDMDL
MODEL 9
REMARK VINA RESULT:      -7.3      3.130     10.423
REMARK  Name = 
REMARK  6 active torsions:
REMARK  status: ('A' for Active; 'I' for Inactive)
REMARK    1  A    between atoms: C_4  and  C_5
REMARK    2  A    between atoms: C_5  and  N_6
REMARK    3  A    between atoms: C_10  and  C_11
REMARK    4  A    between atoms: C_11  and  C_12
REMARK    5  A    between atoms: C_11  and  N_18
REMARK    6  A    between atoms: N_21  and  C_22
REMARK                            x       y       z     vdW  Elec       q    Type
REMARK                         _______ _______ _______ _____ _____    ______ ____
ROOT
ATOM      1  C   UNL     1       0.821  10.366  20.126  0.00  0.00    +0.000 C 
ENDROOT
BRANCH   1   2
ATOM      2  C   UNL     1       1.513  11.653  19.694  0.00  0.00    +0.000 A 
ATOM      3  C   UNL     1       1.953  11.888  18.383  0.00  0.00    +0.000 A 
ATOM      4  C   UNL     1       2.511  13.112  18.029  0.00  0.00    +0.000 A 
ATOM      5  C   UNL     1       2.639  14.075  19.008  0.00  0.00    +0.000 A 
ATOM      6  N   UNL     1       2.261  13.889  20.291  0.00  0.00    +0.000 NA
ATOM      7  C   UNL     1       1.713  12.690  20.602  0.00  0.00    +0.000 A 
ENDBRANCH   1   2
BRANCH   1   8
ATOM      8  N   UNL     1       1.544   9.126  19.775  0.00  0.00    +0.000 NA
ATOM      9  C   UNL     1       1.568   8.772  18.353  0.00  0.00    +0.000 C 
ATOM     10  C   UNL     1       2.832   7.944  18.114  0.00  0.00    +0.000 C 
ATOM     11  N   UNL     1       2.837   6.649  18.809  0.00  0.00    +0.000 NA
ATOM     12  C   UNL     1       2.289   6.766  20.183  0.00  0.00    +0.000 C 
ATOM     13  C   UNL     1       1.239   7.893  20.508  0.00  0.00    +0.000 C 
BRANCH  11  14
ATOM     14  C   UNL     1       2.441   5.511  17.956  0.00  0.00    +0.000 C 
ATOM     15  C   UNL     1       3.673   4.905  17.220  0.00  0.00    +0.000 C 
ATOM     16  C   UNL     1       4.719   4.371  18.200  0.00  0.00    +0.000 C 
ATOM     17  C   UNL     1       4.141   3.337  19.163  0.00  0.00    +0.000 C 
ATOM     18  C   UNL     1       2.773   3.706  19.739  0.00  0.00    +0.000 C 
ATOM     19  C   UNL     1       1.819   4.316  18.710  0.00  0.00    +0.000 C 
ENDBRANCH  11  14
ENDBRANCH   1   8
BRANCH   1  24
ATOM     20  N   UNL     1      -0.634  10.846  22.226  0.00  0.00    +0.000 N 
ATOM     21  N   UNL     1      -0.730  10.355  23.483  0.00  0.00    +0.000 NA
ATOM     22  N   UNL     1       0.378   9.661  23.673  0.00  0.00    +0.000 NA
ATOM     23  N   UNL     1       1.143   9.653  22.545  0.00  0.00    +0.000 NA
ATOM     24  C   UNL     1       0.483  10.329  21.614  0.00  0.00    +0.000 A 
BRANCH  20  25
ATOM     25  C   UNL     1      -1.701  11.697  21.742  0.00  0.00    +0.000 C 
BRANCH  25  29
ATOM     26  C   UNL     1      -2.847  14.593  24.754  0.00  0.00    +0.000 A 
ATOM     27  C   UNL     1      -3.759  13.651  24.287  0.00  0.00    +0.000 A 
ATOM     28  C   UNL     1      -3.397  12.762  23.268  0.00  0.00    +0.000 A 
ATOM     29  C   UNL     1      -2.108  12.804  22.700  0.00  0.00    +0.000 A 
ATOM     30  C   UNL     1      -1.214  13.779  23.170  0.00  0.00    +0.000 A 
ATOM     31  C   UNL     1      -1.578  14.667  24.187  0.00  0.00    +0.000 A 
ENDBRANCH  25  29
ENDBRANCH  20  25
ENDBRANCH   1  24
TORSDOF 6
ENDMDL
