MODEL 1
REMARK VINA RESULT:      -7.5      0.000      0.000
REMARK  Name = 
REMARK  5 active torsions:
REMARK  status: ('A' for Active; 'I' for Inactive)
REMARK    1  A    between atoms: C_1  and  C_2
REMARK    2  A    between atoms: C_4  and  C_5
REMARK    3  A    between atoms: C_9  and  C_10
REMARK    4  A    between atoms: C_12  and  C_13
REMARK    5  A    between atoms: C_15  and  C_16
REMARK                            x       y       z     vdW  Elec       q    Type
REMARK                         _______ _______ _______ _____ _____    ______ ____
ROOT
ATOM      1  C   UNL     1       3.054   4.461  17.969  0.00  0.00    +0.000 C 
ATOM      2  O   UNL     1       2.308   3.720  17.325  0.00  0.00    +0.000 OA
ATOM      3  N   UNL     1       4.414   4.574  17.648  0.00  0.00    +0.000 N 
ATOM      4  C   UNL     1       4.861   3.928  16.417  0.00  0.00    +0.000 C 
ATOM      5  C   UNL     1       5.962   4.762  15.753  0.00  0.00    +0.000 C 
ATOM      6  C   UNL     1       6.432   4.115  14.456  0.00  0.00    +0.000 C 
ATOM      7  C   UNL     1       7.129   4.965  16.729  0.00  0.00    +0.000 C 
ATOM      8  C   UNL     1       6.640   5.590  18.045  0.00  0.00    +0.000 C 
ATOM      9  C   UNL     1       7.799   5.701  19.035  0.00  0.00    +0.000 C 
ATOM     10  C   UNL     1       5.475   4.783  18.639  0.00  0.00    +0.000 C 
ENDROOT
BRANCH   1  14
ATOM     11  C   UNL     1       1.434   8.305  20.947  0.00  0.00    +0.000 C 
ATOM     12  C   UNL     1       1.813   7.037  20.295  0.00  0.00    +0.000 A 
ATOM     13  C   UNL     1       2.494   6.732  19.143  0.00  0.00    +0.000 A 
ATOM     14  C   UNL     1       2.516   5.305  19.031  0.00  0.00    +0.000 A 
ATOM     15  C   UNL     1       1.786   4.854  20.123  0.00  0.00    +0.000 A 
ATOM     16  C   UNL     1       1.332   3.527  20.596  0.00  0.00    +0.000 C 
ATOM     17  O   UNL     1       1.388   5.901  20.900  0.00  0.00    +0.000 OA
ENDBRANCH   1  14
TORSDOF 1
ENDMDL
MODEL 2
REMARK VINA RESULT:      -7.3      1.081      1.178
REMARK  Name = 
REMARK  5 active torsions:
REMARK  status: ('A' for Active; 'I' for Inactive)
REMARK    1  A    between atoms: C_1  and  C_2
REMARK    2  A    between atoms: C_4  and  C_5
REMARK    3  A    between atoms: C_9  and  C_10
REMARK    4  A    between atoms: C_12  and  C_13
REMARK    5  A    between atoms: C_15  and  C_16
REMARK                            x       y       z     vdW  Elec       q    Type
REMARK                         _______ _______ _______ _____ _____    ______ ____
ROOT
ATOM      1  C   UNL     1       3.078   5.188  17.803  0.00  0.00    +0.000 C 
ATOM      2  O   UNL     1       2.340   4.258  17.469  0.00  0.00    +0.000 OA
ATOM      3  N   UNL     1       4.399   5.266  17.337  0.00  0.00    +0.000 N 
ATOM      4  C   UNL     1       4.795   4.313  16.304  0.00  0.00    +0.000 C 
ATOM      5  C   UNL     1       5.779   4.969  15.330  0.00  0.00    +0.000 C 
ATOM      6  C   UNL     1       6.194   3.997  14.232  0.00  0.00    +0.000 C 
ATOM      7  C   UNL     1       7.000   5.500  16.094  0.00  0.00    +0.000 C 
ATOM      8  C   UNL     1       6.570   6.456  17.218  0.00  0.00    +0.000 C 
ATOM      9  C   UNL     1       7.790   6.902  18.022  0.00  0.00    +0.000 C 
ATOM     10  C   UNL     1       5.515   5.801  18.123  0.00  0.00    +0.000 C 
ENDROOT
BRANCH   1  14
ATOM     11  C   UNL     1       1.202   9.582  19.657  0.00  0.00    +0.000 C 
ATOM     12  C   UNL     1       1.731   8.232  19.385  0.00  0.00    +0.000 A 
ATOM     13  C   UNL     1       2.246   7.625  18.266  0.00  0.00    +0.000 A 
ATOM     14  C   UNL     1       2.565   6.277  18.627  0.00  0.00    +0.000 A 
ATOM     15  C   UNL     1       2.160   6.161  19.950  0.00  0.00    +0.000 A 
ATOM     16  C   UNL     1       2.104   5.051  20.929  0.00  0.00    +0.000 C 
ATOM     17  O   UNL     1       1.684   7.350  20.414  0.00  0.00    +0.000 OA
ENDBRANCH   1  14
TORSDOF 1
ENDMDL
MODEL 3
REMARK VINA RESULT:      -7.2      2.860      5.335
REMARK  Name = 
REMARK  5 active torsions:
REMARK  status: ('A' for Active; 'I' for Inactive)
REMARK    1  A    between atoms: C_1  and  C_2
REMARK    2  A    between atoms: C_4  and  C_5
REMARK    3  A    between atoms: C_9  and  C_10
REMARK    4  A    between atoms: C_12  and  C_13
REMARK    5  A    between atoms: C_15  and  C_16
REMARK                            x       y       z     vdW  Elec       q    Type
REMARK                         _______ _______ _______ _____ _____    ______ ____
ROOT
ATOM      1  C   UNL     1       6.454   5.571  16.938  0.00  0.00    +0.000 C 
ATOM      2  O   UNL     1       6.980   4.670  16.282  0.00  0.00    +0.000 OA
ATOM      3  N   UNL     1       5.076   5.566  17.199  0.00  0.00    +0.000 N 
ATOM      4  C   UNL     1       4.334   4.365  16.825  0.00  0.00    +0.000 C 
ATOM      5  C   UNL     1       3.218   4.097  17.839  0.00  0.00    +0.000 C 
ATOM      6  C   UNL     1       2.440   2.837  17.478  0.00  0.00    +0.000 C 
ATOM      7  C   UNL     1       2.289   5.315  17.935  0.00  0.00    +0.000 C 
ATOM      8  C   UNL     1       3.086   6.586  18.271  0.00  0.00    +0.000 C 
ATOM      9  C   UNL     1       2.159   7.801  18.272  0.00  0.00    +0.000 C 
ATOM     10  C   UNL     1       4.255   6.777  17.291  0.00  0.00    +0.000 C 
ENDROOT
BRANCH   1  14
ATOM     11  C   UNL     1       8.797   9.948  18.212  0.00  0.00    +0.000 C 
ATOM     12  C   UNL     1       8.266   8.581  18.054  0.00  0.00    +0.000 A 
ATOM     13  C   UNL     1       7.456   7.982  17.121  0.00  0.00    +0.000 A 
ATOM     14  C   UNL     1       7.271   6.623  17.533  0.00  0.00    +0.000 A 
ATOM     15  C   UNL     1       7.958   6.523  18.736  0.00  0.00    +0.000 A 
ATOM     16  C   UNL     1       8.129   5.460  19.752  0.00  0.00    +0.000 C 
ATOM     17  O   UNL     1       8.581   7.698  19.033  0.00  0.00    +0.000 OA
ENDBRANCH   1  14
TORSDOF 1
ENDMDL
MODEL 4
REMARK VINA RESULT:      -7.2      2.248      5.782
REMARK  Name = 
REMARK  5 active torsions:
REMARK  status: ('A' for Active; 'I' for Inactive)
REMARK    1  A    between atoms: C_1  and  C_2
REMARK    2  A    between atoms: C_4  and  C_5
REMARK    3  A    between atoms: C_9  and  C_10
REMARK    4  A    between atoms: C_12  and  C_13
REMARK    5  A    between atoms: C_15  and  C_16
REMARK                            x       y       z     vdW  Elec       q    Type
REMARK                         _______ _______ _______ _____ _____    ______ ____
ROOT
ATOM      1  C   UNL     1       4.400   6.034  17.736  0.00  0.00    +0.000 C 
ATOM      2  O   UNL     1       3.890   7.157  17.743  0.00  0.00    +0.000 OA
ATOM      3  N   UNL     1       3.975   5.042  18.631  0.00  0.00    +0.000 N 
ATOM      4  C   UNL     1       2.789   5.335  19.433  0.00  0.00    +0.000 C 
ATOM      5  C   UNL     1       1.967   4.060  19.644  0.00  0.00    +0.000 C 
ATOM      6  C   UNL     1       0.714   4.345  20.464  0.00  0.00    +0.000 C 
ATOM      7  C   UNL     1       2.832   2.980  20.307  0.00  0.00    +0.000 C 
ATOM      8  C   UNL     1       4.107   2.720  19.489  0.00  0.00    +0.000 C 
ATOM      9  C   UNL     1       4.997   1.708  20.211  0.00  0.00    +0.000 C 
ATOM     10  C   UNL     1       4.861   4.030  19.214  0.00  0.00    +0.000 C 
ENDROOT
BRANCH   1  14
ATOM     11  C   UNL     1       6.987   4.374  13.635  0.00  0.00    +0.000 C 
ATOM     12  C   UNL     1       6.488   4.941  14.902  0.00  0.00    +0.000 A 
ATOM     13  C   UNL     1       5.268   4.922  15.532  0.00  0.00    +0.000 A 
ATOM     14  C   UNL     1       5.402   5.686  16.735  0.00  0.00    +0.000 A 
ATOM     15  C   UNL     1       6.708   6.159  16.709  0.00  0.00    +0.000 A 
ATOM     16  C   UNL     1       7.505   7.065  17.566  0.00  0.00    +0.000 C 
ATOM     17  O   UNL     1       7.369   5.683  15.616  0.00  0.00    +0.000 OA
ENDBRANCH   1  14
TORSDOF 1
ENDMDL
MODEL 5
REMARK VINA RESULT:      -7.2      1.844      5.496
REMARK  Name = 
REMARK  5 active torsions:
REMARK  status: ('A' for Active; 'I' for Inactive)
REMARK    1  A    between atoms: C_1  and  C_2
REMARK    2  A    between atoms: C_4  and  C_5
REMARK    3  A    between atoms: C_9  and  C_10
REMARK    4  A    between atoms: C_12  and  C_13
REMARK    5  A    between atoms: C_15  and  C_16
REMARK                            x       y       z     vdW  Elec       q    Type
REMARK                         _______ _______ _______ _____ _____    ______ ____
ROOT
ATOM      1  C   UNL     1       4.267   4.304  17.659  0.00  0.00    +0.000 C 
ATOM      2  O   UNL     1       4.300   3.168  17.182  0.00  0.00    +0.000 OA
ATOM      3  N   UNL     1       3.311   4.657  18.622  0.00  0.00    +0.000 N 
ATOM      4  C   UNL     1       2.488   3.580  19.165  0.00  0.00    +0.000 C 
ATOM      5  C   UNL     1       2.188   3.840  20.645  0.00  0.00    +0.000 C 
ATOM      6  C   UNL     1       1.344   2.719  21.238  0.00  0.00    +0.000 C 
ATOM      7  C   UNL     1       1.500   5.202  20.811  0.00  0.00    +0.000 C 
ATOM      8  C   UNL     1       2.344   6.323  20.183  0.00  0.00    +0.000 C 
ATOM      9  C   UNL     1       1.601   7.655  20.278  0.00  0.00    +0.000 C 
ATOM     10  C   UNL     1       2.707   5.989  18.727  0.00  0.00    +0.000 C 
ENDROOT
BRANCH   1  14
ATOM     11  C   UNL     1       7.934   7.884  17.542  0.00  0.00    +0.000 C 
ATOM     12  C   UNL     1       6.900   6.859  17.302  0.00  0.00    +0.000 A 
ATOM     13  C   UNL     1       6.016   6.196  18.117  0.00  0.00    +0.000 A 
ATOM     14  C   UNL     1       5.281   5.287  17.291  0.00  0.00    +0.000 A 
ATOM     15  C   UNL     1       5.827   5.442  16.023  0.00  0.00    +0.000 A 
ATOM     16  C   UNL     1       5.625   4.780  14.715  0.00  0.00    +0.000 C 
ATOM     17  O   UNL     1       6.784   6.412  16.027  0.00  0.00    +0.000 OA
ENDBRANCH   1  14
TORSDOF 1
ENDMDL
MODEL 6
REMARK VINA RESULT:      -7.2      1.946      5.804
REMARK  Name = 
REMARK  5 active torsions:
REMARK  status: ('A' for Active; 'I' for Inactive)
REMARK    1  A    between atoms: C_1  and  C_2
REMARK    2  A    between atoms: C_4  and  C_5
REMARK    3  A    between atoms: C_9  and  C_10
REMARK    4  A    between atoms: C_12  and  C_13
REMARK    5  A    between atoms: C_15  and  C_16
REMARK                            x       y       z     vdW  Elec       q    Type
REMARK                         _______ _______ _______ _____ _____    ______ ____
ROOT
ATOM      1  C   UNL     1       4.540   3.544  17.163  0.00  0.00    +0.000 C 
ATOM      2  O   UNL     1       4.349   2.337  17.327  0.00  0.00    +0.000 OA
ATOM      3  N   UNL     1       3.800   4.497  17.878  0.00  0.00    +0.000 N 
ATOM      4  C   UNL     1       2.938   4.001  18.948  0.00  0.00    +0.000 C 
ATOM      5  C   UNL     1       2.909   5.002  20.108  0.00  0.00    +0.000 C 
ATOM      6  C   UNL     1       2.029   4.497  21.245  0.00  0.00    +0.000 C 
ATOM      7  C   UNL     1       2.439   6.374  19.608  0.00  0.00    +0.000 C 
ATOM      8  C   UNL     1       3.315   6.862  18.442  0.00  0.00    +0.000 C 
ATOM      9  C   UNL     1       2.777   8.185  17.900  0.00  0.00    +0.000 C 
ATOM     10  C   UNL     1       3.399   5.799  17.336  0.00  0.00    +0.000 C 
ENDROOT
BRANCH   1  14
ATOM     11  C   UNL     1       7.436   5.086  13.226  0.00  0.00    +0.000 C 
ATOM     12  C   UNL     1       6.828   4.687  14.510  0.00  0.00    +0.000 A 
ATOM     13  C   UNL     1       5.617   4.139  14.854  0.00  0.00    +0.000 A 
ATOM     14  C   UNL     1       5.603   4.008  16.279  0.00  0.00    +0.000 A 
ATOM     15  C   UNL     1       6.814   4.548  16.695  0.00  0.00    +0.000 A 
ATOM     16  C   UNL     1       7.437   4.819  18.010  0.00  0.00    +0.000 C 
ATOM     17  O   UNL     1       7.563   4.929  15.623  0.00  0.00    +0.000 OA
ENDBRANCH   1  14
TORSDOF 1
ENDMDL
MODEL 7
REMARK VINA RESULT:      -6.7      2.764      6.316
REMARK  Name = 
REMARK  5 active torsions:
REMARK  status: ('A' for Active; 'I' for Inactive)
REMARK    1  A    between atoms: C_1  and  C_2
REMARK    2  A    between atoms: C_4  and  C_5
REMARK    3  A    between atoms: C_9  and  C_10
REMARK    4  A    between atoms: C_12  and  C_13
REMARK    5  A    between atoms: C_15  and  C_16
REMARK                            x       y       z     vdW  Elec       q    Type
REMARK                         _______ _______ _______ _____ _____    ______ ____
ROOT
ATOM      1  C   UNL     1       2.276   7.389  19.204  0.00  0.00    +0.000 C 
ATOM      2  O   UNL     1       2.817   7.611  18.119  0.00  0.00    +0.000 OA
ATOM      3  N   UNL     1       1.493   8.368  19.835  0.00  0.00    +0.000 N 
ATOM      4  C   UNL     1       1.198   9.576  19.070  0.00  0.00    +0.000 C 
ATOM      5  C   UNL     1      -0.210  10.080  19.402  0.00  0.00    +0.000 C 
ATOM      6  C   UNL     1      -0.546  11.333  18.602  0.00  0.00    +0.000 C 
ATOM      7  C   UNL     1      -0.336  10.333  20.910  0.00  0.00    +0.000 C 
ATOM      8  C   UNL     1       0.034   9.073  21.711  0.00  0.00    +0.000 C 
ATOM      9  C   UNL     1      -0.010   9.372  23.209  0.00  0.00    +0.000 C 
ATOM     10  C   UNL     1       1.412   8.539  21.289  0.00  0.00    +0.000 C 
ENDROOT
BRANCH   1  14
ATOM     11  C   UNL     1       1.424   2.865  21.456  0.00  0.00    +0.000 C 
ATOM     12  C   UNL     1       1.932   4.087  20.804  0.00  0.00    +0.000 A 
ATOM     13  C   UNL     1       1.356   5.284  20.457  0.00  0.00    +0.000 A 
ATOM     14  C   UNL     1       2.368   6.069  19.818  0.00  0.00    +0.000 A 
ATOM     15  C   UNL     1       3.486   5.245  19.784  0.00  0.00    +0.000 A 
ATOM     16  C   UNL     1       4.845   5.356  19.209  0.00  0.00    +0.000 C 
ATOM     17  O   UNL     1       3.228   4.060  20.406  0.00  0.00    +0.000 OA
ENDBRANCH   1  14
TORSDOF 1
ENDMDL
MODEL 8
REMARK VINA RESULT:      -6.5      2.154      5.892
REMARK  Name = 
REMARK  5 active torsions:
REMARK  status: ('A' for Active; 'I' for Inactive)
REMARK    1  A    between atoms: C_1  and  C_2
REMARK    2  A    between atoms: C_4  and  C_5
REMARK    3  A    between atoms: C_9  and  C_10
REMARK    4  A    between atoms: C_12  and  C_13
REMARK    5  A    between atoms: C_15  and  C_16
REMARK                            x       y       z     vdW  Elec       q    Type
REMARK                         _______ _______ _______ _____ _____    ______ ____
ROOT
ATOM      1  C   UNL     1       4.799   5.943  17.389  0.00  0.00    +0.000 C 
ATOM      2  O   UNL     1       4.683   7.167  17.292  0.00  0.00    +0.000 OA
ATOM      3  N   UNL     1       4.232   5.245  18.464  0.00  0.00    +0.000 N 
ATOM      4  C   UNL     1       3.349   5.998  19.352  0.00  0.00    +0.000 C 
ATOM      5  C   UNL     1       2.209   5.102  19.845  0.00  0.00    +0.000 C 
ATOM      6  C   UNL     1       1.264   5.872  20.761  0.00  0.00    +0.000 C 
ATOM      7  C   UNL     1       2.779   3.864  20.550  0.00  0.00    +0.000 C 
ATOM      8  C   UNL     1       3.754   3.110  19.630  0.00  0.00    +0.000 C 
ATOM      9  C   UNL     1       4.379   1.934  20.380  0.00  0.00    +0.000 C 
ATOM     10  C   UNL     1       4.832   4.056  19.078  0.00  0.00    +0.000 C 
ENDROOT
BRANCH   1  14
ATOM     11  C   UNL     1       6.246   3.690  13.018  0.00  0.00    +0.000 C 
ATOM     12  C   UNL     1       6.054   4.220  14.381  0.00  0.00    +0.000 A 
ATOM     13  C   UNL     1       5.049   4.932  14.988  0.00  0.00    +0.000 A 
ATOM     14  C   UNL     1       5.461   5.180  16.336  0.00  0.00    +0.000 A 
ATOM     15  C   UNL     1       6.734   4.630  16.422  0.00  0.00    +0.000 A 
ATOM     16  C   UNL     1       7.781   4.586  17.468  0.00  0.00    +0.000 C 
ATOM     17  O   UNL     1       7.077   4.026  15.250  0.00  0.00    +0.000 OA
ENDBRANCH   1  14
TORSDOF 1
ENDMDL
MODEL 9
REMARK VINA RESULT:      -6.5      1.260      1.978
REMARK  Name = 
REMARK  5 active torsions:
REMARK  status: ('A' for Active; 'I' for Inactive)
REMARK    1  A    between atoms: C_1  and  C_2
REMARK    2  A    between atoms: C_4  and  C_5
REMARK    3  A    between atoms: C_9  and  C_10
REMARK    4  A    between atoms: C_12  and  C_13
REMARK    5  A    between atoms: C_15  and  C_16
REMARK                            x       y       z     vdW  Elec       q    Type
REMARK                         _______ _______ _______ _____ _____    ______ ____
ROOT
ATOM      1  C   UNL     1       2.670   5.273  18.188  0.00  0.00    +0.000 C 
ATOM      2  O   UNL     1       1.828   4.554  17.644  0.00  0.00    +0.000 OA
ATOM      3  N   UNL     1       4.040   5.076  17.965  0.00  0.00    +0.000 N 
ATOM      4  C   UNL     1       4.413   4.118  16.927  0.00  0.00    +0.000 C 
ATOM      5  C   UNL     1       5.679   4.588  16.205  0.00  0.00    +0.000 C 
ATOM      6  C   UNL     1       6.078   3.611  15.105  0.00  0.00    +0.000 C 
ATOM      7  C   UNL     1       6.818   4.785  17.214  0.00  0.00    +0.000 C 
ATOM      8  C   UNL     1       6.397   5.749  18.335  0.00  0.00    +0.000 C 
ATOM      9  C   UNL     1       7.510   5.861  19.376  0.00  0.00    +0.000 C 
ATOM     10  C   UNL     1       5.076   5.300  18.978  0.00  0.00    +0.000 C 
ENDROOT
BRANCH   1  14
ATOM     11  C   UNL     1       1.171   8.423  21.943  0.00  0.00    +0.000 C 
ATOM     12  C   UNL     1       1.601   7.743  20.706  0.00  0.00    +0.000 A 
ATOM     13  C   UNL     1       1.804   6.426  20.371  0.00  0.00    +0.000 A 
ATOM     14  C   UNL     1       2.253   6.402  19.012  0.00  0.00    +0.000 A 
ATOM     15  C   UNL     1       2.337   7.739  18.644  0.00  0.00    +0.000 A 
ATOM     16  C   UNL     1       2.801   8.459  17.437  0.00  0.00    +0.000 C 
ATOM     17  O   UNL     1       1.915   8.544  19.659  0.00  0.00    +0.000 OA
ENDBRANCH   1  14
TORSDOF 1
ENDMDL
