MODEL 1
REMARK VINA RESULT:      -6.7      0.000      0.000
REMARK  Name = 
REMARK  4 active torsions:
REMARK  status: ('A' for Active; 'I' for Inactive)
REMARK    1  A    between atoms: N_7  and  C_8
REMARK    2  A    between atoms: C_8  and  C_9
REMARK    3  A    between atoms: C_9  and  O_10
REMARK    4  A    between atoms: O_10  and  C_11
REMARK                            x       y       z     vdW  Elec       q    Type
REMARK                         _______ _______ _______ _____ _____    ______ ____
ROOT
ATOM      1  C   UNL     1       4.236   5.110  17.177  0.00  0.00    +0.000 C 
ENDROOT
BRANCH   1   8
ATOM      2  O   UNL     1       5.848   5.362  19.569  0.00  0.00    +0.000 OA
ATOM      3  C   UNL     1       6.345   5.078  18.489  0.00  0.00    +0.000 C 
ATOM      4  C   UNL     1       7.826   4.812  18.261  0.00  0.00    +0.000 C 
ATOM      5  N   UNL     1       7.825   4.491  16.862  0.00  0.00    +0.000 N 
ATOM      6  C   UNL     1       6.561   4.561  16.316  0.00  0.00    +0.000 C 
ATOM      7  S   UNL     1       6.280   4.215  14.721  0.00  0.00    +0.000 S 
ATOM      8  N   UNL     1       5.681   4.935  17.293  0.00  0.00    +0.000 N 
ATOM      9  H   UNL     1       8.640   4.242  16.313  0.00  0.00    +0.000 HD
ENDBRANCH   1   8
BRANCH   1  10
ATOM     10  C   UNL     1       3.505   3.782  16.967  0.00  0.00    +0.000 C 
BRANCH  10  11
ATOM     11  O   UNL     1       3.880   2.874  18.006  0.00  0.00    +0.000 OA
BRANCH  11  12
ATOM     12  C   UNL     1       3.069   2.874  19.111  0.00  0.00    +0.000 A 
ATOM     13  C   UNL     1       1.705   3.049  18.860  0.00  0.00    +0.000 A 
ATOM     14  C   UNL     1       0.787   3.073  19.913  0.00  0.00    +0.000 A 
ATOM     15  C   UNL     1       1.228   2.901  21.224  0.00  0.00    +0.000 A 
ATOM     16  C   UNL     1       2.584   2.696  21.477  0.00  0.00    +0.000 A 
ATOM     17  C   UNL     1       3.501   2.679  20.423  0.00  0.00    +0.000 A 
ENDBRANCH  11  12
ENDBRANCH  10  11
ENDBRANCH   1  10
TORSDOF 4
ENDMDL
MODEL 2
REMARK VINA RESULT:      -6.7      0.133      1.208
REMARK  Name = 
REMARK  4 active torsions:
REMARK  status: ('A' for Active; 'I' for Inactive)
REMARK    1  A    between atoms: N_7  and  C_8
REMARK    2  A    between atoms: C_8  and  C_9
REMARK    3  A    between atoms: C_9  and  O_10
REMARK    4  A    between atoms: O_10  and  C_11
REMARK                            x       y       z     vdW  Elec       q    Type
REMARK                         _______ _______ _______ _____ _____    ______ ____
ROOT
ATOM      1  C   UNL     1       4.243   5.085  17.184  0.00  0.00    +0.000 C 
ENDROOT
BRANCH   1   8
ATOM      2  O   UNL     1       5.872   5.322  19.566  0.00  0.00    +0.000 OA
ATOM      3  C   UNL     1       6.357   5.012  18.488  0.00  0.00    +0.000 C 
ATOM      4  C   UNL     1       7.829   4.705  18.256  0.00  0.00    +0.000 C 
ATOM      5  N   UNL     1       7.814   4.368  16.861  0.00  0.00    +0.000 N 
ATOM      6  C   UNL     1       6.549   4.465  16.319  0.00  0.00    +0.000 C 
ATOM      7  S   UNL     1       6.251   4.108  14.730  0.00  0.00    +0.000 S 
ATOM      8  N   UNL     1       5.684   4.873  17.296  0.00  0.00    +0.000 N 
ATOM      9  H   UNL     1       8.619   4.091  16.311  0.00  0.00    +0.000 HD
ENDBRANCH   1   8
BRANCH   1  10
ATOM     10  C   UNL     1       3.479   3.776  16.970  0.00  0.00    +0.000 C 
BRANCH  10  11
ATOM     11  O   UNL     1       3.781   2.879  18.042  0.00  0.00    +0.000 OA
BRANCH  11  12
ATOM     12  C   UNL     1       2.906   2.904  19.096  0.00  0.00    +0.000 A 
ATOM     13  C   UNL     1       3.466   2.661  20.353  0.00  0.00    +0.000 A 
ATOM     14  C   UNL     1       2.665   2.655  21.498  0.00  0.00    +0.000 A 
ATOM     15  C   UNL     1       1.299   2.913  21.394  0.00  0.00    +0.000 A 
ATOM     16  C   UNL     1       0.741   3.186  20.145  0.00  0.00    +0.000 A 
ATOM     17  C   UNL     1       1.543   3.185  19.001  0.00  0.00    +0.000 A 
ENDBRANCH  11  12
ENDBRANCH  10  11
ENDBRANCH   1  10
TORSDOF 4
ENDMDL
MODEL 3
REMARK VINA RESULT:      -6.5      1.288      1.295
REMARK  Name = 
REMARK  4 active torsions:
REMARK  status: ('A' for Active; 'I' for Inactive)
REMARK    1  A    between atoms: N_7  and  C_8
REMARK    2  A    between atoms: C_8  and  C_9
REMARK    3  A    between atoms: C_9  and  O_10
REMARK    4  A    between atoms: O_10  and  C_11
REMARK                            x       y       z     vdW  Elec       q    Type
REMARK                         _______ _______ _______ _____ _____    ______ ____
ROOT
ATOM      1  C   UNL     1       5.098   3.804  17.484  0.00  0.00    +0.000 C 
ENDROOT
BRANCH   1   8
ATOM      2  O   UNL     1       6.166   5.509  19.566  0.00  0.00    +0.000 OA
ATOM      3  C   UNL     1       6.492   5.647  18.397  0.00  0.00    +0.000 C 
ATOM      4  C   UNL     1       7.480   6.688  17.890  0.00  0.00    +0.000 C 
ATOM      5  N   UNL     1       7.513   6.364  16.492  0.00  0.00    +0.000 N 
ATOM      6  C   UNL     1       6.675   5.313  16.185  0.00  0.00    +0.000 C 
ATOM      7  S   UNL     1       6.542   4.725  14.642  0.00  0.00    +0.000 S 
ATOM      8  N   UNL     1       6.049   4.902  17.329  0.00  0.00    +0.000 N 
ATOM      9  H   UNL     1       8.070   6.835  15.790  0.00  0.00    +0.000 HD
ENDBRANCH   1   8
BRANCH   1  10
ATOM     10  C   UNL     1       3.704   4.167  16.968  0.00  0.00    +0.000 C 
BRANCH  10  11
ATOM     11  O   UNL     1       3.073   5.046  17.904  0.00  0.00    +0.000 OA
BRANCH  11  12
ATOM     12  C   UNL     1       2.473   4.437  18.974  0.00  0.00    +0.000 A 
ATOM     13  C   UNL     1       1.492   3.493  18.660  0.00  0.00    +0.000 A 
ATOM     14  C   UNL     1       0.809   2.816  19.675  0.00  0.00    +0.000 A 
ATOM     15  C   UNL     1       1.119   3.066  21.010  0.00  0.00    +0.000 A 
ATOM     16  C   UNL     1       2.119   3.984  21.327  0.00  0.00    +0.000 A 
ATOM     17  C   UNL     1       2.796   4.665  20.312  0.00  0.00    +0.000 A 
ENDBRANCH  11  12
ENDBRANCH  10  11
ENDBRANCH   1  10
TORSDOF 4
ENDMDL
MODEL 4
REMARK VINA RESULT:      -6.4      2.099      2.623
REMARK  Name = 
REMARK  4 active torsions:
REMARK  status: ('A' for Active; 'I' for Inactive)
REMARK    1  A    between atoms: N_7  and  C_8
REMARK    2  A    between atoms: C_8  and  C_9
REMARK    3  A    between atoms: C_9  and  O_10
REMARK    4  A    between atoms: O_10  and  C_11
REMARK                            x       y       z     vdW  Elec       q    Type
REMARK                         _______ _______ _______ _____ _____    ______ ____
ROOT
ATOM      1  C   UNL     1       5.214   5.160  18.494  0.00  0.00    +0.000 C 
ENDROOT
BRANCH   1   8
ATOM      2  O   UNL     1       4.956   3.319  16.274  0.00  0.00    +0.000 OA
ATOM      3  C   UNL     1       5.788   4.214  16.269  0.00  0.00    +0.000 C 
ATOM      4  C   UNL     1       6.761   4.486  15.131  0.00  0.00    +0.000 C 
ATOM      5  N   UNL     1       7.442   5.644  15.636  0.00  0.00    +0.000 N 
ATOM      6  C   UNL     1       6.979   6.015  16.881  0.00  0.00    +0.000 C 
ATOM      7  S   UNL     1       7.583   7.336  17.678  0.00  0.00    +0.000 S 
ATOM      8  N   UNL     1       6.002   5.140  17.264  0.00  0.00    +0.000 N 
ATOM      9  H   UNL     1       8.181   6.148  15.160  0.00  0.00    +0.000 HD
ENDBRANCH   1   8
BRANCH   1  10
ATOM     10  C   UNL     1       4.074   6.179  18.437  0.00  0.00    +0.000 C 
BRANCH  10  11
ATOM     11  O   UNL     1       2.965   5.600  17.742  0.00  0.00    +0.000 OA
BRANCH  11  12
ATOM     12  C   UNL     1       2.236   4.684  18.453  0.00  0.00    +0.000 A 
ATOM     13  C   UNL     1       1.914   5.052  19.762  0.00  0.00    +0.000 A 
ATOM     14  C   UNL     1       1.179   4.190  20.581  0.00  0.00    +0.000 A 
ATOM     15  C   UNL     1       0.746   2.962  20.088  0.00  0.00    +0.000 A 
ATOM     16  C   UNL     1       1.038   2.603  18.772  0.00  0.00    +0.000 A 
ATOM     17  C   UNL     1       1.779   3.462  17.957  0.00  0.00    +0.000 A 
ENDBRANCH  11  12
ENDBRANCH  10  11
ENDBRANCH   1  10
TORSDOF 4
ENDMDL
MODEL 5
REMARK VINA RESULT:      -6.4      1.268      1.401
REMARK  Name = 
REMARK  4 active torsions:
REMARK  status: ('A' for Active; 'I' for Inactive)
REMARK    1  A    between atoms: N_7  and  C_8
REMARK    2  A    between atoms: C_8  and  C_9
REMARK    3  A    between atoms: C_9  and  O_10
REMARK    4  A    between atoms: O_10  and  C_11
REMARK                            x       y       z     vdW  Elec       q    Type
REMARK                         _______ _______ _______ _____ _____    ______ ____
ROOT
ATOM      1  C   UNL     1       4.239   4.492  17.406  0.00  0.00    +0.000 C 
ENDROOT
BRANCH   1   8
ATOM      2  O   UNL     1       6.067   4.846  19.624  0.00  0.00    +0.000 OA
ATOM      3  C   UNL     1       6.470   4.718  18.477  0.00  0.00    +0.000 C 
ATOM      4  C   UNL     1       7.936   4.713  18.070  0.00  0.00    +0.000 C 
ATOM      5  N   UNL     1       7.818   4.488  16.657  0.00  0.00    +0.000 N 
ATOM      6  C   UNL     1       6.502   4.387  16.258  0.00  0.00    +0.000 C 
ATOM      7  S   UNL     1       6.089   4.104  14.679  0.00  0.00    +0.000 S 
ATOM      8  N   UNL     1       5.698   4.548  17.351  0.00  0.00    +0.000 N 
ATOM      9  H   UNL     1       8.590   4.412  16.005  0.00  0.00    +0.000 HD
ENDBRANCH   1   8
BRANCH   1  10
ATOM     10  C   UNL     1       3.615   5.866  17.654  0.00  0.00    +0.000 C 
BRANCH  10  11
ATOM     11  O   UNL     1       2.233   5.698  17.986  0.00  0.00    +0.000 OA
BRANCH  11  12
ATOM     12  C   UNL     1       1.974   4.824  19.009  0.00  0.00    +0.000 A 
ATOM     13  C   UNL     1       1.274   3.668  18.655  0.00  0.00    +0.000 A 
ATOM     14  C   UNL     1       0.948   2.712  19.620  0.00  0.00    +0.000 A 
ATOM     15  C   UNL     1       1.341   2.898  20.944  0.00  0.00    +0.000 A 
ATOM     16  C   UNL     1       2.067   4.035  21.297  0.00  0.00    +0.000 A 
ATOM     17  C   UNL     1       2.385   4.994  20.332  0.00  0.00    +0.000 A 
ENDBRANCH  11  12
ENDBRANCH  10  11
ENDBRANCH   1  10
TORSDOF 4
ENDMDL
MODEL 6
REMARK VINA RESULT:      -6.3      1.829      2.482
REMARK  Name = 
REMARK  4 active torsions:
REMARK  status: ('A' for Active; 'I' for Inactive)
REMARK    1  A    between atoms: N_7  and  C_8
REMARK    2  A    between atoms: C_8  and  C_9
REMARK    3  A    between atoms: C_9  and  O_10
REMARK    4  A    between atoms: O_10  and  C_11
REMARK                            x       y       z     vdW  Elec       q    Type
REMARK                         _______ _______ _______ _____ _____    ______ ____
ROOT
ATOM      1  C   UNL     1       4.746   5.796  17.994  0.00  0.00    +0.000 C 
ENDROOT
BRANCH   1   8
ATOM      2  O   UNL     1       4.696   3.799  15.898  0.00  0.00    +0.000 OA
ATOM      3  C   UNL     1       5.632   4.575  16.020  0.00  0.00    +0.000 C 
ATOM      4  C   UNL     1       6.852   4.609  15.112  0.00  0.00    +0.000 C 
ATOM      5  N   UNL     1       7.574   5.713  15.679  0.00  0.00    +0.000 N 
ATOM      6  C   UNL     1       6.918   6.258  16.762  0.00  0.00    +0.000 C 
ATOM      7  S   UNL     1       7.526   7.560  17.585  0.00  0.00    +0.000 S 
ATOM      8  N   UNL     1       5.764   5.556  16.975  0.00  0.00    +0.000 N 
ATOM      9  H   UNL     1       8.462   6.070  15.347  0.00  0.00    +0.000 HD
ENDBRANCH   1   8
BRANCH   1  10
ATOM     10  C   UNL     1       5.070   5.094  19.315  0.00  0.00    +0.000 C 
BRANCH  10  11
ATOM     11  O   UNL     1       4.678   3.721  19.222  0.00  0.00    +0.000 OA
BRANCH  11  12
ATOM     12  C   UNL     1       3.345   3.474  19.415  0.00  0.00    +0.000 A 
ATOM     13  C   UNL     1       2.751   4.154  20.482  0.00  0.00    +0.000 A 
ATOM     14  C   UNL     1       1.397   3.971  20.775  0.00  0.00    +0.000 A 
ATOM     15  C   UNL     1       0.624   3.120  19.989  0.00  0.00    +0.000 A 
ATOM     16  C   UNL     1       1.204   2.462  18.905  0.00  0.00    +0.000 A 
ATOM     17  C   UNL     1       2.559   2.641  18.617  0.00  0.00    +0.000 A 
ENDBRANCH  11  12
ENDBRANCH  10  11
ENDBRANCH   1  10
TORSDOF 4
ENDMDL
MODEL 7
REMARK VINA RESULT:      -6.2      1.991      2.527
REMARK  Name = 
REMARK  4 active torsions:
REMARK  status: ('A' for Active; 'I' for Inactive)
REMARK    1  A    between atoms: N_7  and  C_8
REMARK    2  A    between atoms: C_8  and  C_9
REMARK    3  A    between atoms: C_9  and  O_10
REMARK    4  A    between atoms: O_10  and  C_11
REMARK                            x       y       z     vdW  Elec       q    Type
REMARK                         _______ _______ _______ _____ _____    ______ ____
ROOT
ATOM      1  C   UNL     1       5.781   4.667  18.814  0.00  0.00    +0.000 C 
ENDROOT
BRANCH   1   8
ATOM      2  O   UNL     1       5.162   3.360  16.305  0.00  0.00    +0.000 OA
ATOM      3  C   UNL     1       5.944   4.297  16.362  0.00  0.00    +0.000 C 
ATOM      4  C   UNL     1       6.665   4.897  15.164  0.00  0.00    +0.000 C 
ATOM      5  N   UNL     1       7.390   5.963  15.797  0.00  0.00    +0.000 N 
ATOM      6  C   UNL     1       7.166   6.004  17.157  0.00  0.00    +0.000 C 
ATOM      7  S   UNL     1       7.865   7.155  18.122  0.00  0.00    +0.000 S 
ATOM      8  N   UNL     1       6.314   4.989  17.493  0.00  0.00    +0.000 N 
ATOM      9  H   UNL     1       8.003   6.619  15.329  0.00  0.00    +0.000 HD
ENDBRANCH   1   8
BRANCH   1  10
ATOM     10  C   UNL     1       4.671   5.628  19.242  0.00  0.00    +0.000 C 
BRANCH  10  11
ATOM     11  O   UNL     1       3.523   5.414  18.415  0.00  0.00    +0.000 OA
BRANCH  11  12
ATOM     12  C   UNL     1       2.570   4.577  18.934  0.00  0.00    +0.000 A 
ATOM     13  C   UNL     1       2.134   3.557  18.084  0.00  0.00    +0.000 A 
ATOM     14  C   UNL     1       1.158   2.650  18.507  0.00  0.00    +0.000 A 
ATOM     15  C   UNL     1       0.627   2.748  19.792  0.00  0.00    +0.000 A 
ATOM     16  C   UNL     1       1.082   3.745  20.654  0.00  0.00    +0.000 A 
ATOM     17  C   UNL     1       2.053   4.655  20.228  0.00  0.00    +0.000 A 
ENDBRANCH  11  12
ENDBRANCH  10  11
ENDBRANCH   1  10
TORSDOF 4
ENDMDL
MODEL 8
REMARK VINA RESULT:      -6.2      2.188      2.639
REMARK  Name = 
REMARK  4 active torsions:
REMARK  status: ('A' for Active; 'I' for Inactive)
REMARK    1  A    between atoms: N_7  and  C_8
REMARK    2  A    between atoms: C_8  and  C_9
REMARK    3  A    between atoms: C_9  and  O_10
REMARK    4  A    between atoms: O_10  and  C_11
REMARK                            x       y       z     vdW  Elec       q    Type
REMARK                         _______ _______ _______ _____ _____    ______ ____
ROOT
ATOM      1  C   UNL     1       5.052   7.015  17.444  0.00  0.00    +0.000 C 
ENDROOT
BRANCH   1   8
ATOM      2  O   UNL     1       5.382   5.914  14.786  0.00  0.00    +0.000 OA
ATOM      3  C   UNL     1       6.048   5.516  15.731  0.00  0.00    +0.000 C 
ATOM      4  C   UNL     1       7.116   4.435  15.644  0.00  0.00    +0.000 C 
ATOM      5  N   UNL     1       7.585   4.416  17.000  0.00  0.00    +0.000 N 
ATOM      6  C   UNL     1       6.910   5.319  17.794  0.00  0.00    +0.000 C 
ATOM      7  S   UNL     1       7.274   5.513  19.398  0.00  0.00    +0.000 S 
ATOM      8  N   UNL     1       5.975   5.961  17.030  0.00  0.00    +0.000 N 
ATOM      9  H   UNL     1       8.318   3.818  17.363  0.00  0.00    +0.000 HD
ENDBRANCH   1   8
BRANCH   1  10
ATOM     10  C   UNL     1       3.656   6.473  17.759  0.00  0.00    +0.000 C 
BRANCH  10  11
ATOM     11  O   UNL     1       3.616   6.054  19.126  0.00  0.00    +0.000 OA
BRANCH  11  12
ATOM     12  C   UNL     1       2.712   5.065  19.414  0.00  0.00    +0.000 A 
ATOM     13  C   UNL     1       2.203   4.372  18.313  0.00  0.00    +0.000 A 
ATOM     14  C   UNL     1       1.268   3.348  18.490  0.00  0.00    +0.000 A 
ATOM     15  C   UNL     1       0.852   2.998  19.773  0.00  0.00    +0.000 A 
ATOM     16  C   UNL     1       1.382   3.666  20.877  0.00  0.00    +0.000 A 
ATOM     17  C   UNL     1       2.311   4.694  20.698  0.00  0.00    +0.000 A 
ENDBRANCH  11  12
ENDBRANCH  10  11
ENDBRANCH   1  10
TORSDOF 4
ENDMDL
MODEL 9
REMARK VINA RESULT:      -6.1      2.843      5.487
REMARK  Name = 
REMARK  4 active torsions:
REMARK  status: ('A' for Active; 'I' for Inactive)
REMARK    1  A    between atoms: N_7  and  C_8
REMARK    2  A    between atoms: C_8  and  C_9
REMARK    3  A    between atoms: C_9  and  O_10
REMARK    4  A    between atoms: O_10  and  C_11
REMARK                            x       y       z     vdW  Elec       q    Type
REMARK                         _______ _______ _______ _____ _____    ______ ____
ROOT
ATOM      1  C   UNL     1       2.119   4.905  18.105  0.00  0.00    +0.000 C 
ENDROOT
BRANCH   1   8
ATOM      2  O   UNL     1       1.392   5.755  20.775  0.00  0.00    +0.000 OA
ATOM      3  C   UNL     1       1.913   4.670  20.569  0.00  0.00    +0.000 C 
ATOM      4  C   UNL     1       2.230   3.642  21.647  0.00  0.00    +0.000 C 
ATOM      5  N   UNL     1       2.770   2.579  20.849  0.00  0.00    +0.000 N 
ATOM      6  C   UNL     1       2.797   2.900  19.508  0.00  0.00    +0.000 C 
ATOM      7  S   UNL     1       3.354   1.837  18.367  0.00  0.00    +0.000 S 
ATOM      8  N   UNL     1       2.302   4.165  19.350  0.00  0.00    +0.000 N 
ATOM      9  H   UNL     1       3.103   1.689  21.200  0.00  0.00    +0.000 HD
ENDBRANCH   1   8
BRANCH   1  10
ATOM     10  C   UNL     1       3.249   5.907  17.853  0.00  0.00    +0.000 C 
BRANCH  10  11
ATOM     11  O   UNL     1       4.416   5.196  17.429  0.00  0.00    +0.000 OA
BRANCH  11  12
ATOM     12  C   UNL     1       5.612   5.769  17.772  0.00  0.00    +0.000 A 
ATOM     13  C   UNL     1       6.270   5.191  18.861  0.00  0.00    +0.000 A 
ATOM     14  C   UNL     1       7.494   5.700  19.303  0.00  0.00    +0.000 A 
ATOM     15  C   UNL     1       8.078   6.780  18.643  0.00  0.00    +0.000 A 
ATOM     16  C   UNL     1       7.440   7.341  17.537  0.00  0.00    +0.000 A 
ATOM     17  C   UNL     1       6.213   6.835  17.101  0.00  0.00    +0.000 A 
ENDBRANCH  11  12
ENDBRANCH  10  11
ENDBRANCH   1  10
TORSDOF 4
ENDMDL
