MODEL 1
REMARK VINA RESULT:      -7.7      0.000      0.000
REMARK  Name = 
REMARK  10 active torsions:
REMARK  status: ('A' for Active; 'I' for Inactive)
REMARK    1  A    between atoms: C_1  and  O_2
REMARK    2  A    between atoms: O_2  and  C_3
REMARK    3  A    between atoms: C_8  and  N_9
REMARK    4  A    between atoms: N_9  and  C_10
REMARK    5  A    between atoms: C_10  and  C_11
REMARK    6  A    between atoms: C_13  and  O_14
REMARK    7  A    between atoms: O_14  and  C_15
REMARK    8  A    between atoms: C_21  and  O_22
REMARK    9  A    between atoms: O_22  and  C_23
REMARK   10  A    between atoms: C_24  and  C_25
REMARK                            x       y       z     vdW  Elec       q    Type
REMARK                         _______ _______ _______ _____ _____    ______ ____
ROOT
ATOM      1  C   UNL     1      -3.132  11.781  18.887  0.00  0.00    +0.000 C 
ATOM      2  O   UNL     1      -4.097  11.177  18.433  0.00  0.00    +0.000 OA
ATOM      3  N   UNL     1      -1.828  11.560  18.477  0.00  0.00    +0.000 N 
ATOM      4  C   UNL     1      -1.571  10.610  17.411  0.00  0.00    +0.000 C 
ATOM      5  C   UNL     1      -0.541   9.566  17.831  0.00  0.00    +0.000 C 
ATOM      6  C   UNL     1       0.762  10.248  18.291  0.00  0.00    +0.000 C 
ATOM      7  C   UNL     1       0.470  11.250  19.462  0.00  0.00    +0.000 C 
ATOM      8  C   UNL     1      -0.658  12.235  19.047  0.00  0.00    +0.000 C 
ENDROOT
BRANCH   7   9
ATOM      9  C   UNL     1       0.255  10.585  20.827  0.00  0.00    +0.000 A 
ATOM     10  C   UNL     1      -0.676  11.145  21.720  0.00  0.00    +0.000 A 
ATOM     11  C   UNL     1      -0.859  10.614  23.002  0.00  0.00    +0.000 A 
ATOM     12  C   UNL     1      -0.127   9.504  23.409  0.00  0.00    +0.000 A 
ATOM     13  C   UNL     1       0.776   8.919  22.531  0.00  0.00    +0.000 A 
ATOM     14  C   UNL     1       0.965   9.455  21.253  0.00  0.00    +0.000 A 
ENDBRANCH   7   9
BRANCH   1  16
ATOM     15  C   UNL     1      -4.557  13.091  20.229  0.00  0.00    +0.000 C 
ATOM     16  O   UNL     1      -3.225  12.710  19.875  0.00  0.00    +0.000 OA
ENDBRANCH   1  16
BRANCH   6  17
ATOM     17  N   UNL     1       1.842   9.292  18.613  0.00  0.00    +0.000 NA
ATOM     18  H   UNL     1       2.736   9.748  18.439  0.00  0.00    +0.000 HD
BRANCH  17  19
ATOM     19  C   UNL     1       1.797   8.045  17.836  0.00  0.00    +0.000 C 
BRANCH  19  20
ATOM     20  C   UNL     1       2.597   6.889  18.409  0.00  0.00    +0.000 A 
ATOM     21  C   UNL     1       2.090   6.150  19.503  0.00  0.00    +0.000 A 
ATOM     22  C   UNL     1       2.810   5.120  20.125  0.00  0.00    +0.000 A 
ATOM     23  C   UNL     1       4.072   4.804  19.648  0.00  0.00    +0.000 A 
ATOM     24  C   UNL     1       4.576   5.483  18.534  0.00  0.00    +0.000 A 
ATOM     25  C   UNL     1       3.858   6.516  17.908  0.00  0.00    +0.000 A 
BRANCH  25  26
ATOM     26  O   UNL     1       4.584   7.126  16.921  0.00  0.00    +0.000 OA
ATOM     27  C   UNL     1       5.952   6.787  16.764  0.00  0.00    +0.000 C 
ENDBRANCH  25  26
BRANCH  22  28
ATOM     28  O   UNL     1       2.180   4.572  21.197  0.00  0.00    +0.000 OA
BRANCH  28  29
ATOM     29  C   UNL     1       1.931   3.176  21.249  0.00  0.00    +0.000 C 
ATOM     30  F   UNL     1       0.995   2.814  22.148  0.00  0.00    +0.000 F 
ATOM     31  F   UNL     1       1.561   2.735  20.026  0.00  0.00    +0.000 F 
ATOM     32  F   UNL     1       3.086   2.555  21.584  0.00  0.00    +0.000 F 
ENDBRANCH  28  29
ENDBRANCH  22  28
ENDBRANCH  19  20
ENDBRANCH  17  19
ENDBRANCH   6  17
TORSDOF 8
ENDMDL
MODEL 2
REMARK VINA RESULT:      -7.7      2.075      3.189
REMARK  Name = 
REMARK  10 active torsions:
REMARK  status: ('A' for Active; 'I' for Inactive)
REMARK    1  A    between atoms: C_1  and  O_2
REMARK    2  A    between atoms: O_2  and  C_3
REMARK    3  A    between atoms: C_8  and  N_9
REMARK    4  A    between atoms: N_9  and  C_10
REMARK    5  A    between atoms: C_10  and  C_11
REMARK    6  A    between atoms: C_13  and  O_14
REMARK    7  A    between atoms: O_14  and  C_15
REMARK    8  A    between atoms: C_21  and  O_22
REMARK    9  A    between atoms: O_22  and  C_23
REMARK   10  A    between atoms: C_24  and  C_25
REMARK                            x       y       z     vdW  Elec       q    Type
REMARK                         _______ _______ _______ _____ _____    ______ ____
ROOT
ATOM      1  C   UNL     1      -0.698  10.635  22.511  0.00  0.00    +0.000 C 
ATOM      2  O   UNL     1      -0.389  10.278  23.642  0.00  0.00    +0.000 OA
ATOM      3  N   UNL     1      -0.336   9.944  21.366  0.00  0.00    +0.000 N 
ATOM      4  C   UNL     1       0.395   8.697  21.491  0.00  0.00    +0.000 C 
ATOM      5  C   UNL     1       1.673   8.714  20.659  0.00  0.00    +0.000 C 
ATOM      6  C   UNL     1       1.353   9.024  19.184  0.00  0.00    +0.000 C 
ATOM      7  C   UNL     1       0.590  10.389  19.066  0.00  0.00    +0.000 C 
ATOM      8  C   UNL     1      -0.649  10.384  20.003  0.00  0.00    +0.000 C 
ENDROOT
BRANCH   7   9
ATOM      9  C   UNL     1       1.480  11.629  19.204  0.00  0.00    +0.000 A 
ATOM     10  C   UNL     1       1.532  12.298  20.440  0.00  0.00    +0.000 A 
ATOM     11  C   UNL     1       2.278  13.471  20.597  0.00  0.00    +0.000 A 
ATOM     12  C   UNL     1       2.999  13.989  19.526  0.00  0.00    +0.000 A 
ATOM     13  C   UNL     1       2.983  13.328  18.306  0.00  0.00    +0.000 A 
ATOM     14  C   UNL     1       2.231  12.159  18.147  0.00  0.00    +0.000 A 
ENDBRANCH   7   9
BRANCH   1  16
ATOM     15  C   UNL     1      -2.486  12.036  23.129  0.00  0.00    +0.000 C 
ATOM     16  O   UNL     1      -1.395  11.771  22.244  0.00  0.00    +0.000 OA
ENDBRANCH   1  16
BRANCH   6  17
ATOM     17  N   UNL     1       2.536   8.953  18.300  0.00  0.00    +0.000 NA
ATOM     18  H   UNL     1       2.588   9.817  17.764  0.00  0.00    +0.000 HD
BRANCH  17  19
ATOM     19  C   UNL     1       2.519   7.823  17.358  0.00  0.00    +0.000 C 
BRANCH  19  20
ATOM     20  C   UNL     1       3.224   6.566  17.834  0.00  0.00    +0.000 A 
ATOM     21  C   UNL     1       2.491   5.544  18.479  0.00  0.00    +0.000 A 
ATOM     22  C   UNL     1       3.092   4.392  19.006  0.00  0.00    +0.000 A 
ATOM     23  C   UNL     1       4.465   4.241  18.889  0.00  0.00    +0.000 A 
ATOM     24  C   UNL     1       5.208   5.212  18.210  0.00  0.00    +0.000 A 
ATOM     25  C   UNL     1       4.609   6.367  17.680  0.00  0.00    +0.000 A 
BRANCH  25  26
ATOM     26  O   UNL     1       5.531   7.240  17.169  0.00  0.00    +0.000 OA
ATOM     27  C   UNL     1       6.908   7.009  17.417  0.00  0.00    +0.000 C 
ENDBRANCH  25  26
BRANCH  22  28
ATOM     28  O   UNL     1       2.229   3.556  19.642  0.00  0.00    +0.000 OA
BRANCH  28  29
ATOM     29  C   UNL     1       1.613   3.947  20.858  0.00  0.00    +0.000 C 
ATOM     30  F   UNL     1       2.293   4.884  21.547  0.00  0.00    +0.000 F 
ATOM     31  F   UNL     1       0.365   4.405  20.608  0.00  0.00    +0.000 F 
ATOM     32  F   UNL     1       1.505   2.853  21.646  0.00  0.00    +0.000 F 
ENDBRANCH  28  29
ENDBRANCH  22  28
ENDBRANCH  19  20
ENDBRANCH  17  19
ENDBRANCH   6  17
TORSDOF 8
ENDMDL
MODEL 3
REMARK VINA RESULT:      -7.6      1.904      3.167
REMARK  Name = 
REMARK  10 active torsions:
REMARK  status: ('A' for Active; 'I' for Inactive)
REMARK    1  A    between atoms: C_1  and  O_2
REMARK    2  A    between atoms: O_2  and  C_3
REMARK    3  A    between atoms: C_8  and  N_9
REMARK    4  A    between atoms: N_9  and  C_10
REMARK    5  A    between atoms: C_10  and  C_11
REMARK    6  A    between atoms: C_13  and  O_14
REMARK    7  A    between atoms: O_14  and  C_15
REMARK    8  A    between atoms: C_21  and  O_22
REMARK    9  A    between atoms: O_22  and  C_23
REMARK   10  A    between atoms: C_24  and  C_25
REMARK                            x       y       z     vdW  Elec       q    Type
REMARK                         _______ _______ _______ _____ _____    ______ ____
ROOT
ATOM      1  C   UNL     1      -1.057  11.105  22.418  0.00  0.00    +0.000 C 
ATOM      2  O   UNL     1      -0.845  10.727  23.565  0.00  0.00    +0.000 OA
ATOM      3  N   UNL     1      -0.674  10.390  21.295  0.00  0.00    +0.000 N 
ATOM      4  C   UNL     1      -0.043   9.094  21.459  0.00  0.00    +0.000 C 
ATOM      5  C   UNL     1       1.283   9.021  20.708  0.00  0.00    +0.000 C 
ATOM      6  C   UNL     1       1.078   9.352  19.218  0.00  0.00    +0.000 C 
ATOM      7  C   UNL     1       0.421  10.768  19.058  0.00  0.00    +0.000 C 
ATOM      8  C   UNL     1      -0.871  10.851  19.917  0.00  0.00    +0.000 C 
ENDROOT
BRANCH   7   9
ATOM      9  C   UNL     1       1.387  11.942  19.257  0.00  0.00    +0.000 A 
ATOM     10  C   UNL     1       2.052  12.476  18.138  0.00  0.00    +0.000 A 
ATOM     11  C   UNL     1       2.992  13.503  18.278  0.00  0.00    +0.000 A 
ATOM     12  C   UNL     1       3.273  14.026  19.535  0.00  0.00    +0.000 A 
ATOM     13  C   UNL     1       2.607  13.532  20.647  0.00  0.00    +0.000 A 
ATOM     14  C   UNL     1       1.673  12.499  20.509  0.00  0.00    +0.000 A 
ENDBRANCH   7   9
BRANCH   1  16
ATOM     15  C   UNL     1      -1.383  13.357  23.023  0.00  0.00    +0.000 C 
ATOM     16  O   UNL     1      -1.654  12.287  22.114  0.00  0.00    +0.000 OA
ENDBRANCH   1  16
BRANCH   6  17
ATOM     17  N   UNL     1       2.304   9.198  18.408  0.00  0.00    +0.000 NA
ATOM     18  H   UNL     1       2.388  10.006  17.794  0.00  0.00    +0.000 HD
BRANCH  17  19
ATOM     19  C   UNL     1       2.334   7.982  17.581  0.00  0.00    +0.000 C 
BRANCH  19  20
ATOM     20  C   UNL     1       3.034   6.787  18.202  0.00  0.00    +0.000 A 
ATOM     21  C   UNL     1       2.434   6.095  19.279  0.00  0.00    +0.000 A 
ATOM     22  C   UNL     1       3.060   5.031  19.944  0.00  0.00    +0.000 A 
ATOM     23  C   UNL     1       4.320   4.631  19.528  0.00  0.00    +0.000 A 
ATOM     24  C   UNL     1       4.914   5.264  18.431  0.00  0.00    +0.000 A 
ATOM     25  C   UNL     1       4.291   6.331  17.763  0.00  0.00    +0.000 A 
BRANCH  25  26
ATOM     26  O   UNL     1       5.097   6.882  16.804  0.00  0.00    +0.000 OA
ATOM     27  C   UNL     1       6.387   7.341  17.171  0.00  0.00    +0.000 C 
ENDBRANCH  25  26
BRANCH  22  28
ATOM     28  O   UNL     1       2.350   4.536  20.992  0.00  0.00    +0.000 OA
BRANCH  28  29
ATOM     29  C   UNL     1       1.496   3.417  20.818  0.00  0.00    +0.000 C 
ATOM     30  F   UNL     1       2.002   2.453  20.024  0.00  0.00    +0.000 F 
ATOM     31  F   UNL     1       1.197   2.882  22.023  0.00  0.00    +0.000 F 
ATOM     32  F   UNL     1       0.344   3.850  20.257  0.00  0.00    +0.000 F 
ENDBRANCH  28  29
ENDBRANCH  22  28
ENDBRANCH  19  20
ENDBRANCH  17  19
ENDBRANCH   6  17
TORSDOF 8
ENDMDL
MODEL 4
REMARK VINA RESULT:      -7.6      2.339      3.437
REMARK  Name = 
REMARK  10 active torsions:
REMARK  status: ('A' for Active; 'I' for Inactive)
REMARK    1  A    between atoms: C_1  and  O_2
REMARK    2  A    between atoms: O_2  and  C_3
REMARK    3  A    between atoms: C_8  and  N_9
REMARK    4  A    between atoms: N_9  and  C_10
REMARK    5  A    between atoms: C_10  and  C_11
REMARK    6  A    between atoms: C_13  and  O_14
REMARK    7  A    between atoms: O_14  and  C_15
REMARK    8  A    between atoms: C_21  and  O_22
REMARK    9  A    between atoms: O_22  and  C_23
REMARK   10  A    between atoms: C_24  and  C_25
REMARK                            x       y       z     vdW  Elec       q    Type
REMARK                         _______ _______ _______ _____ _____    ______ ____
ROOT
ATOM      1  C   UNL     1      -3.217  11.657  18.722  0.00  0.00    +0.000 C 
ATOM      2  O   UNL     1      -4.144  11.002  18.261  0.00  0.00    +0.000 OA
ATOM      3  N   UNL     1      -1.898  11.497  18.330  0.00  0.00    +0.000 N 
ATOM      4  C   UNL     1      -1.581  10.554  17.275  0.00  0.00    +0.000 C 
ATOM      5  C   UNL     1      -0.506   9.565  17.716  0.00  0.00    +0.000 C 
ATOM      6  C   UNL     1       0.755  10.313  18.187  0.00  0.00    +0.000 C 
ATOM      7  C   UNL     1       0.399  11.308  19.347  0.00  0.00    +0.000 C 
ATOM      8  C   UNL     1      -0.769  12.233  18.910  0.00  0.00    +0.000 C 
ENDROOT
BRANCH   7   9
ATOM      9  C   UNL     1       0.200  10.643  20.714  0.00  0.00    +0.000 A 
ATOM     10  C   UNL     1      -0.726  11.199  21.615  0.00  0.00    +0.000 A 
ATOM     11  C   UNL     1      -0.895  10.667  22.898  0.00  0.00    +0.000 A 
ATOM     12  C   UNL     1      -0.154   9.561  23.299  0.00  0.00    +0.000 A 
ATOM     13  C   UNL     1       0.744   8.981  22.415  0.00  0.00    +0.000 A 
ATOM     14  C   UNL     1       0.920   9.517  21.135  0.00  0.00    +0.000 A 
ENDBRANCH   7   9
BRANCH   1  16
ATOM     15  C   UNL     1      -4.664  12.632  20.304  0.00  0.00    +0.000 C 
ATOM     16  O   UNL     1      -3.367  12.587  19.702  0.00  0.00    +0.000 OA
ENDBRANCH   1  16
BRANCH   6  17
ATOM     17  N   UNL     1       1.878   9.414  18.530  0.00  0.00    +0.000 NA
ATOM     18  H   UNL     1       2.750   9.887  18.298  0.00  0.00    +0.000 HD
BRANCH  17  19
ATOM     19  C   UNL     1       1.850   8.120  17.832  0.00  0.00    +0.000 C 
BRANCH  19  20
ATOM     20  C   UNL     1       3.015   7.194  18.129  0.00  0.00    +0.000 A 
ATOM     21  C   UNL     1       4.095   7.101  17.221  0.00  0.00    +0.000 A 
ATOM     22  C   UNL     1       5.165   6.213  17.400  0.00  0.00    +0.000 A 
ATOM     23  C   UNL     1       5.173   5.391  18.516  0.00  0.00    +0.000 A 
ATOM     24  C   UNL     1       4.144   5.499  19.457  0.00  0.00    +0.000 A 
ATOM     25  C   UNL     1       3.070   6.388  19.281  0.00  0.00    +0.000 A 
BRANCH  25  26
ATOM     26  O   UNL     1       2.116   6.245  20.253  0.00  0.00    +0.000 OA
ATOM     27  C   UNL     1       1.522   4.972  20.450  0.00  0.00    +0.000 C 
ENDBRANCH  25  26
BRANCH  22  28
ATOM     28  O   UNL     1       6.074   6.227  16.389  0.00  0.00    +0.000 OA
BRANCH  28  29
ATOM     29  C   UNL     1       6.473   5.018  15.764  0.00  0.00    +0.000 C 
ATOM     30  F   UNL     1       7.371   4.301  16.468  0.00  0.00    +0.000 F 
ATOM     31  F   UNL     1       5.386   4.250  15.524  0.00  0.00    +0.000 F 
ATOM     32  F   UNL     1       7.036   5.327  14.573  0.00  0.00    +0.000 F 
ENDBRANCH  28  29
ENDBRANCH  22  28
ENDBRANCH  19  20
ENDBRANCH  17  19
ENDBRANCH   6  17
TORSDOF 8
ENDMDL
MODEL 5
REMARK VINA RESULT:      -7.6      0.547      1.255
REMARK  Name = 
REMARK  10 active torsions:
REMARK  status: ('A' for Active; 'I' for Inactive)
REMARK    1  A    between atoms: C_1  and  O_2
REMARK    2  A    between atoms: O_2  and  C_3
REMARK    3  A    between atoms: C_8  and  N_9
REMARK    4  A    between atoms: N_9  and  C_10
REMARK    5  A    between atoms: C_10  and  C_11
REMARK    6  A    between atoms: C_13  and  O_14
REMARK    7  A    between atoms: O_14  and  C_15
REMARK    8  A    between atoms: C_21  and  O_22
REMARK    9  A    between atoms: O_22  and  C_23
REMARK   10  A    between atoms: C_24  and  C_25
REMARK                            x       y       z     vdW  Elec       q    Type
REMARK                         _______ _______ _______ _____ _____    ______ ____
ROOT
ATOM      1  C   UNL     1      -3.275  11.764  18.653  0.00  0.00    +0.000 C 
ATOM      2  O   UNL     1      -4.237  11.113  18.262  0.00  0.00    +0.000 OA
ATOM      3  N   UNL     1      -1.965  11.477  18.307  0.00  0.00    +0.000 N 
ATOM      4  C   UNL     1      -1.697  10.391  17.384  0.00  0.00    +0.000 C 
ATOM      5  C   UNL     1      -0.688   9.403  17.964  0.00  0.00    +0.000 C 
ATOM      6  C   UNL     1       0.612  10.128  18.358  0.00  0.00    +0.000 C 
ATOM      7  C   UNL     1       0.306  11.281  19.378  0.00  0.00    +0.000 C 
ATOM      8  C   UNL     1      -0.799  12.211  18.809  0.00  0.00    +0.000 C 
ENDROOT
BRANCH   7   9
ATOM      9  C   UNL     1       0.054  10.807  20.814  0.00  0.00    +0.000 A 
ATOM     10  C   UNL     1       0.828   9.753  21.332  0.00  0.00    +0.000 A 
ATOM     11  C   UNL     1       0.590   9.241  22.612  0.00  0.00    +0.000 A 
ATOM     12  C   UNL     1      -0.415   9.784  23.406  0.00  0.00    +0.000 A 
ATOM     13  C   UNL     1      -1.171  10.843  22.924  0.00  0.00    +0.000 A 
ATOM     14  C   UNL     1      -0.939  11.349  21.640  0.00  0.00    +0.000 A 
ENDBRANCH   7   9
BRANCH   1  16
ATOM     15  C   UNL     1      -4.416  12.710  20.483  0.00  0.00    +0.000 C 
ATOM     16  O   UNL     1      -3.378  12.818  19.506  0.00  0.00    +0.000 OA
ENDBRANCH   1  16
BRANCH   6  17
ATOM     17  N   UNL     1       1.673   9.214  18.831  0.00  0.00    +0.000 NA
ATOM     18  H   UNL     1       2.376   9.765  19.320  0.00  0.00    +0.000 HD
BRANCH  17  19
ATOM     19  C   UNL     1       2.339   8.457  17.760  0.00  0.00    +0.000 C 
BRANCH  19  20
ATOM     20  C   UNL     1       2.953   7.135  18.182  0.00  0.00    +0.000 A 
ATOM     21  C   UNL     1       2.481   6.470  19.337  0.00  0.00    +0.000 A 
ATOM     22  C   UNL     1       3.052   5.284  19.820  0.00  0.00    +0.000 A 
ATOM     23  C   UNL     1       4.124   4.732  19.137  0.00  0.00    +0.000 A 
ATOM     24  C   UNL     1       4.578   5.340  17.963  0.00  0.00    +0.000 A 
ATOM     25  C   UNL     1       4.008   6.528  17.475  0.00  0.00    +0.000 A 
BRANCH  25  26
ATOM     26  O   UNL     1       4.681   7.017  16.388  0.00  0.00    +0.000 OA
ATOM     27  C   UNL     1       5.947   6.468  16.059  0.00  0.00    +0.000 C 
ENDBRANCH  25  26
BRANCH  22  28
ATOM     28  O   UNL     1       2.499   4.832  20.976  0.00  0.00    +0.000 OA
BRANCH  28  29
ATOM     29  C   UNL     1       1.664   3.685  20.974  0.00  0.00    +0.000 C 
ATOM     30  F   UNL     1       2.104   2.682  20.189  0.00  0.00    +0.000 F 
ATOM     31  F   UNL     1       1.519   3.226  22.237  0.00  0.00    +0.000 F 
ATOM     32  F   UNL     1       0.443   4.055  20.522  0.00  0.00    +0.000 F 
ENDBRANCH  28  29
ENDBRANCH  22  28
ENDBRANCH  19  20
ENDBRANCH  17  19
ENDBRANCH   6  17
TORSDOF 8
ENDMDL
MODEL 6
REMARK VINA RESULT:      -7.4      2.273      3.441
REMARK  Name = 
REMARK  10 active torsions:
REMARK  status: ('A' for Active; 'I' for Inactive)
REMARK    1  A    between atoms: C_1  and  O_2
REMARK    2  A    between atoms: O_2  and  C_3
REMARK    3  A    between atoms: C_8  and  N_9
REMARK    4  A    between atoms: N_9  and  C_10
REMARK    5  A    between atoms: C_10  and  C_11
REMARK    6  A    between atoms: C_13  and  O_14
REMARK    7  A    between atoms: O_14  and  C_15
REMARK    8  A    between atoms: C_21  and  O_22
REMARK    9  A    between atoms: O_22  and  C_23
REMARK   10  A    between atoms: C_24  and  C_25
REMARK                            x       y       z     vdW  Elec       q    Type
REMARK                         _______ _______ _______ _____ _____    ______ ____
ROOT
ATOM      1  C   UNL     1      -0.458  10.529  22.575  0.00  0.00    +0.000 C 
ATOM      2  O   UNL     1      -0.024  10.109  23.642  0.00  0.00    +0.000 OA
ATOM      3  N   UNL     1      -0.316   9.854  21.373  0.00  0.00    +0.000 N 
ATOM      4  C   UNL     1       0.322   8.552  21.362  0.00  0.00    +0.000 C 
ATOM      5  C   UNL     1       1.469   8.502  20.357  0.00  0.00    +0.000 C 
ATOM      6  C   UNL     1       0.972   8.888  18.951  0.00  0.00    +0.000 C 
ATOM      7  C   UNL     1       0.312  10.311  18.977  0.00  0.00    +0.000 C 
ATOM      8  C   UNL     1      -0.780  10.366  20.080  0.00  0.00    +0.000 C 
ENDROOT
BRANCH   7   9
ATOM      9  C   UNL     1       1.310  11.474  19.019  0.00  0.00    +0.000 A 
ATOM     10  C   UNL     1       1.397  12.258  20.184  0.00  0.00    +0.000 A 
ATOM     11  C   UNL     1       2.244  13.369  20.245  0.00  0.00    +0.000 A 
ATOM     12  C   UNL     1       3.033  13.709  19.151  0.00  0.00    +0.000 A 
ATOM     13  C   UNL     1       2.982  12.931  18.003  0.00  0.00    +0.000 A 
ATOM     14  C   UNL     1       2.128  11.825  17.937  0.00  0.00    +0.000 A 
ENDBRANCH   7   9
BRANCH   1  16
ATOM     15  C   UNL     1      -2.281  11.873  23.219  0.00  0.00    +0.000 C 
ATOM     16  O   UNL     1      -1.092  11.723  22.439  0.00  0.00    +0.000 OA
ENDBRANCH   1  16
BRANCH   6  17
ATOM     17  N   UNL     1       2.010   8.760  17.906  0.00  0.00    +0.000 NA
ATOM     18  H   UNL     1       1.628   8.207  17.141  0.00  0.00    +0.000 HD
BRANCH  17  19
ATOM     19  C   UNL     1       3.254   8.122  18.365  0.00  0.00    +0.000 C 
BRANCH  19  20
ATOM     20  C   UNL     1       3.469   6.697  17.891  0.00  0.00    +0.000 A 
ATOM     21  C   UNL     1       2.392   5.780  17.889  0.00  0.00    +0.000 A 
ATOM     22  C   UNL     1       2.540   4.432  17.533  0.00  0.00    +0.000 A 
ATOM     23  C   UNL     1       3.794   3.973  17.162  0.00  0.00    +0.000 A 
ATOM     24  C   UNL     1       4.866   4.869  17.105  0.00  0.00    +0.000 A 
ATOM     25  C   UNL     1       4.721   6.221  17.460  0.00  0.00    +0.000 A 
BRANCH  25  26
ATOM     26  O   UNL     1       5.916   6.888  17.452  0.00  0.00    +0.000 OA
ATOM     27  C   UNL     1       7.052   6.259  16.881  0.00  0.00    +0.000 C 
ENDBRANCH  25  26
BRANCH  22  28
ATOM     28  O   UNL     1       1.403   3.698  17.653  0.00  0.00    +0.000 OA
BRANCH  28  29
ATOM     29  C   UNL     1       1.290   2.705  18.660  0.00  0.00    +0.000 C 
ATOM     30  F   UNL     1       0.075   2.128  18.734  0.00  0.00    +0.000 F 
ATOM     31  F   UNL     1       2.222   1.747  18.460  0.00  0.00    +0.000 F 
ATOM     32  F   UNL     1       1.542   3.288  19.855  0.00  0.00    +0.000 F 
ENDBRANCH  28  29
ENDBRANCH  22  28
ENDBRANCH  19  20
ENDBRANCH  17  19
ENDBRANCH   6  17
TORSDOF 8
ENDMDL
MODEL 7
REMARK VINA RESULT:      -7.4      3.736      8.578
REMARK  Name = 
REMARK  10 active torsions:
REMARK  status: ('A' for Active; 'I' for Inactive)
REMARK    1  A    between atoms: C_1  and  O_2
REMARK    2  A    between atoms: O_2  and  C_3
REMARK    3  A    between atoms: C_8  and  N_9
REMARK    4  A    between atoms: N_9  and  C_10
REMARK    5  A    between atoms: C_10  and  C_11
REMARK    6  A    between atoms: C_13  and  O_14
REMARK    7  A    between atoms: O_14  and  C_15
REMARK    8  A    between atoms: C_21  and  O_22
REMARK    9  A    between atoms: O_22  and  C_23
REMARK   10  A    between atoms: C_24  and  C_25
REMARK                            x       y       z     vdW  Elec       q    Type
REMARK                         _______ _______ _______ _____ _____    ______ ____
ROOT
ATOM      1  C   UNL     1       3.266   2.361  19.373  0.00  0.00    +0.000 C 
ATOM      2  O   UNL     1       2.489   1.504  18.968  0.00  0.00    +0.000 OA
ATOM      3  N   UNL     1       2.964   3.713  19.407  0.00  0.00    +0.000 N 
ATOM      4  C   UNL     1       1.642   4.155  19.006  0.00  0.00    +0.000 C 
ATOM      5  C   UNL     1       1.718   5.238  17.933  0.00  0.00    +0.000 C 
ATOM      6  C   UNL     1       2.573   6.422  18.422  0.00  0.00    +0.000 C 
ATOM      7  C   UNL     1       4.008   5.930  18.824  0.00  0.00    +0.000 C 
ATOM      8  C   UNL     1       3.900   4.757  19.836  0.00  0.00    +0.000 C 
ENDROOT
BRANCH   7   9
ATOM      9  C   UNL     1       4.940   5.657  17.639  0.00  0.00    +0.000 A 
ATOM     10  C   UNL     1       6.133   4.944  17.858  0.00  0.00    +0.000 A 
ATOM     11  C   UNL     1       7.047   4.727  16.822  0.00  0.00    +0.000 A 
ATOM     12  C   UNL     1       6.780   5.204  15.543  0.00  0.00    +0.000 A 
ATOM     13  C   UNL     1       5.595   5.885  15.300  0.00  0.00    +0.000 A 
ATOM     14  C   UNL     1       4.685   6.109  16.338  0.00  0.00    +0.000 A 
ENDBRANCH   7   9
BRANCH   1  16
ATOM     15  C   UNL     1       4.624   1.515  21.101  0.00  0.00    +0.000 C 
ATOM     16  O   UNL     1       4.529   2.092  19.796  0.00  0.00    +0.000 OA
ENDBRANCH   1  16
BRANCH   6  17
ATOM     17  N   UNL     1       2.603   7.555  17.473  0.00  0.00    +0.000 NA
ATOM     18  H   UNL     1       3.451   7.482  16.913  0.00  0.00    +0.000 HD
BRANCH  17  19
ATOM     19  C   UNL     1       2.580   8.879  18.112  0.00  0.00    +0.000 C 
BRANCH  19  20
ATOM     20  C   UNL     1       1.241   9.304  18.685  0.00  0.00    +0.000 A 
ATOM     21  C   UNL     1       0.264   9.888  17.845  0.00  0.00    +0.000 A 
ATOM     22  C   UNL     1      -0.963  10.367  18.325  0.00  0.00    +0.000 A 
ATOM     23  C   UNL     1      -1.239  10.263  19.679  0.00  0.00    +0.000 A 
ATOM     24  C   UNL     1      -0.314   9.643  20.523  0.00  0.00    +0.000 A 
ATOM     25  C   UNL     1       0.918   9.161  20.047  0.00  0.00    +0.000 A 
BRANCH  25  26
ATOM     26  O   UNL     1       1.721   8.706  21.058  0.00  0.00    +0.000 OA
ATOM     27  C   UNL     1       1.436   9.096  22.391  0.00  0.00    +0.000 C 
ENDBRANCH  25  26
BRANCH  22  28
ATOM     28  O   UNL     1      -1.742  10.949  17.374  0.00  0.00    +0.000 OA
BRANCH  28  29
ATOM     29  C   UNL     1      -2.742  10.199  16.706  0.00  0.00    +0.000 C 
ATOM     30  F   UNL     1      -2.283   9.452  15.682  0.00  0.00    +0.000 F 
ATOM     31  F   UNL     1      -3.373   9.393  17.590  0.00  0.00    +0.000 F 
ATOM     32  F   UNL     1      -3.655  11.064  16.206  0.00  0.00    +0.000 F 
ENDBRANCH  28  29
ENDBRANCH  22  28
ENDBRANCH  19  20
ENDBRANCH  17  19
ENDBRANCH   6  17
TORSDOF 8
ENDMDL
MODEL 8
REMARK VINA RESULT:      -7.2      2.923      4.660
REMARK  Name = 
REMARK  10 active torsions:
REMARK  status: ('A' for Active; 'I' for Inactive)
REMARK    1  A    between atoms: C_1  and  O_2
REMARK    2  A    between atoms: O_2  and  C_3
REMARK    3  A    between atoms: C_8  and  N_9
REMARK    4  A    between atoms: N_9  and  C_10
REMARK    5  A    between atoms: C_10  and  C_11
REMARK    6  A    between atoms: C_13  and  O_14
REMARK    7  A    between atoms: O_14  and  C_15
REMARK    8  A    between atoms: C_21  and  O_22
REMARK    9  A    between atoms: O_22  and  C_23
REMARK   10  A    between atoms: C_24  and  C_25
REMARK                            x       y       z     vdW  Elec       q    Type
REMARK                         _______ _______ _______ _____ _____    ______ ____
ROOT
ATOM      1  C   UNL     1      -0.557  14.085  20.200  0.00  0.00    +0.000 C 
ATOM      2  O   UNL     1       0.049  15.068  19.790  0.00  0.00    +0.000 OA
ATOM      3  N   UNL     1      -0.011  12.812  20.239  0.00  0.00    +0.000 N 
ATOM      4  C   UNL     1       1.369  12.619  19.838  0.00  0.00    +0.000 C 
ATOM      5  C   UNL     1       1.493  11.536  18.770  0.00  0.00    +0.000 C 
ATOM      6  C   UNL     1       0.871  10.217  19.265  0.00  0.00    +0.000 C 
ATOM      7  C   UNL     1      -0.630  10.438  19.667  0.00  0.00    +0.000 C 
ATOM      8  C   UNL     1      -0.739  11.615  20.675  0.00  0.00    +0.000 C 
ENDROOT
BRANCH   7   9
ATOM      9  C   UNL     1      -1.598  10.530  18.482  0.00  0.00    +0.000 A 
ATOM     10  C   UNL     1      -2.705  11.394  18.570  0.00  0.00    +0.000 A 
ATOM     11  C   UNL     1      -3.651  11.463  17.542  0.00  0.00    +0.000 A 
ATOM     12  C   UNL     1      -3.502  10.683  16.401  0.00  0.00    +0.000 A 
ATOM     13  C   UNL     1      -2.402   9.845  16.283  0.00  0.00    +0.000 A 
ATOM     14  C   UNL     1      -1.459   9.769  17.314  0.00  0.00    +0.000 A 
ENDBRANCH   7   9
BRANCH   1  16
ATOM     15  C   UNL     1      -2.072  14.849  21.832  0.00  0.00    +0.000 C 
ATOM     16  O   UNL     1      -1.848  14.119  20.623  0.00  0.00    +0.000 OA
ENDBRANCH   1  16
BRANCH   6  17
ATOM     17  N   UNL     1       1.049   9.093  18.321  0.00  0.00    +0.000 NA
ATOM     18  H   UNL     1       0.814   8.228  18.804  0.00  0.00    +0.000 HD
BRANCH  17  19
ATOM     19  C   UNL     1       2.410   8.969  17.780  0.00  0.00    +0.000 C 
BRANCH  19  20
ATOM     20  C   UNL     1       3.053   7.603  17.936  0.00  0.00    +0.000 A 
ATOM     21  C   UNL     1       3.963   7.132  16.961  0.00  0.00    +0.000 A 
ATOM     22  C   UNL     1       4.534   5.853  17.009  0.00  0.00    +0.000 A 
ATOM     23  C   UNL     1       4.201   5.010  18.058  0.00  0.00    +0.000 A 
ATOM     24  C   UNL     1       3.345   5.469  19.063  0.00  0.00    +0.000 A 
ATOM     25  C   UNL     1       2.770   6.751  19.019  0.00  0.00    +0.000 A 
BRANCH  25  26
ATOM     26  O   UNL     1       1.870   6.949  20.032  0.00  0.00    +0.000 OA
ATOM     27  C   UNL     1       1.509   5.852  20.856  0.00  0.00    +0.000 C 
ENDBRANCH  25  26
BRANCH  22  28
ATOM     28  O   UNL     1       5.335   5.563  15.950  0.00  0.00    +0.000 OA
BRANCH  28  29
ATOM     29  C   UNL     1       6.726   5.354  16.136  0.00  0.00    +0.000 C 
ATOM     30  F   UNL     1       7.341   6.324  16.841  0.00  0.00    +0.000 F 
ATOM     31  F   UNL     1       6.930   4.167  16.748  0.00  0.00    +0.000 F 
ATOM     32  F   UNL     1       7.310   5.300  14.916  0.00  0.00    +0.000 F 
ENDBRANCH  28  29
ENDBRANCH  22  28
ENDBRANCH  19  20
ENDBRANCH  17  19
ENDBRANCH   6  17
TORSDOF 8
ENDMDL
MODEL 9
REMARK VINA RESULT:      -7.2      2.030      3.252
REMARK  Name = 
REMARK  10 active torsions:
REMARK  status: ('A' for Active; 'I' for Inactive)
REMARK    1  A    between atoms: C_1  and  O_2
REMARK    2  A    between atoms: O_2  and  C_3
REMARK    3  A    between atoms: C_8  and  N_9
REMARK    4  A    between atoms: N_9  and  C_10
REMARK    5  A    between atoms: C_10  and  C_11
REMARK    6  A    between atoms: C_13  and  O_14
REMARK    7  A    between atoms: O_14  and  C_15
REMARK    8  A    between atoms: C_21  and  O_22
REMARK    9  A    between atoms: O_22  and  C_23
REMARK   10  A    between atoms: C_24  and  C_25
REMARK                            x       y       z     vdW  Elec       q    Type
REMARK                         _______ _______ _______ _____ _____    ______ ____
ROOT
ATOM      1  C   UNL     1       0.901  14.389  18.988  0.00  0.00    +0.000 C 
ATOM      2  O   UNL     1       1.501  15.062  18.158  0.00  0.00    +0.000 OA
ATOM      3  N   UNL     1       1.261  13.094  19.327  0.00  0.00    +0.000 N 
ATOM      4  C   UNL     1       2.443  12.507  18.726  0.00  0.00    +0.000 C 
ATOM      5  C   UNL     1       2.128  11.163  18.074  0.00  0.00    +0.000 C 
ATOM      6  C   UNL     1       1.490  10.204  19.097  0.00  0.00    +0.000 C 
ATOM      7  C   UNL     1       0.198  10.844  19.714  0.00  0.00    +0.000 C 
ATOM      8  C   UNL     1       0.524  12.255  20.276  0.00  0.00    +0.000 C 
ENDROOT
BRANCH   7   9
ATOM      9  C   UNL     1      -1.032  10.798  18.800  0.00  0.00    +0.000 A 
ATOM     10  C   UNL     1      -2.142  11.606  19.108  0.00  0.00    +0.000 A 
ATOM     11  C   UNL     1      -3.312  11.549  18.342  0.00  0.00    +0.000 A 
ATOM     12  C   UNL     1      -3.389  10.697  17.246  0.00  0.00    +0.000 A 
ATOM     13  C   UNL     1      -2.295   9.912  16.910  0.00  0.00    +0.000 A 
ATOM     14  C   UNL     1      -1.128   9.962  17.680  0.00  0.00    +0.000 A 
ENDBRANCH   7   9
BRANCH   1  16
ATOM     15  C   UNL     1      -0.163  16.169  20.102  0.00  0.00    +0.000 C 
ATOM     16  O   UNL     1      -0.211  14.816  19.641  0.00  0.00    +0.000 OA
ENDBRANCH   1  16
BRANCH   6  17
ATOM     17  N   UNL     1       1.254   8.847  18.560  0.00  0.00    +0.000 NA
ATOM     18  H   UNL     1       1.117   8.211  19.344  0.00  0.00    +0.000 HD
BRANCH  17  19
ATOM     19  C   UNL     1       2.350   8.327  17.728  0.00  0.00    +0.000 C 
BRANCH  19  20
ATOM     20  C   UNL     1       2.998   7.049  18.225  0.00  0.00    +0.000 A 
ATOM     21  C   UNL     1       2.450   6.361  19.333  0.00  0.00    +0.000 A 
ATOM     22  C   UNL     1       3.041   5.216  19.886  0.00  0.00    +0.000 A 
ATOM     23  C   UNL     1       4.210   4.729  19.325  0.00  0.00    +0.000 A 
ATOM     24  C   UNL     1       4.745   5.359  18.197  0.00  0.00    +0.000 A 
ATOM     25  C   UNL     1       4.157   6.506  17.639  0.00  0.00    +0.000 A 
BRANCH  25  26
ATOM     26  O   UNL     1       4.907   7.031  16.622  0.00  0.00    +0.000 OA
ATOM     27  C   UNL     1       5.341   6.176  15.576  0.00  0.00    +0.000 C 
ENDBRANCH  25  26
BRANCH  22  28
ATOM     28  O   UNL     1       2.399   4.735  20.984  0.00  0.00    +0.000 OA
BRANCH  28  29
ATOM     29  C   UNL     1       1.499   3.645  20.871  0.00  0.00    +0.000 C 
ATOM     30  F   UNL     1       0.330   3.952  20.275  0.00  0.00    +0.000 F 
ATOM     31  F   UNL     1       2.089   2.637  20.190  0.00  0.00    +0.000 F 
ATOM     32  F   UNL     1       1.221   3.199  22.118  0.00  0.00    +0.000 F 
ENDBRANCH  28  29
ENDBRANCH  22  28
ENDBRANCH  19  20
ENDBRANCH  17  19
ENDBRANCH   6  17
TORSDOF 8
ENDMDL
