MODEL 1
REMARK VINA RESULT:      -6.7      0.000      0.000
REMARK  Name = 
REMARK  12 active torsions:
REMARK  status: ('A' for Active; 'I' for Inactive)
REMARK    1  A    between atoms: C_1  and  O_2
REMARK    2  A    between atoms: O_2  and  C_3
REMARK    3  A    between atoms: C_3  and  C_4
REMARK    4  A    between atoms: C_4  and  C_5
REMARK    5  A    between atoms: C_5  and  N_6
REMARK    6  A    between atoms: N_6  and  C_7
REMARK    7  A    between atoms: N_6  and  S_13
REMARK    8  A    between atoms: C_7  and  C_8
REMARK    9  A    between atoms: S_13  and  C_16
REMARK   10  A    between atoms: C_19  and  C_20
REMARK   11  A    between atoms: C_20  and  O_22
REMARK   12  A    between atoms: O_22  and  C_23
REMARK                            x       y       z     vdW  Elec       q    Type
REMARK                         _______ _______ _______ _____ _____    ______ ____
ROOT
ATOM      1  S   UNL     1       7.118   5.267  16.433  0.00  0.00    +0.000 S 
ATOM      2  O   UNL     1       7.586   6.618  16.326  0.00  0.00    +0.000 OA
ATOM      3  O   UNL     1       7.945   4.200  16.997  0.00  0.00    +0.000 OA
ENDROOT
BRANCH   1   4
ATOM      4  C   UNL     1       6.944   4.817  14.771  0.00  0.00    +0.000 A 
ATOM      5  C   UNL     1       7.693   5.249  13.705  0.00  0.00    +0.000 A 
ATOM      6  N   UNL     1       7.233   4.625  12.576  0.00  0.00    +0.000 N 
ATOM      7  C   UNL     1       6.255   3.706  12.899  0.00  0.00    +0.000 A 
ATOM      8  C   UNL     1       6.058   3.812  14.274  0.00  0.00    +0.000 A 
ATOM      9  H   UNL     1       7.576   4.765  11.634  0.00  0.00    +0.000 HD
BRANCH   7  10
ATOM     10  C   UNL     1       5.667   2.862  11.883  0.00  0.00    +0.000 C 
ATOM     11  O   UNL     1       4.498   2.901  11.561  0.00  0.00    +0.000 OA
BRANCH  10  12
ATOM     12  O   UNL     1       6.610   2.032  11.351  0.00  0.00    +0.000 OA
ATOM     13  C   UNL     1       6.117   0.718  11.096  0.00  0.00    +0.000 C 
ENDBRANCH  10  12
ENDBRANCH   7  10
ENDBRANCH   1   4
BRANCH   1  14
ATOM     14  N   UNL     1       5.625   5.264  17.312  0.00  0.00    +0.000 NA
BRANCH  14  15
ATOM     15  C   UNL     1       4.660   6.267  16.716  0.00  0.00    +0.000 C 
BRANCH  15  16
ATOM     16  C   UNL     1       4.230   7.364  17.675  0.00  0.00    +0.000 C 
BRANCH  16  17
ATOM     17  C   UNL     1       2.729   7.473  17.909  0.00  0.00    +0.000 C 
BRANCH  17  19
ATOM     18  C   UNL     1       1.314   9.382  18.011  0.00  0.00    +0.000 C 
ATOM     19  O   UNL     1       2.356   8.723  17.318  0.00  0.00    +0.000 OA
ENDBRANCH  17  19
ENDBRANCH  16  17
ENDBRANCH  15  16
ENDBRANCH  14  15
BRANCH  14  20
ATOM     20  C   UNL     1       5.079   3.863  17.487  0.00  0.00    +0.000 C 
BRANCH  20  21
ATOM     21  C   UNL     1       3.675   3.791  18.026  0.00  0.00    +0.000 A 
ATOM     22  C   UNL     1       2.525   3.444  17.360  0.00  0.00    +0.000 A 
ATOM     23  C   UNL     1       1.351   3.688  18.109  0.00  0.00    +0.000 A 
ATOM     24  C   UNL     1       1.652   4.133  19.374  0.00  0.00    +0.000 A 
ATOM     25  S   UNL     1       3.333   4.031  19.689  0.00  0.00    +0.000 S 
ENDBRANCH  20  21
ENDBRANCH  14  20
ENDBRANCH   1  14
TORSDOF 10
ENDMDL
MODEL 2
REMARK VINA RESULT:      -6.7      3.217      6.476
REMARK  Name = 
REMARK  12 active torsions:
REMARK  status: ('A' for Active; 'I' for Inactive)
REMARK    1  A    between atoms: C_1  and  O_2
REMARK    2  A    between atoms: O_2  and  C_3
REMARK    3  A    between atoms: C_3  and  C_4
REMARK    4  A    between atoms: C_4  and  C_5
REMARK    5  A    between atoms: C_5  and  N_6
REMARK    6  A    between atoms: N_6  and  C_7
REMARK    7  A    between atoms: N_6  and  S_13
REMARK    8  A    between atoms: C_7  and  C_8
REMARK    9  A    between atoms: S_13  and  C_16
REMARK   10  A    between atoms: C_19  and  C_20
REMARK   11  A    between atoms: C_20  and  O_22
REMARK   12  A    between atoms: O_22  and  C_23
REMARK                            x       y       z     vdW  Elec       q    Type
REMARK                         _______ _______ _______ _____ _____    ______ ____
ROOT
ATOM      1  S   UNL     1       7.160   5.204  18.424  0.00  0.00    +0.000 S 
ATOM      2  O   UNL     1       7.232   5.185  19.856  0.00  0.00    +0.000 OA
ATOM      3  O   UNL     1       8.119   4.480  17.588  0.00  0.00    +0.000 OA
ENDROOT
BRANCH   1   4
ATOM      4  C   UNL     1       7.483   6.868  18.072  0.00  0.00    +0.000 A 
ATOM      5  C   UNL     1       6.826   7.676  17.178  0.00  0.00    +0.000 A 
ATOM      6  N   UNL     1       7.390   8.923  17.233  0.00  0.00    +0.000 N 
ATOM      7  C   UNL     1       8.345   8.976  18.228  0.00  0.00    +0.000 A 
ATOM      8  C   UNL     1       8.420   7.694  18.767  0.00  0.00    +0.000 A 
ATOM      9  H   UNL     1       7.129   9.722  16.669  0.00  0.00    +0.000 HD
BRANCH   7  10
ATOM     10  C   UNL     1       9.028  10.213  18.535  0.00  0.00    +0.000 C 
ATOM     11  O   UNL     1       9.043  11.180  17.801  0.00  0.00    +0.000 OA
BRANCH  10  12
ATOM     12  O   UNL     1       9.638  10.130  19.752  0.00  0.00    +0.000 OA
ATOM     13  C   UNL     1       9.413  11.278  20.568  0.00  0.00    +0.000 C 
ENDBRANCH  10  12
ENDBRANCH   7  10
ENDBRANCH   1   4
BRANCH   1  14
ATOM     14  N   UNL     1       5.580   4.686  17.940  0.00  0.00    +0.000 NA
BRANCH  14  15
ATOM     15  C   UNL     1       5.642   3.986  16.598  0.00  0.00    +0.000 C 
BRANCH  15  16
ATOM     16  C   UNL     1       5.450   4.906  15.405  0.00  0.00    +0.000 C 
BRANCH  16  17
ATOM     17  C   UNL     1       6.505   4.786  14.314  0.00  0.00    +0.000 C 
BRANCH  17  19
ATOM     18  C   UNL     1       6.277   3.510  12.319  0.00  0.00    +0.000 C 
ATOM     19  O   UNL     1       6.288   3.495  13.733  0.00  0.00    +0.000 OA
ENDBRANCH  17  19
ENDBRANCH  16  17
ENDBRANCH  15  16
ENDBRANCH  14  15
BRANCH  14  20
ATOM     20  C   UNL     1       4.879   3.919  19.039  0.00  0.00    +0.000 C 
BRANCH  20  21
ATOM     21  C   UNL     1       3.467   3.501  18.723  0.00  0.00    +0.000 A 
ATOM     22  C   UNL     1       2.391   4.299  18.422  0.00  0.00    +0.000 A 
ATOM     23  C   UNL     1       1.165   3.595  18.390  0.00  0.00    +0.000 A 
ATOM     24  C   UNL     1       1.361   2.248  18.578  0.00  0.00    +0.000 A 
ATOM     25  S   UNL     1       3.028   1.851  18.566  0.00  0.00    +0.000 S 
ENDBRANCH  20  21
ENDBRANCH  14  20
ENDBRANCH   1  14
TORSDOF 10
ENDMDL
MODEL 3
REMARK VINA RESULT:      -6.7      2.627      4.238
REMARK  Name = 
REMARK  12 active torsions:
REMARK  status: ('A' for Active; 'I' for Inactive)
REMARK    1  A    between atoms: C_1  and  O_2
REMARK    2  A    between atoms: O_2  and  C_3
REMARK    3  A    between atoms: C_3  and  C_4
REMARK    4  A    between atoms: C_4  and  C_5
REMARK    5  A    between atoms: C_5  and  N_6
REMARK    6  A    between atoms: N_6  and  C_7
REMARK    7  A    between atoms: N_6  and  S_13
REMARK    8  A    between atoms: C_7  and  C_8
REMARK    9  A    between atoms: S_13  and  C_16
REMARK   10  A    between atoms: C_19  and  C_20
REMARK   11  A    between atoms: C_20  and  O_22
REMARK   12  A    between atoms: O_22  and  C_23
REMARK                            x       y       z     vdW  Elec       q    Type
REMARK                         _______ _______ _______ _____ _____    ______ ____
ROOT
ATOM      1  S   UNL     1       4.497   3.842  18.034  0.00  0.00    +0.000 S 
ATOM      2  O   UNL     1       5.250   3.950  19.250  0.00  0.00    +0.000 OA
ATOM      3  O   UNL     1       3.984   2.559  17.550  0.00  0.00    +0.000 OA
ENDROOT
BRANCH   1   4
ATOM      4  C   UNL     1       5.673   4.290  16.846  0.00  0.00    +0.000 A 
ATOM      5  C   UNL     1       6.986   4.631  17.055  0.00  0.00    +0.000 A 
ATOM      6  N   UNL     1       7.560   4.891  15.839  0.00  0.00    +0.000 N 
ATOM      7  C   UNL     1       6.669   4.625  14.819  0.00  0.00    +0.000 A 
ATOM      8  C   UNL     1       5.476   4.247  15.430  0.00  0.00    +0.000 A 
ATOM      9  H   UNL     1       8.513   5.191  15.681  0.00  0.00    +0.000 HD
BRANCH   7  10
ATOM     10  C   UNL     1       7.069   4.748  13.435  0.00  0.00    +0.000 C 
ATOM     11  O   UNL     1       7.967   5.468  13.049  0.00  0.00    +0.000 OA
BRANCH  10  12
ATOM     12  O   UNL     1       6.300   3.945  12.645  0.00  0.00    +0.000 OA
ATOM     13  C   UNL     1       7.065   3.177  11.718  0.00  0.00    +0.000 C 
ENDBRANCH  10  12
ENDBRANCH   7  10
ENDBRANCH   1   4
BRANCH   1  14
ATOM     14  N   UNL     1       3.147   4.924  18.118  0.00  0.00    +0.000 NA
BRANCH  14  15
ATOM     15  C   UNL     1       1.848   4.145  18.134  0.00  0.00    +0.000 C 
BRANCH  15  16
ATOM     16  C   UNL     1       1.682   3.235  19.338  0.00  0.00    +0.000 C 
BRANCH  16  17
ATOM     17  C   UNL     1       0.801   3.784  20.453  0.00  0.00    +0.000 C 
BRANCH  17  19
ATOM     18  C   UNL     1       2.572   2.674  21.589  0.00  0.00    +0.000 C 
ATOM     19  O   UNL     1       1.218   3.081  21.629  0.00  0.00    +0.000 OA
ENDBRANCH  17  19
ENDBRANCH  16  17
ENDBRANCH  15  16
ENDBRANCH  14  15
BRANCH  14  20
ATOM     20  C   UNL     1       3.309   5.939  19.228  0.00  0.00    +0.000 C 
BRANCH  20  21
ATOM     21  C   UNL     1       2.494   7.194  19.066  0.00  0.00    +0.000 A 
ATOM     22  C   UNL     1       2.286   7.932  17.926  0.00  0.00    +0.000 A 
ATOM     23  C   UNL     1       1.647   9.169  18.170  0.00  0.00    +0.000 A 
ATOM     24  C   UNL     1       1.301   9.297  19.494  0.00  0.00    +0.000 A 
ATOM     25  S   UNL     1       1.557   7.835  20.351  0.00  0.00    +0.000 S 
ENDBRANCH  20  21
ENDBRANCH  14  20
ENDBRANCH   1  14
TORSDOF 10
ENDMDL
MODEL 4
REMARK VINA RESULT:      -6.5      3.339      5.761
REMARK  Name = 
REMARK  12 active torsions:
REMARK  status: ('A' for Active; 'I' for Inactive)
REMARK    1  A    between atoms: C_1  and  O_2
REMARK    2  A    between atoms: O_2  and  C_3
REMARK    3  A    between atoms: C_3  and  C_4
REMARK    4  A    between atoms: C_4  and  C_5
REMARK    5  A    between atoms: C_5  and  N_6
REMARK    6  A    between atoms: N_6  and  C_7
REMARK    7  A    between atoms: N_6  and  S_13
REMARK    8  A    between atoms: C_7  and  C_8
REMARK    9  A    between atoms: S_13  and  C_16
REMARK   10  A    between atoms: C_19  and  C_20
REMARK   11  A    between atoms: C_20  and  O_22
REMARK   12  A    between atoms: O_22  and  C_23
REMARK                            x       y       z     vdW  Elec       q    Type
REMARK                         _______ _______ _______ _____ _____    ______ ____
ROOT
ATOM      1  S   UNL     1       6.312   5.558  16.768  0.00  0.00    +0.000 S 
ATOM      2  O   UNL     1       7.304   4.577  16.436  0.00  0.00    +0.000 OA
ATOM      3  O   UNL     1       5.641   6.361  15.745  0.00  0.00    +0.000 OA
ENDROOT
BRANCH   1   4
ATOM      4  C   UNL     1       7.238   6.717  17.658  0.00  0.00    +0.000 A 
ATOM      5  C   UNL     1       8.082   6.480  18.715  0.00  0.00    +0.000 A 
ATOM      6  N   UNL     1       8.626   7.674  19.104  0.00  0.00    +0.000 N 
ATOM      7  C   UNL     1       8.232   8.685  18.252  0.00  0.00    +0.000 A 
ATOM      8  C   UNL     1       7.358   8.104  17.336  0.00  0.00    +0.000 A 
ATOM      9  H   UNL     1       9.267   7.815  19.875  0.00  0.00    +0.000 HD
BRANCH   7  10
ATOM     10  C   UNL     1       8.741  10.029  18.409  0.00  0.00    +0.000 C 
ATOM     11  O   UNL     1       8.465  10.950  17.670  0.00  0.00    +0.000 OA
BRANCH  10  12
ATOM     12  O   UNL     1       9.561  10.101  19.497  0.00  0.00    +0.000 OA
ATOM     13  C   UNL     1       9.481  11.356  20.172  0.00  0.00    +0.000 C 
ENDBRANCH  10  12
ENDBRANCH   7  10
ENDBRANCH   1   4
BRANCH   1  14
ATOM     14  N   UNL     1       5.069   4.796  17.704  0.00  0.00    +0.000 NA
BRANCH  14  15
ATOM     15  C   UNL     1       4.600   5.719  18.810  0.00  0.00    +0.000 C 
BRANCH  15  16
ATOM     16  C   UNL     1       3.431   6.607  18.427  0.00  0.00    +0.000 C 
BRANCH  16  17
ATOM     17  C   UNL     1       2.569   7.086  19.588  0.00  0.00    +0.000 C 
BRANCH  17  19
ATOM     18  C   UNL     1       2.282   8.598  17.774  0.00  0.00    +0.000 C 
ATOM     19  O   UNL     1       1.916   8.263  19.099  0.00  0.00    +0.000 OA
ENDBRANCH  17  19
ENDBRANCH  16  17
ENDBRANCH  15  16
ENDBRANCH  14  15
BRANCH  14  20
ATOM     20  C   UNL     1       3.974   4.228  16.827  0.00  0.00    +0.000 C 
BRANCH  20  21
ATOM     21  C   UNL     1       2.936   3.414  17.552  0.00  0.00    +0.000 A 
ATOM     22  C   UNL     1       1.592   3.666  17.679  0.00  0.00    +0.000 A 
ATOM     23  C   UNL     1       0.948   2.815  18.605  0.00  0.00    +0.000 A 
ATOM     24  C   UNL     1       1.814   1.867  19.094  0.00  0.00    +0.000 A 
ATOM     25  S   UNL     1       3.309   1.896  18.257  0.00  0.00    +0.000 S 
ENDBRANCH  20  21
ENDBRANCH  14  20
ENDBRANCH   1  14
TORSDOF 10
ENDMDL
MODEL 5
REMARK VINA RESULT:      -6.4      2.227      3.752
REMARK  Name = 
REMARK  12 active torsions:
REMARK  status: ('A' for Active; 'I' for Inactive)
REMARK    1  A    between atoms: C_1  and  O_2
REMARK    2  A    between atoms: O_2  and  C_3
REMARK    3  A    between atoms: C_3  and  C_4
REMARK    4  A    between atoms: C_4  and  C_5
REMARK    5  A    between atoms: C_5  and  N_6
REMARK    6  A    between atoms: N_6  and  C_7
REMARK    7  A    between atoms: N_6  and  S_13
REMARK    8  A    between atoms: C_7  and  C_8
REMARK    9  A    between atoms: S_13  and  C_16
REMARK   10  A    between atoms: C_19  and  C_20
REMARK   11  A    between atoms: C_20  and  O_22
REMARK   12  A    between atoms: O_22  and  C_23
REMARK                            x       y       z     vdW  Elec       q    Type
REMARK                         _______ _______ _______ _____ _____    ______ ____
ROOT
ATOM      1  S   UNL     1       5.520   5.198  18.022  0.00  0.00    +0.000 S 
ATOM      2  O   UNL     1       5.998   6.519  18.309  0.00  0.00    +0.000 OA
ATOM      3  O   UNL     1       6.030   4.017  18.720  0.00  0.00    +0.000 OA
ENDROOT
BRANCH   1   4
ATOM      4  C   UNL     1       6.052   4.972  16.391  0.00  0.00    +0.000 A 
ATOM      5  C   UNL     1       7.266   5.318  15.851  0.00  0.00    +0.000 A 
ATOM      6  N   UNL     1       7.274   4.939  14.536  0.00  0.00    +0.000 N 
ATOM      7  C   UNL     1       6.117   4.253  14.224  0.00  0.00    +0.000 A 
ATOM      8  C   UNL     1       5.335   4.264  15.377  0.00  0.00    +0.000 A 
ATOM      9  H   UNL     1       8.027   5.087  13.876  0.00  0.00    +0.000 HD
BRANCH   7  10
ATOM     10  C   UNL     1       5.926   3.681  12.911  0.00  0.00    +0.000 C 
ATOM     11  O   UNL     1       6.829   3.436  12.139  0.00  0.00    +0.000 OA
BRANCH  10  12
ATOM     12  O   UNL     1       4.600   3.459  12.678  0.00  0.00    +0.000 OA
ATOM     13  C   UNL     1       4.308   3.219  11.302  0.00  0.00    +0.000 C 
ENDBRANCH  10  12
ENDBRANCH   7  10
ENDBRANCH   1   4
BRANCH   1  14
ATOM     14  N   UNL     1       3.797   5.180  18.199  0.00  0.00    +0.000 NA
BRANCH  14  15
ATOM     15  C   UNL     1       3.264   3.771  18.038  0.00  0.00    +0.000 C 
BRANCH  15  16
ATOM     16  C   UNL     1       1.772   3.696  17.768  0.00  0.00    +0.000 C 
BRANCH  16  17
ATOM     17  C   UNL     1       1.000   2.716  18.642  0.00  0.00    +0.000 C 
BRANCH  17  19
ATOM     18  C   UNL     1       1.283   2.821  21.002  0.00  0.00    +0.000 C 
ATOM     19  O   UNL     1       0.734   3.436  19.852  0.00  0.00    +0.000 OA
ENDBRANCH  17  19
ENDBRANCH  16  17
ENDBRANCH  15  16
ENDBRANCH  14  15
BRANCH  14  20
ATOM     20  C   UNL     1       3.354   5.902  19.453  0.00  0.00    +0.000 C 
BRANCH  20  21
ATOM     21  C   UNL     1       2.630   7.201  19.217  0.00  0.00    +0.000 A 
ATOM     22  C   UNL     1       1.838   7.905  20.091  0.00  0.00    +0.000 A 
ATOM     23  C   UNL     1       1.140   8.971  19.479  0.00  0.00    +0.000 A 
ATOM     24  C   UNL     1       1.499   9.106  18.159  0.00  0.00    +0.000 A 
ATOM     25  S   UNL     1       2.821   8.090  17.763  0.00  0.00    +0.000 S 
ENDBRANCH  20  21
ENDBRANCH  14  20
ENDBRANCH   1  14
TORSDOF 10
ENDMDL
MODEL 6
REMARK VINA RESULT:      -6.4      2.676      4.291
REMARK  Name = 
REMARK  12 active torsions:
REMARK  status: ('A' for Active; 'I' for Inactive)
REMARK    1  A    between atoms: C_1  and  O_2
REMARK    2  A    between atoms: O_2  and  C_3
REMARK    3  A    between atoms: C_3  and  C_4
REMARK    4  A    between atoms: C_4  and  C_5
REMARK    5  A    between atoms: C_5  and  N_6
REMARK    6  A    between atoms: N_6  and  C_7
REMARK    7  A    between atoms: N_6  and  S_13
REMARK    8  A    between atoms: C_7  and  C_8
REMARK    9  A    between atoms: S_13  and  C_16
REMARK   10  A    between atoms: C_19  and  C_20
REMARK   11  A    between atoms: C_20  and  O_22
REMARK   12  A    between atoms: O_22  and  C_23
REMARK                            x       y       z     vdW  Elec       q    Type
REMARK                         _______ _______ _______ _____ _____    ______ ____
ROOT
ATOM      1  S   UNL     1       4.830   4.558  18.527  0.00  0.00    +0.000 S 
ATOM      2  O   UNL     1       5.665   5.320  19.409  0.00  0.00    +0.000 OA
ATOM      3  O   UNL     1       4.544   3.141  18.758  0.00  0.00    +0.000 OA
ENDROOT
BRANCH   1   4
ATOM      4  C   UNL     1       5.758   4.558  17.067  0.00  0.00    +0.000 A 
ATOM      5  C   UNL     1       7.108   4.768  16.934  0.00  0.00    +0.000 A 
ATOM      6  N   UNL     1       7.431   4.657  15.608  0.00  0.00    +0.000 N 
ATOM      7  C   UNL     1       6.327   4.274  14.874  0.00  0.00    +0.000 A 
ATOM      8  C   UNL     1       5.265   4.207  15.772  0.00  0.00    +0.000 A 
ATOM      9  H   UNL     1       8.350   4.786  15.204  0.00  0.00    +0.000 HD
BRANCH   7  10
ATOM     10  C   UNL     1       6.434   4.013  13.456  0.00  0.00    +0.000 C 
ATOM     11  O   UNL     1       5.545   3.531  12.785  0.00  0.00    +0.000 OA
BRANCH  10  12
ATOM     12  O   UNL     1       7.663   4.387  12.995  0.00  0.00    +0.000 OA
ATOM     13  C   UNL     1       7.606   5.476  12.076  0.00  0.00    +0.000 C 
ENDBRANCH  10  12
ENDBRANCH   7  10
ENDBRANCH   1   4
BRANCH   1  14
ATOM     14  N   UNL     1       3.302   5.361  18.377  0.00  0.00    +0.000 NA
BRANCH  14  15
ATOM     15  C   UNL     1       2.251   4.402  17.855  0.00  0.00    +0.000 C 
BRANCH  15  16
ATOM     16  C   UNL     1       1.269   3.920  18.907  0.00  0.00    +0.000 C 
BRANCH  16  17
ATOM     17  C   UNL     1       1.106   2.409  19.003  0.00  0.00    +0.000 C 
BRANCH  17  19
ATOM     18  C   UNL     1       1.515   2.924  21.289  0.00  0.00    +0.000 C 
ATOM     19  O   UNL     1       1.778   2.044  20.214  0.00  0.00    +0.000 OA
ENDBRANCH  17  19
ENDBRANCH  16  17
ENDBRANCH  15  16
ENDBRANCH  14  15
BRANCH  14  20
ATOM     20  C   UNL     1       2.931   6.102  19.643  0.00  0.00    +0.000 C 
BRANCH  20  21
ATOM     21  C   UNL     1       2.292   7.449  19.428  0.00  0.00    +0.000 A 
ATOM     22  C   UNL     1       1.619   8.227  20.337  0.00  0.00    +0.000 A 
ATOM     23  C   UNL     1       0.962   9.332  19.750  0.00  0.00    +0.000 A 
ATOM     24  C   UNL     1       1.235   9.415  18.406  0.00  0.00    +0.000 A 
ATOM     25  S   UNL     1       2.446   8.294  17.943  0.00  0.00    +0.000 S 
ENDBRANCH  20  21
ENDBRANCH  14  20
ENDBRANCH   1  14
TORSDOF 10
ENDMDL
MODEL 7
REMARK VINA RESULT:      -6.3      2.403      3.996
REMARK  Name = 
REMARK  12 active torsions:
REMARK  status: ('A' for Active; 'I' for Inactive)
REMARK    1  A    between atoms: C_1  and  O_2
REMARK    2  A    between atoms: O_2  and  C_3
REMARK    3  A    between atoms: C_3  and  C_4
REMARK    4  A    between atoms: C_4  and  C_5
REMARK    5  A    between atoms: C_5  and  N_6
REMARK    6  A    between atoms: N_6  and  C_7
REMARK    7  A    between atoms: N_6  and  S_13
REMARK    8  A    between atoms: C_7  and  C_8
REMARK    9  A    between atoms: S_13  and  C_16
REMARK   10  A    between atoms: C_19  and  C_20
REMARK   11  A    between atoms: C_20  and  O_22
REMARK   12  A    between atoms: O_22  and  C_23
REMARK                            x       y       z     vdW  Elec       q    Type
REMARK                         _______ _______ _______ _____ _____    ______ ____
ROOT
ATOM      1  S   UNL     1       5.002   5.904  17.580  0.00  0.00    +0.000 S 
ATOM      2  O   UNL     1       5.258   7.213  17.054  0.00  0.00    +0.000 OA
ATOM      3  O   UNL     1       5.688   5.398  18.770  0.00  0.00    +0.000 OA
ENDROOT
BRANCH   1   4
ATOM      4  C   UNL     1       5.584   4.887  16.307  0.00  0.00    +0.000 A 
ATOM      5  C   UNL     1       5.794   3.531  16.349  0.00  0.00    +0.000 A 
ATOM      6  N   UNL     1       6.236   3.128  15.117  0.00  0.00    +0.000 N 
ATOM      7  C   UNL     1       6.222   4.185  14.230  0.00  0.00    +0.000 A 
ATOM      8  C   UNL     1       5.816   5.300  14.958  0.00  0.00    +0.000 A 
ATOM      9  H   UNL     1       6.496   2.185  14.856  0.00  0.00    +0.000 HD
BRANCH   7  10
ATOM     10  C   UNL     1       6.572   3.991  12.841  0.00  0.00    +0.000 C 
ATOM     11  O   UNL     1       7.368   4.681  12.238  0.00  0.00    +0.000 OA
BRANCH  10  12
ATOM     12  O   UNL     1       5.886   2.933  12.321  0.00  0.00    +0.000 OA
ATOM     13  C   UNL     1       4.612   3.299  11.793  0.00  0.00    +0.000 C 
ENDBRANCH  10  12
ENDBRANCH   7  10
ENDBRANCH   1   4
BRANCH   1  14
ATOM     14  N   UNL     1       3.302   5.745  17.874  0.00  0.00    +0.000 NA
BRANCH  14  15
ATOM     15  C   UNL     1       2.869   4.304  17.699  0.00  0.00    +0.000 C 
BRANCH  15  16
ATOM     16  C   UNL     1       1.416   4.044  18.052  0.00  0.00    +0.000 C 
BRANCH  16  17
ATOM     17  C   UNL     1       1.119   2.656  18.604  0.00  0.00    +0.000 C 
BRANCH  17  19
ATOM     18  C   UNL     1       1.319   3.171  20.918  0.00  0.00    +0.000 C 
ATOM     19  O   UNL     1       1.913   2.556  19.792  0.00  0.00    +0.000 OA
ENDBRANCH  17  19
ENDBRANCH  16  17
ENDBRANCH  15  16
ENDBRANCH  14  15
BRANCH  14  20
ATOM     20  C   UNL     1       2.896   6.391  19.181  0.00  0.00    +0.000 C 
BRANCH  20  21
ATOM     21  C   UNL     1       2.163   7.699  19.043  0.00  0.00    +0.000 A 
ATOM     22  C   UNL     1       1.963   8.447  17.909  0.00  0.00    +0.000 A 
ATOM     23  C   UNL     1       1.420   9.725  18.171  0.00  0.00    +0.000 A 
ATOM     24  C   UNL     1       1.132   9.879  19.506  0.00  0.00    +0.000 A 
ATOM     25  S   UNL     1       1.319   8.404  20.359  0.00  0.00    +0.000 S 
ENDBRANCH  20  21
ENDBRANCH  14  20
ENDBRANCH   1  14
TORSDOF 10
ENDMDL
MODEL 8
REMARK VINA RESULT:      -6.3      3.208      6.462
REMARK  Name = 
REMARK  12 active torsions:
REMARK  status: ('A' for Active; 'I' for Inactive)
REMARK    1  A    between atoms: C_1  and  O_2
REMARK    2  A    between atoms: O_2  and  C_3
REMARK    3  A    between atoms: C_3  and  C_4
REMARK    4  A    between atoms: C_4  and  C_5
REMARK    5  A    between atoms: C_5  and  N_6
REMARK    6  A    between atoms: N_6  and  C_7
REMARK    7  A    between atoms: N_6  and  S_13
REMARK    8  A    between atoms: C_7  and  C_8
REMARK    9  A    between atoms: S_13  and  C_16
REMARK   10  A    between atoms: C_19  and  C_20
REMARK   11  A    between atoms: C_20  and  O_22
REMARK   12  A    between atoms: O_22  and  C_23
REMARK                            x       y       z     vdW  Elec       q    Type
REMARK                         _______ _______ _______ _____ _____    ______ ____
ROOT
ATOM      1  S   UNL     1       7.118   5.029  18.407  0.00  0.00    +0.000 S 
ATOM      2  O   UNL     1       6.900   5.039  19.824  0.00  0.00    +0.000 OA
ATOM      3  O   UNL     1       8.230   4.298  17.797  0.00  0.00    +0.000 OA
ENDROOT
BRANCH   1   4
ATOM      4  C   UNL     1       7.493   6.688  18.091  0.00  0.00    +0.000 A 
ATOM      5  C   UNL     1       6.949   7.500  17.128  0.00  0.00    +0.000 A 
ATOM      6  N   UNL     1       7.514   8.742  17.244  0.00  0.00    +0.000 N 
ATOM      7  C   UNL     1       8.352   8.789  18.340  0.00  0.00    +0.000 A 
ATOM      8  C   UNL     1       8.353   7.508  18.886  0.00  0.00    +0.000 A 
ATOM      9  H   UNL     1       7.327   9.541  16.653  0.00  0.00    +0.000 HD
BRANCH   7  10
ATOM     10  C   UNL     1       9.007  10.020  18.720  0.00  0.00    +0.000 C 
ATOM     11  O   UNL     1       9.654  10.160  19.738  0.00  0.00    +0.000 OA
BRANCH  10  12
ATOM     12  O   UNL     1       8.794  10.982  17.776  0.00  0.00    +0.000 OA
ATOM     13  C   UNL     1       9.720  12.065  17.865  0.00  0.00    +0.000 C 
ENDBRANCH  10  12
ENDBRANCH   7  10
ENDBRANCH   1   4
BRANCH   1  14
ATOM     14  N   UNL     1       5.670   4.484  17.626  0.00  0.00    +0.000 NA
BRANCH  14  15
ATOM     15  C   UNL     1       5.993   3.897  16.267  0.00  0.00    +0.000 C 
BRANCH  15  16
ATOM     16  C   UNL     1       5.809   4.864  15.111  0.00  0.00    +0.000 C 
BRANCH  16  17
ATOM     17  C   UNL     1       6.678   4.592  13.891  0.00  0.00    +0.000 C 
BRANCH  17  19
ATOM     18  C   UNL     1       5.960   3.349  11.994  0.00  0.00    +0.000 C 
ATOM     19  O   UNL     1       6.217   3.334  13.385  0.00  0.00    +0.000 OA
ENDBRANCH  17  19
ENDBRANCH  16  17
ENDBRANCH  15  16
ENDBRANCH  14  15
BRANCH  14  20
ATOM     20  C   UNL     1       4.841   3.601  18.534  0.00  0.00    +0.000 C 
BRANCH  20  21
ATOM     21  C   UNL     1       3.707   4.299  19.236  0.00  0.00    +0.000 A 
ATOM     22  C   UNL     1       3.256   5.584  19.056  0.00  0.00    +0.000 A 
ATOM     23  C   UNL     1       2.314   5.988  20.029  0.00  0.00    +0.000 A 
ATOM     24  C   UNL     1       2.002   4.953  20.878  0.00  0.00    +0.000 A 
ATOM     25  S   UNL     1       2.685   3.476  20.340  0.00  0.00    +0.000 S 
ENDBRANCH  20  21
ENDBRANCH  14  20
ENDBRANCH   1  14
TORSDOF 10
ENDMDL
MODEL 9
REMARK VINA RESULT:      -6.2      3.426      5.770
REMARK  Name = 
REMARK  12 active torsions:
REMARK  status: ('A' for Active; 'I' for Inactive)
REMARK    1  A    between atoms: C_1  and  O_2
REMARK    2  A    between atoms: O_2  and  C_3
REMARK    3  A    between atoms: C_3  and  C_4
REMARK    4  A    between atoms: C_4  and  C_5
REMARK    5  A    between atoms: C_5  and  N_6
REMARK    6  A    between atoms: N_6  and  C_7
REMARK    7  A    between atoms: N_6  and  S_13
REMARK    8  A    between atoms: C_7  and  C_8
REMARK    9  A    between atoms: S_13  and  C_16
REMARK   10  A    between atoms: C_19  and  C_20
REMARK   11  A    between atoms: C_20  and  O_22
REMARK   12  A    between atoms: O_22  and  C_23
REMARK                            x       y       z     vdW  Elec       q    Type
REMARK                         _______ _______ _______ _____ _____    ______ ____
ROOT
ATOM      1  S   UNL     1       6.049   5.872  16.715  0.00  0.00    +0.000 S 
ATOM      2  O   UNL     1       6.866   4.716  16.491  0.00  0.00    +0.000 OA
ATOM      3  O   UNL     1       5.611   6.738  15.619  0.00  0.00    +0.000 OA
ENDROOT
BRANCH   1   4
ATOM      4  C   UNL     1       7.105   6.883  17.640  0.00  0.00    +0.000 A 
ATOM      5  C   UNL     1       7.976   6.498  18.629  0.00  0.00    +0.000 A 
ATOM      6  N   UNL     1       8.633   7.613  19.079  0.00  0.00    +0.000 N 
ATOM      7  C   UNL     1       8.280   8.716  18.328  0.00  0.00    +0.000 A 
ATOM      8  C   UNL     1       7.320   8.278  17.419  0.00  0.00    +0.000 A 
ATOM      9  H   UNL     1       9.318   7.642  19.823  0.00  0.00    +0.000 HD
BRANCH   7  10
ATOM     10  C   UNL     1       8.902  10.000  18.560  0.00  0.00    +0.000 C 
ATOM     11  O   UNL     1       9.734  10.206  19.420  0.00  0.00    +0.000 OA
BRANCH  10  12
ATOM     12  O   UNL     1       8.422  10.927  17.682  0.00  0.00    +0.000 OA
ATOM     13  C   UNL     1       8.985  12.223  17.875  0.00  0.00    +0.000 C 
ENDBRANCH  10  12
ENDBRANCH   7  10
ENDBRANCH   1   4
BRANCH   1  14
ATOM     14  N   UNL     1       4.623   5.388  17.572  0.00  0.00    +0.000 NA
BRANCH  14  15
ATOM     15  C   UNL     1       3.643   6.540  17.658  0.00  0.00    +0.000 C 
BRANCH  15  16
ATOM     16  C   UNL     1       2.948   6.667  19.002  0.00  0.00    +0.000 C 
BRANCH  16  17
ATOM     17  C   UNL     1       2.051   7.888  19.159  0.00  0.00    +0.000 C 
BRANCH  17  19
ATOM     18  C   UNL     1       0.947   9.049  20.917  0.00  0.00    +0.000 C 
ATOM     19  O   UNL     1       1.702   7.911  20.547  0.00  0.00    +0.000 OA
ENDBRANCH  17  19
ENDBRANCH  16  17
ENDBRANCH  15  16
ENDBRANCH  14  15
BRANCH  14  20
ATOM     20  C   UNL     1       4.057   4.093  17.034  0.00  0.00    +0.000 C 
BRANCH  20  21
ATOM     21  C   UNL     1       3.078   3.400  17.944  0.00  0.00    +0.000 A 
ATOM     22  C   UNL     1       1.710   3.341  17.837  0.00  0.00    +0.000 A 
ATOM     23  C   UNL     1       1.083   2.790  18.978  0.00  0.00    +0.000 A 
ATOM     24  C   UNL     1       2.011   2.355  19.894  0.00  0.00    +0.000 A 
ATOM     25  S   UNL     1       3.600   2.423  19.254  0.00  0.00    +0.000 S 
ENDBRANCH  20  21
ENDBRANCH  14  20
ENDBRANCH   1  14
TORSDOF 10
ENDMDL
