MODEL 1
REMARK VINA RESULT:      -8.6      0.000      0.000
REMARK  Name = 
REMARK  9 active torsions:
REMARK  status: ('A' for Active; 'I' for Inactive)
REMARK    1  A    between atoms: C_1  and  C_2
REMARK    2  A    between atoms: C_2  and  O_3
REMARK    3  A    between atoms: O_3  and  C_4
REMARK    4  A    between atoms: C_7  and  N_8
REMARK    5  A    between atoms: N_8  and  S_9
REMARK    6  A    between atoms: S_9  and  C_12
REMARK    7  A    between atoms: C_18  and  C_19
REMARK    8  A    between atoms: N_21  and  C_22
REMARK    9  A    between atoms: N_21  and  C_23
REMARK                            x       y       z     vdW  Elec       q    Type
REMARK                         _______ _______ _______ _____ _____    ______ ____
ROOT
ATOM      1  C   UNL     1       1.996   7.259  19.821  0.00  0.00    +0.000 A 
ATOM      2  C   UNL     1       2.031   7.929  18.591  0.00  0.00    +0.000 A 
ATOM      3  C   UNL     1       1.488   9.191  18.475  0.00  0.00    +0.000 A 
ATOM      4  C   UNL     1       0.873   9.787  19.577  0.00  0.00    +0.000 A 
ATOM      5  N   UNL     1       0.131  10.936  19.358  0.00  0.00    +0.000 N 
ATOM      6  C   UNL     1      -0.654  11.460  20.327  0.00  0.00    +0.000 A 
ATOM      7  C   UNL     1      -0.576  11.277  21.653  0.00  0.00    +0.000 A 
ATOM      8  C   UNL     1       0.300  10.029  22.003  0.00  0.00    +0.000 A 
ATOM      9  O   UNL     1       0.491   9.644  23.147  0.00  0.00    +0.000 OA
ATOM     10  C   UNL     1       0.915   9.203  20.852  0.00  0.00    +0.000 A 
ATOM     11  C   UNL     1       1.480   7.901  20.976  0.00  0.00    +0.000 A 
ATOM     12  H   UNL     1       0.050  11.293  18.413  0.00  0.00    +0.000 HD
ENDROOT
BRANCH   7  13
ATOM     13  C   UNL     1      -1.317  12.197  22.671  0.00  0.00    +0.000 C 
ATOM     14  O   UNL     1      -2.235  11.693  23.320  0.00  0.00    +0.000 OA
ATOM     15  N   UNL     1      -0.952  13.568  22.908  0.00  0.00    +0.000 N 
ATOM     16  C   UNL     1       0.114  14.308  22.239  0.00  0.00    +0.000 C 
BRANCH  15  17
ATOM     17  C   UNL     1      -1.654  14.464  23.887  0.00  0.00    +0.000 C 
ATOM     18  C   UNL     1      -0.948  15.633  24.595  0.00  0.00    +0.000 C 
ATOM     19  C   UNL     1      -1.128  17.018  23.967  0.00  0.00    +0.000 C 
ATOM     20  C   UNL     1      -2.532  17.292  23.434  0.00  0.00    +0.000 C 
ATOM     21  C   UNL     1      -3.045  16.144  22.582  0.00  0.00    +0.000 C 
ATOM     22  C   UNL     1      -3.063  14.868  23.401  0.00  0.00    +0.000 C 
ENDBRANCH  15  17
ENDBRANCH   7  13
BRANCH   1  23
ATOM     23  S   UNL     1       2.621   5.588  19.686  0.00  0.00    +0.000 S 
ATOM     24  O   UNL     1       2.055   5.067  18.456  0.00  0.00    +0.000 OA
ATOM     25  O   UNL     1       2.355   4.946  20.953  0.00  0.00    +0.000 OA
BRANCH  23  26
ATOM     26  N   UNL     1       4.279   5.652  19.400  0.00  0.00    +0.000 N 
ATOM     27  H   UNL     1       4.610   6.529  19.812  0.00  0.00    +0.000 HD
BRANCH  26  31
ATOM     28  C   UNL     1       5.700   5.034  15.459  0.00  0.00    +0.000 A 
ATOM     29  C   UNL     1       5.405   6.336  15.891  0.00  0.00    +0.000 A 
ATOM     30  C   UNL     1       4.920   6.564  17.183  0.00  0.00    +0.000 A 
ATOM     31  C   UNL     1       4.714   5.481  18.050  0.00  0.00    +0.000 A 
ATOM     32  C   UNL     1       4.963   4.188  17.608  0.00  0.00    +0.000 A 
ATOM     33  C   UNL     1       5.454   3.970  16.317  0.00  0.00    +0.000 A 
BRANCH  28  34
ATOM     34  O   UNL     1       6.190   4.925  14.184  0.00  0.00    +0.000 OA
BRANCH  34  36
ATOM     35  C   UNL     1       6.576   3.705  12.153  0.00  0.00    +0.000 C 
ATOM     36  C   UNL     1       6.062   3.634  13.580  0.00  0.00    +0.000 C 
ENDBRANCH  34  36
ENDBRANCH  28  34
ENDBRANCH  26  31
ENDBRANCH  23  26
ENDBRANCH   1  23
TORSDOF 7
ENDMDL
MODEL 2
REMARK VINA RESULT:      -8.6      1.256      1.863
REMARK  Name = 
REMARK  9 active torsions:
REMARK  status: ('A' for Active; 'I' for Inactive)
REMARK    1  A    between atoms: C_1  and  C_2
REMARK    2  A    between atoms: C_2  and  O_3
REMARK    3  A    between atoms: O_3  and  C_4
REMARK    4  A    between atoms: C_7  and  N_8
REMARK    5  A    between atoms: N_8  and  S_9
REMARK    6  A    between atoms: S_9  and  C_12
REMARK    7  A    between atoms: C_18  and  C_19
REMARK    8  A    between atoms: N_21  and  C_22
REMARK    9  A    between atoms: N_21  and  C_23
REMARK                            x       y       z     vdW  Elec       q    Type
REMARK                         _______ _______ _______ _____ _____    ______ ____
ROOT
ATOM      1  C   UNL     1       1.994   7.592  19.579  0.00  0.00    +0.000 A 
ATOM      2  C   UNL     1       2.046   8.258  18.346  0.00  0.00    +0.000 A 
ATOM      3  C   UNL     1       1.535   9.533  18.227  0.00  0.00    +0.000 A 
ATOM      4  C   UNL     1       0.937  10.148  19.327  0.00  0.00    +0.000 A 
ATOM      5  N   UNL     1       0.225  11.315  19.106  0.00  0.00    +0.000 N 
ATOM      6  C   UNL     1      -0.546  11.862  20.074  0.00  0.00    +0.000 A 
ATOM      7  C   UNL     1      -0.471  11.681  21.400  0.00  0.00    +0.000 A 
ATOM      8  C   UNL     1       0.372  10.412  21.754  0.00  0.00    +0.000 A 
ATOM      9  O   UNL     1       0.554  10.025  22.899  0.00  0.00    +0.000 OA
ATOM     10  C   UNL     1       0.965   9.567  20.605  0.00  0.00    +0.000 A 
ATOM     11  C   UNL     1       1.495   8.251  20.732  0.00  0.00    +0.000 A 
ATOM     12  H   UNL     1       0.152  11.671  18.160  0.00  0.00    +0.000 HD
ENDROOT
BRANCH   7  13
ATOM     13  C   UNL     1      -1.187  12.623  22.416  0.00  0.00    +0.000 C 
ATOM     14  O   UNL     1      -0.529  13.015  23.381  0.00  0.00    +0.000 OA
ATOM     15  N   UNL     1      -2.543  13.076  22.253  0.00  0.00    +0.000 N 
ATOM     16  C   UNL     1      -3.450  12.721  21.166  0.00  0.00    +0.000 C 
BRANCH  15  17
ATOM     17  C   UNL     1      -3.244  13.986  23.221  0.00  0.00    +0.000 C 
ATOM     18  C   UNL     1      -4.109  15.172  22.765  0.00  0.00    +0.000 C 
ATOM     19  C   UNL     1      -5.618  14.923  22.684  0.00  0.00    +0.000 C 
ATOM     20  C   UNL     1      -6.178  14.067  23.816  0.00  0.00    +0.000 C 
ATOM     21  C   UNL     1      -5.346  12.816  24.042  0.00  0.00    +0.000 C 
ATOM     22  C   UNL     1      -3.918  13.205  24.370  0.00  0.00    +0.000 C 
ENDBRANCH  15  17
ENDBRANCH   7  13
BRANCH   1  23
ATOM     23  S   UNL     1       2.576   5.905  19.448  0.00  0.00    +0.000 S 
ATOM     24  O   UNL     1       2.057   5.420  18.183  0.00  0.00    +0.000 OA
ATOM     25  O   UNL     1       2.228   5.253  20.690  0.00  0.00    +0.000 OA
BRANCH  23  26
ATOM     26  N   UNL     1       4.248   5.924  19.245  0.00  0.00    +0.000 N 
ATOM     27  H   UNL     1       4.568   6.841  19.570  0.00  0.00    +0.000 HD
BRANCH  26  31
ATOM     28  C   UNL     1       5.882   4.862  15.487  0.00  0.00    +0.000 A 
ATOM     29  C   UNL     1       5.378   6.156  15.680  0.00  0.00    +0.000 A 
ATOM     30  C   UNL     1       4.819   6.526  16.908  0.00  0.00    +0.000 A 
ATOM     31  C   UNL     1       4.751   5.592  17.951  0.00  0.00    +0.000 A 
ATOM     32  C   UNL     1       5.209   4.296  17.746  0.00  0.00    +0.000 A 
ATOM     33  C   UNL     1       5.772   3.938  16.517  0.00  0.00    +0.000 A 
BRANCH  28  34
ATOM     34  O   UNL     1       6.428   4.611  14.255  0.00  0.00    +0.000 OA
BRANCH  34  36
ATOM     35  C   UNL     1       6.446   3.488  12.133  0.00  0.00    +0.000 C 
ATOM     36  C   UNL     1       5.641   3.794  13.384  0.00  0.00    +0.000 C 
ENDBRANCH  34  36
ENDBRANCH  28  34
ENDBRANCH  26  31
ENDBRANCH  23  26
ENDBRANCH   1  23
TORSDOF 7
ENDMDL
MODEL 3
REMARK VINA RESULT:      -8.4      0.811      1.181
REMARK  Name = 
REMARK  9 active torsions:
REMARK  status: ('A' for Active; 'I' for Inactive)
REMARK    1  A    between atoms: C_1  and  C_2
REMARK    2  A    between atoms: C_2  and  O_3
REMARK    3  A    between atoms: O_3  and  C_4
REMARK    4  A    between atoms: C_7  and  N_8
REMARK    5  A    between atoms: N_8  and  S_9
REMARK    6  A    between atoms: S_9  and  C_12
REMARK    7  A    between atoms: C_18  and  C_19
REMARK    8  A    between atoms: N_21  and  C_22
REMARK    9  A    between atoms: N_21  and  C_23
REMARK                            x       y       z     vdW  Elec       q    Type
REMARK                         _______ _______ _______ _____ _____    ______ ____
ROOT
ATOM      1  C   UNL     1       2.145   7.301  19.594  0.00  0.00    +0.000 A 
ATOM      2  C   UNL     1       2.091   7.983  18.371  0.00  0.00    +0.000 A 
ATOM      3  C   UNL     1       1.478   9.216  18.293  0.00  0.00    +0.000 A 
ATOM      4  C   UNL     1       0.882   9.768  19.427  0.00  0.00    +0.000 A 
ATOM      5  N   UNL     1       0.072  10.878  19.253  0.00  0.00    +0.000 N 
ATOM      6  C   UNL     1      -0.697  11.351  20.261  0.00  0.00    +0.000 A 
ATOM      7  C   UNL     1      -0.551  11.161  21.580  0.00  0.00    +0.000 A 
ATOM      8  C   UNL     1       0.403   9.958  21.878  0.00  0.00    +0.000 A 
ATOM      9  O   UNL     1       0.665   9.573  23.008  0.00  0.00    +0.000 OA
ATOM     10  C   UNL     1       1.010   9.176  20.693  0.00  0.00    +0.000 A 
ATOM     11  C   UNL     1       1.647   7.904  20.777  0.00  0.00    +0.000 A 
ATOM     12  H   UNL     1      -0.069  11.238  18.316  0.00  0.00    +0.000 HD
ENDROOT
BRANCH   7  13
ATOM     13  C   UNL     1      -1.294  12.031  22.639  0.00  0.00    +0.000 C 
ATOM     14  O   UNL     1      -2.165  11.477  23.312  0.00  0.00    +0.000 OA
ATOM     15  N   UNL     1      -0.981  13.414  22.887  0.00  0.00    +0.000 N 
ATOM     16  C   UNL     1       0.027  14.210  22.193  0.00  0.00    +0.000 C 
BRANCH  15  17
ATOM     17  C   UNL     1      -1.685  14.262  23.906  0.00  0.00    +0.000 C 
ATOM     18  C   UNL     1      -1.009  15.457  24.599  0.00  0.00    +0.000 C 
ATOM     19  C   UNL     1      -1.284  16.838  23.997  0.00  0.00    +0.000 C 
ATOM     20  C   UNL     1      -2.720  17.047  23.526  0.00  0.00    +0.000 C 
ATOM     21  C   UNL     1      -3.211  15.885  22.681  0.00  0.00    +0.000 C 
ATOM     22  C   UNL     1      -3.132  14.600  23.483  0.00  0.00    +0.000 C 
ENDBRANCH  15  17
ENDBRANCH   7  13
BRANCH   1  23
ATOM     23  S   UNL     1       2.850   5.666  19.413  0.00  0.00    +0.000 S 
ATOM     24  O   UNL     1       1.939   4.778  20.110  0.00  0.00    +0.000 OA
ATOM     25  O   UNL     1       4.235   5.770  19.813  0.00  0.00    +0.000 OA
BRANCH  23  26
ATOM     26  N   UNL     1       2.742   5.207  17.796  0.00  0.00    +0.000 N 
ATOM     27  H   UNL     1       2.160   4.364  17.773  0.00  0.00    +0.000 HD
BRANCH  26  31
ATOM     28  C   UNL     1       6.310   4.846  15.546  0.00  0.00    +0.000 A 
ATOM     29  C   UNL     1       5.719   3.697  16.092  0.00  0.00    +0.000 A 
ATOM     30  C   UNL     1       4.548   3.792  16.852  0.00  0.00    +0.000 A 
ATOM     31  C   UNL     1       3.967   5.048  17.081  0.00  0.00    +0.000 A 
ATOM     32  C   UNL     1       4.577   6.191  16.578  0.00  0.00    +0.000 A 
ATOM     33  C   UNL     1       5.744   6.085  15.813  0.00  0.00    +0.000 A 
BRANCH  28  34
ATOM     34  O   UNL     1       7.441   4.638  14.799  0.00  0.00    +0.000 OA
BRANCH  34  36
ATOM     35  C   UNL     1       6.609   3.807  12.707  0.00  0.00    +0.000 C 
ATOM     36  C   UNL     1       7.329   4.946  13.407  0.00  0.00    +0.000 C 
ENDBRANCH  34  36
ENDBRANCH  28  34
ENDBRANCH  26  31
ENDBRANCH  23  26
ENDBRANCH   1  23
TORSDOF 7
ENDMDL
MODEL 4
REMARK VINA RESULT:      -8.3      3.938     10.117
REMARK  Name = 
REMARK  9 active torsions:
REMARK  status: ('A' for Active; 'I' for Inactive)
REMARK    1  A    between atoms: C_1  and  C_2
REMARK    2  A    between atoms: C_2  and  O_3
REMARK    3  A    between atoms: O_3  and  C_4
REMARK    4  A    between atoms: C_7  and  N_8
REMARK    5  A    between atoms: N_8  and  S_9
REMARK    6  A    between atoms: S_9  and  C_12
REMARK    7  A    between atoms: C_18  and  C_19
REMARK    8  A    between atoms: N_21  and  C_22
REMARK    9  A    between atoms: N_21  and  C_23
REMARK                            x       y       z     vdW  Elec       q    Type
REMARK                         _______ _______ _______ _____ _____    ______ ____
ROOT
ATOM      1  C   UNL     1      -0.602  10.853  20.061  0.00  0.00    +0.000 A 
ATOM      2  C   UNL     1      -0.541  10.375  21.377  0.00  0.00    +0.000 A 
ATOM      3  C   UNL     1       0.305   9.334  21.697  0.00  0.00    +0.000 A 
ATOM      4  C   UNL     1       1.077   8.736  20.701  0.00  0.00    +0.000 A 
ATOM      5  N   UNL     1       1.720   7.549  21.009  0.00  0.00    +0.000 N 
ATOM      6  C   UNL     1       2.321   6.806  20.052  0.00  0.00    +0.000 A 
ATOM      7  C   UNL     1       2.751   7.194  18.843  0.00  0.00    +0.000 A 
ATOM      8  C   UNL     1       2.123   8.566  18.431  0.00  0.00    +0.000 A 
ATOM      9  O   UNL     1       2.341   9.108  17.357  0.00  0.00    +0.000 OA
ATOM     10  C   UNL     1       1.135   9.254  19.398  0.00  0.00    +0.000 A 
ATOM     11  C   UNL     1       0.264  10.332  19.065  0.00  0.00    +0.000 A 
ATOM     12  H   UNL     1       1.597   7.152  21.934  0.00  0.00    +0.000 HD
ENDROOT
BRANCH   7  13
ATOM     13  C   UNL     1       3.722   6.331  17.982  0.00  0.00    +0.000 C 
ATOM     14  O   UNL     1       4.147   6.832  16.939  0.00  0.00    +0.000 OA
ATOM     15  N   UNL     1       4.167   5.018  18.368  0.00  0.00    +0.000 N 
ATOM     16  C   UNL     1       3.774   4.291  19.571  0.00  0.00    +0.000 C 
BRANCH  15  17
ATOM     17  C   UNL     1       5.104   4.177  17.550  0.00  0.00    +0.000 C 
ATOM     18  C   UNL     1       4.862   3.875  16.062  0.00  0.00    +0.000 C 
ATOM     19  C   UNL     1       5.592   4.771  15.058  0.00  0.00    +0.000 C 
ATOM     20  C   UNL     1       7.021   5.132  15.456  0.00  0.00    +0.000 C 
ATOM     21  C   UNL     1       7.101   5.607  16.897  0.00  0.00    +0.000 C 
ATOM     22  C   UNL     1       6.585   4.523  17.822  0.00  0.00    +0.000 C 
ENDBRANCH  15  17
ENDBRANCH   7  13
BRANCH   1  23
ATOM     23  S   UNL     1      -1.874  12.095  19.863  0.00  0.00    +0.000 S 
ATOM     24  O   UNL     1      -1.388  12.977  18.818  0.00  0.00    +0.000 OA
ATOM     25  O   UNL     1      -2.163  12.603  21.185  0.00  0.00    +0.000 OA
BRANCH  23  26
ATOM     26  N   UNL     1      -3.243  11.367  19.205  0.00  0.00    +0.000 N 
ATOM     27  H   UNL     1      -3.452  10.557  19.796  0.00  0.00    +0.000 HD
BRANCH  26  31
ATOM     28  C   UNL     1      -3.299  10.372  15.089  0.00  0.00    +0.000 A 
ATOM     29  C   UNL     1      -2.361   9.761  15.935  0.00  0.00    +0.000 A 
ATOM     30  C   UNL     1      -2.313  10.085  17.295  0.00  0.00    +0.000 A 
ATOM     31  C   UNL     1      -3.201  11.037  17.816  0.00  0.00    +0.000 A 
ATOM     32  C   UNL     1      -4.100  11.676  16.971  0.00  0.00    +0.000 A 
ATOM     33  C   UNL     1      -4.146  11.340  15.613  0.00  0.00    +0.000 A 
BRANCH  28  34
ATOM     34  O   UNL     1      -3.276   9.967  13.780  0.00  0.00    +0.000 OA
BRANCH  34  36
ATOM     35  C   UNL     1      -4.505   9.847  11.722  0.00  0.00    +0.000 C 
ATOM     36  C   UNL     1      -4.543   9.607  13.221  0.00  0.00    +0.000 C 
ENDBRANCH  34  36
ENDBRANCH  28  34
ENDBRANCH  26  31
ENDBRANCH  23  26
ENDBRANCH   1  23
TORSDOF 7
ENDMDL
MODEL 5
REMARK VINA RESULT:      -8.3      2.952      4.540
REMARK  Name = 
REMARK  9 active torsions:
REMARK  status: ('A' for Active; 'I' for Inactive)
REMARK    1  A    between atoms: C_1  and  C_2
REMARK    2  A    between atoms: C_2  and  O_3
REMARK    3  A    between atoms: O_3  and  C_4
REMARK    4  A    between atoms: C_7  and  N_8
REMARK    5  A    between atoms: N_8  and  S_9
REMARK    6  A    between atoms: S_9  and  C_12
REMARK    7  A    between atoms: C_18  and  C_19
REMARK    8  A    between atoms: N_21  and  C_22
REMARK    9  A    between atoms: N_21  and  C_23
REMARK                            x       y       z     vdW  Elec       q    Type
REMARK                         _______ _______ _______ _____ _____    ______ ____
ROOT
ATOM      1  C   UNL     1       3.227   4.939  18.946  0.00  0.00    +0.000 A 
ATOM      2  C   UNL     1       2.669   4.402  20.114  0.00  0.00    +0.000 A 
ATOM      3  C   UNL     1       1.891   5.190  20.936  0.00  0.00    +0.000 A 
ATOM      4  C   UNL     1       1.688   6.533  20.620  0.00  0.00    +0.000 A 
ATOM      5  N   UNL     1       1.114   7.343  21.586  0.00  0.00    +0.000 N 
ATOM      6  C   UNL     1       1.065   8.687  21.438  0.00  0.00    +0.000 A 
ATOM      7  C   UNL     1       1.148   9.404  20.309  0.00  0.00    +0.000 A 
ATOM      8  C   UNL     1       1.731   8.551  19.136  0.00  0.00    +0.000 A 
ATOM      9  O   UNL     1       1.929   8.997  18.015  0.00  0.00    +0.000 OA
ATOM     10  C   UNL     1       2.130   7.084  19.407  0.00  0.00    +0.000 A 
ATOM     11  C   UNL     1       2.931   6.270  18.554  0.00  0.00    +0.000 A 
ATOM     12  H   UNL     1       0.877   6.938  22.485  0.00  0.00    +0.000 HD
ENDROOT
BRANCH   7  13
ATOM     13  C   UNL     1       0.739  10.907  20.240  0.00  0.00    +0.000 C 
ATOM     14  O   UNL     1       1.434  11.709  20.866  0.00  0.00    +0.000 OA
ATOM     15  N   UNL     1      -0.368  11.390  19.457  0.00  0.00    +0.000 N 
ATOM     16  C   UNL     1      -1.277  10.580  18.652  0.00  0.00    +0.000 C 
BRANCH  15  17
ATOM     17  C   UNL     1      -0.771  12.835  19.378  0.00  0.00    +0.000 C 
ATOM     18  C   UNL     1      -0.939  13.717  20.626  0.00  0.00    +0.000 C 
ATOM     19  C   UNL     1       0.258  14.592  21.008  0.00  0.00    +0.000 C 
ATOM     20  C   UNL     1       0.984  15.221  19.822  0.00  0.00    +0.000 C 
ATOM     21  C   UNL     1       1.272  14.202  18.733  0.00  0.00    +0.000 C 
ATOM     22  C   UNL     1      -0.028  13.586  18.252  0.00  0.00    +0.000 C 
ENDBRANCH  15  17
ENDBRANCH   7  13
BRANCH   1  23
ATOM     23  S   UNL     1       4.313   3.775  18.130  0.00  0.00    +0.000 S 
ATOM     24  O   UNL     1       3.435   2.880  17.401  0.00  0.00    +0.000 OA
ATOM     25  O   UNL     1       5.209   3.269  19.145  0.00  0.00    +0.000 OA
BRANCH  23  26
ATOM     26  N   UNL     1       5.180   4.588  16.938  0.00  0.00    +0.000 N 
ATOM     27  H   UNL     1       5.593   3.868  16.338  0.00  0.00    +0.000 HD
BRANCH  26  31
ATOM     28  C   UNL     1       7.978   7.411  18.399  0.00  0.00    +0.000 A 
ATOM     29  C   UNL     1       7.083   7.786  17.386  0.00  0.00    +0.000 A 
ATOM     30  C   UNL     1       6.160   6.866  16.876  0.00  0.00    +0.000 A 
ATOM     31  C   UNL     1       6.136   5.555  17.373  0.00  0.00    +0.000 A 
ATOM     32  C   UNL     1       7.052   5.170  18.345  0.00  0.00    +0.000 A 
ATOM     33  C   UNL     1       7.966   6.099  18.853  0.00  0.00    +0.000 A 
BRANCH  28  34
ATOM     34  O   UNL     1       8.824   8.394  18.842  0.00  0.00    +0.000 OA
BRANCH  34  36
ATOM     35  C   UNL     1       9.408  10.711  19.071  0.00  0.00    +0.000 C 
ATOM     36  C   UNL     1       8.623   9.689  18.268  0.00  0.00    +0.000 C 
ENDBRANCH  34  36
ENDBRANCH  28  34
ENDBRANCH  26  31
ENDBRANCH  23  26
ENDBRANCH   1  23
TORSDOF 7
ENDMDL
MODEL 6
REMARK VINA RESULT:      -8.3      2.854      4.430
REMARK  Name = 
REMARK  9 active torsions:
REMARK  status: ('A' for Active; 'I' for Inactive)
REMARK    1  A    between atoms: C_1  and  C_2
REMARK    2  A    between atoms: C_2  and  O_3
REMARK    3  A    between atoms: O_3  and  C_4
REMARK    4  A    between atoms: C_7  and  N_8
REMARK    5  A    between atoms: N_8  and  S_9
REMARK    6  A    between atoms: S_9  and  C_12
REMARK    7  A    between atoms: C_18  and  C_19
REMARK    8  A    between atoms: N_21  and  C_22
REMARK    9  A    between atoms: N_21  and  C_23
REMARK                            x       y       z     vdW  Elec       q    Type
REMARK                         _______ _______ _______ _____ _____    ______ ____
ROOT
ATOM      1  C   UNL     1       3.269   4.587  18.995  0.00  0.00    +0.000 A 
ATOM      2  C   UNL     1       2.620   4.286  20.200  0.00  0.00    +0.000 A 
ATOM      3  C   UNL     1       1.884   5.253  20.851  0.00  0.00    +0.000 A 
ATOM      4  C   UNL     1       1.813   6.543  20.324  0.00  0.00    +0.000 A 
ATOM      5  N   UNL     1       1.275   7.538  21.124  0.00  0.00    +0.000 N 
ATOM      6  C   UNL     1       1.351   8.841  20.771  0.00  0.00    +0.000 A 
ATOM      7  C   UNL     1       1.540   9.364  19.551  0.00  0.00    +0.000 A 
ATOM      8  C   UNL     1       2.091   8.294  18.554  0.00  0.00    +0.000 A 
ATOM      9  O   UNL     1       2.372   8.542  17.390  0.00  0.00    +0.000 OA
ATOM     10  C   UNL     1       2.348   6.859  19.066  0.00  0.00    +0.000 A 
ATOM     11  C   UNL     1       3.107   5.860  18.389  0.00  0.00    +0.000 A 
ATOM     12  H   UNL     1       0.968   7.299  22.061  0.00  0.00    +0.000 HD
ENDROOT
BRANCH   7  13
ATOM     13  C   UNL     1       1.269  10.866  19.232  0.00  0.00    +0.000 C 
ATOM     14  O   UNL     1       1.901  11.367  18.300  0.00  0.00    +0.000 OA
ATOM     15  N   UNL     1       0.300  11.662  19.939  0.00  0.00    +0.000 N 
ATOM     16  C   UNL     1      -0.537  11.221  21.050  0.00  0.00    +0.000 C 
BRANCH  15  17
ATOM     17  C   UNL     1       0.026  13.108  19.640  0.00  0.00    +0.000 C 
ATOM     18  C   UNL     1      -1.361  13.744  19.829  0.00  0.00    +0.000 C 
ATOM     19  C   UNL     1      -1.593  14.493  21.145  0.00  0.00    +0.000 C 
ATOM     20  C   UNL     1      -0.397  15.310  21.626  0.00  0.00    +0.000 C 
ATOM     21  C   UNL     1       0.891  14.505  21.579  0.00  0.00    +0.000 C 
ATOM     22  C   UNL     1       1.147  14.033  20.161  0.00  0.00    +0.000 C 
ENDBRANCH  15  17
ENDBRANCH   7  13
BRANCH   1  23
ATOM     23  S   UNL     1       4.278   3.226  18.424  0.00  0.00    +0.000 S 
ATOM     24  O   UNL     1       3.361   2.324  17.754  0.00  0.00    +0.000 OA
ATOM     25  O   UNL     1       5.053   2.783  19.562  0.00  0.00    +0.000 OA
BRANCH  23  26
ATOM     26  N   UNL     1       5.297   3.782  17.204  0.00  0.00    +0.000 N 
ATOM     27  H   UNL     1       5.789   2.961  16.841  0.00  0.00    +0.000 HD
BRANCH  26  31
ATOM     28  C   UNL     1       7.850   6.962  18.345  0.00  0.00    +0.000 A 
ATOM     29  C   UNL     1       7.200   7.010  17.103  0.00  0.00    +0.000 A 
ATOM     30  C   UNL     1       6.363   5.964  16.697  0.00  0.00    +0.000 A 
ATOM     31  C   UNL     1       6.183   4.853  17.533  0.00  0.00    +0.000 A 
ATOM     32  C   UNL     1       6.862   4.783  18.743  0.00  0.00    +0.000 A 
ATOM     33  C   UNL     1       7.691   5.837  19.143  0.00  0.00    +0.000 A 
BRANCH  28  34
ATOM     34  O   UNL     1       8.628   8.048  18.654  0.00  0.00    +0.000 OA
BRANCH  34  36
ATOM     35  C   UNL     1       9.074  10.406  18.619  0.00  0.00    +0.000 C 
ATOM     36  C   UNL     1       8.256   9.276  18.021  0.00  0.00    +0.000 C 
ENDBRANCH  34  36
ENDBRANCH  28  34
ENDBRANCH  26  31
ENDBRANCH  23  26
ENDBRANCH   1  23
TORSDOF 7
ENDMDL
MODEL 7
REMARK VINA RESULT:      -8.2      1.499      2.208
REMARK  Name = 
REMARK  9 active torsions:
REMARK  status: ('A' for Active; 'I' for Inactive)
REMARK    1  A    between atoms: C_1  and  C_2
REMARK    2  A    between atoms: C_2  and  O_3
REMARK    3  A    between atoms: O_3  and  C_4
REMARK    4  A    between atoms: C_7  and  N_8
REMARK    5  A    between atoms: N_8  and  S_9
REMARK    6  A    between atoms: S_9  and  C_12
REMARK    7  A    between atoms: C_18  and  C_19
REMARK    8  A    between atoms: N_21  and  C_22
REMARK    9  A    between atoms: N_21  and  C_23
REMARK                            x       y       z     vdW  Elec       q    Type
REMARK                         _______ _______ _______ _____ _____    ______ ____
ROOT
ATOM      1  C   UNL     1       1.965   7.397  19.534  0.00  0.00    +0.000 A 
ATOM      2  C   UNL     1       2.007   8.040  18.289  0.00  0.00    +0.000 A 
ATOM      3  C   UNL     1       1.508   9.319  18.154  0.00  0.00    +0.000 A 
ATOM      4  C   UNL     1       0.930   9.958  19.251  0.00  0.00    +0.000 A 
ATOM      5  N   UNL     1       0.227  11.129  19.019  0.00  0.00    +0.000 N 
ATOM      6  C   UNL     1      -0.525  11.701  19.987  0.00  0.00    +0.000 A 
ATOM      7  C   UNL     1      -0.435  11.542  21.315  0.00  0.00    +0.000 A 
ATOM      8  C   UNL     1       0.400  10.271  21.680  0.00  0.00    +0.000 A 
ATOM      9  O   UNL     1       0.594   9.902  22.829  0.00  0.00    +0.000 OA
ATOM     10  C   UNL     1       0.969   9.400  20.538  0.00  0.00    +0.000 A 
ATOM     11  C   UNL     1       1.488   8.081  20.682  0.00  0.00    +0.000 A 
ATOM     12  H   UNL     1       0.145  11.469  18.067  0.00  0.00    +0.000 HD
ENDROOT
BRANCH   7  13
ATOM     13  C   UNL     1      -1.128  12.509  22.323  0.00  0.00    +0.000 C 
ATOM     14  O   UNL     1      -0.443  12.936  23.255  0.00  0.00    +0.000 OA
ATOM     15  N   UNL     1      -2.492  12.947  22.188  0.00  0.00    +0.000 N 
ATOM     16  C   UNL     1      -3.428  12.551  21.141  0.00  0.00    +0.000 C 
BRANCH  15  17
ATOM     17  C   UNL     1      -3.170  13.880  23.149  0.00  0.00    +0.000 C 
ATOM     18  C   UNL     1      -4.037  15.062  22.684  0.00  0.00    +0.000 C 
ATOM     19  C   UNL     1      -5.548  14.820  22.634  0.00  0.00    +0.000 C 
ATOM     20  C   UNL     1      -6.093  13.990  23.793  0.00  0.00    +0.000 C 
ATOM     21  C   UNL     1      -5.264  12.740  24.030  0.00  0.00    +0.000 C 
ATOM     22  C   UNL     1      -3.829  13.127  24.326  0.00  0.00    +0.000 C 
ENDBRANCH  15  17
ENDBRANCH   7  13
BRANCH   1  23
ATOM     23  S   UNL     1       2.527   5.702  19.425  0.00  0.00    +0.000 S 
ATOM     24  O   UNL     1       1.466   4.909  20.016  0.00  0.00    +0.000 OA
ATOM     25  O   UNL     1       3.864   5.677  19.974  0.00  0.00    +0.000 OA
BRANCH  23  26
ATOM     26  N   UNL     1       2.552   5.243  17.805  0.00  0.00    +0.000 N 
ATOM     27  H   UNL     1       2.062   4.346  17.751  0.00  0.00    +0.000 HD
BRANCH  26  31
ATOM     28  C   UNL     1       6.267   5.296  15.774  0.00  0.00    +0.000 A 
ATOM     29  C   UNL     1       5.627   4.071  16.012  0.00  0.00    +0.000 A 
ATOM     30  C   UNL     1       4.407   4.026  16.695  0.00  0.00    +0.000 A 
ATOM     31  C   UNL     1       3.824   5.215  17.156  0.00  0.00    +0.000 A 
ATOM     32  C   UNL     1       4.479   6.425  16.960  0.00  0.00    +0.000 A 
ATOM     33  C   UNL     1       5.695   6.460  16.270  0.00  0.00    +0.000 A 
BRANCH  28  34
ATOM     34  O   UNL     1       7.446   5.229  15.077  0.00  0.00    +0.000 OA
BRANCH  34  36
ATOM     35  C   UNL     1       7.975   5.508  12.752  0.00  0.00    +0.000 C 
ATOM     36  C   UNL     1       7.374   4.588  13.800  0.00  0.00    +0.000 C 
ENDBRANCH  34  36
ENDBRANCH  28  34
ENDBRANCH  26  31
ENDBRANCH  23  26
ENDBRANCH   1  23
TORSDOF 7
ENDMDL
MODEL 8
REMARK VINA RESULT:      -8.2      1.996      2.536
REMARK  Name = 
REMARK  9 active torsions:
REMARK  status: ('A' for Active; 'I' for Inactive)
REMARK    1  A    between atoms: C_1  and  C_2
REMARK    2  A    between atoms: C_2  and  O_3
REMARK    3  A    between atoms: O_3  and  C_4
REMARK    4  A    between atoms: C_7  and  N_8
REMARK    5  A    between atoms: N_8  and  S_9
REMARK    6  A    between atoms: S_9  and  C_12
REMARK    7  A    between atoms: C_18  and  C_19
REMARK    8  A    between atoms: N_21  and  C_22
REMARK    9  A    between atoms: N_21  and  C_23
REMARK                            x       y       z     vdW  Elec       q    Type
REMARK                         _______ _______ _______ _____ _____    ______ ____
ROOT
ATOM      1  C   UNL     1       2.528   5.852  19.283  0.00  0.00    +0.000 A 
ATOM      2  C   UNL     1       2.920   6.324  18.023  0.00  0.00    +0.000 A 
ATOM      3  C   UNL     1       2.712   7.645  17.684  0.00  0.00    +0.000 A 
ATOM      4  C   UNL     1       2.081   8.502  18.585  0.00  0.00    +0.000 A 
ATOM      5  N   UNL     1       1.673   9.741  18.120  0.00  0.00    +0.000 N 
ATOM      6  C   UNL     1       0.884  10.547  18.866  0.00  0.00    +0.000 A 
ATOM      7  C   UNL     1       0.699  10.536  20.194  0.00  0.00    +0.000 A 
ATOM      8  C   UNL     1       1.190   9.191  20.823  0.00  0.00    +0.000 A 
ATOM      9  O   UNL     1       1.097   8.934  22.015  0.00  0.00    +0.000 OA
ATOM     10  C   UNL     1       1.777   8.104  19.896  0.00  0.00    +0.000 A 
ATOM     11  C   UNL     1       1.994   6.741  20.251  0.00  0.00    +0.000 A 
ATOM     12  H   UNL     1       1.833   9.974  17.146  0.00  0.00    +0.000 HD
ENDROOT
BRANCH   7  13
ATOM     13  C   UNL     1       0.037  11.722  20.958  0.00  0.00    +0.000 C 
ATOM     14  O   UNL     1       0.721  12.298  21.806  0.00  0.00    +0.000 OA
ATOM     15  N   UNL     1      -1.298  12.189  20.689  0.00  0.00    +0.000 N 
ATOM     16  C   UNL     1      -2.230  11.631  19.714  0.00  0.00    +0.000 C 
BRANCH  15  17
ATOM     17  C   UNL     1      -1.947  13.332  21.415  0.00  0.00    +0.000 C 
ATOM     18  C   UNL     1      -3.200  14.046  20.882  0.00  0.00    +0.000 C 
ATOM     19  C   UNL     1      -4.544  13.580  21.452  0.00  0.00    +0.000 C 
ATOM     20  C   UNL     1      -4.521  13.266  22.945  0.00  0.00    +0.000 C 
ATOM     21  C   UNL     1      -3.341  12.385  23.318  0.00  0.00    +0.000 C 
ATOM     22  C   UNL     1      -2.047  13.076  22.935  0.00  0.00    +0.000 C 
ENDBRANCH  15  17
ENDBRANCH   7  13
BRANCH   1  23
ATOM     23  S   UNL     1       2.760   4.084  19.431  0.00  0.00    +0.000 S 
ATOM     24  O   UNL     1       2.313   3.532  18.166  0.00  0.00    +0.000 OA
ATOM     25  O   UNL     1       2.135   3.690  20.673  0.00  0.00    +0.000 OA
BRANCH  23  26
ATOM     26  N   UNL     1       4.412   3.757  19.479  0.00  0.00    +0.000 N 
ATOM     27  H   UNL     1       4.751   4.111  20.378  0.00  0.00    +0.000 HD
BRANCH  26  31
ATOM     28  C   UNL     1       6.760   4.937  16.159  0.00  0.00    +0.000 A 
ATOM     29  C   UNL     1       7.032   5.478  17.425  0.00  0.00    +0.000 A 
ATOM     30  C   UNL     1       6.260   5.116  18.534  0.00  0.00    +0.000 A 
ATOM     31  C   UNL     1       5.198   4.213  18.378  0.00  0.00    +0.000 A 
ATOM     32  C   UNL     1       4.900   3.712  17.117  0.00  0.00    +0.000 A 
ATOM     33  C   UNL     1       5.682   4.075  16.015  0.00  0.00    +0.000 A 
BRANCH  28  34
ATOM     34  O   UNL     1       7.590   5.342  15.146  0.00  0.00    +0.000 OA
BRANCH  34  36
ATOM     35  C   UNL     1       8.151   5.538  12.820  0.00  0.00    +0.000 C 
ATOM     36  C   UNL     1       7.254   4.861  13.841  0.00  0.00    +0.000 C 
ENDBRANCH  34  36
ENDBRANCH  28  34
ENDBRANCH  26  31
ENDBRANCH  23  26
ENDBRANCH   1  23
TORSDOF 7
ENDMDL
MODEL 9
REMARK VINA RESULT:      -8.2      0.975      1.417
REMARK  Name = 
REMARK  9 active torsions:
REMARK  status: ('A' for Active; 'I' for Inactive)
REMARK    1  A    between atoms: C_1  and  C_2
REMARK    2  A    between atoms: C_2  and  O_3
REMARK    3  A    between atoms: O_3  and  C_4
REMARK    4  A    between atoms: C_7  and  N_8
REMARK    5  A    between atoms: N_8  and  S_9
REMARK    6  A    between atoms: S_9  and  C_12
REMARK    7  A    between atoms: C_18  and  C_19
REMARK    8  A    between atoms: N_21  and  C_22
REMARK    9  A    between atoms: N_21  and  C_23
REMARK                            x       y       z     vdW  Elec       q    Type
REMARK                         _______ _______ _______ _____ _____    ______ ____
ROOT
ATOM      1  C   UNL     1       2.000   7.366  19.394  0.00  0.00    +0.000 A 
ATOM      2  C   UNL     1       2.032   7.856  18.081  0.00  0.00    +0.000 A 
ATOM      3  C   UNL     1       1.632   9.148  17.814  0.00  0.00    +0.000 A 
ATOM      4  C   UNL     1       1.165   9.958  18.850  0.00  0.00    +0.000 A 
ATOM      5  N   UNL     1       0.549  11.151  18.507  0.00  0.00    +0.000 N 
ATOM      6  C   UNL     1      -0.104  11.894  19.430  0.00  0.00    +0.000 A 
ATOM      7  C   UNL     1       0.040  11.883  20.763  0.00  0.00    +0.000 A 
ATOM      8  C   UNL     1       0.786  10.595  21.243  0.00  0.00    +0.000 A 
ATOM      9  O   UNL     1       1.006  10.345  22.419  0.00  0.00    +0.000 OA
ATOM     10  C   UNL     1       1.224   9.551  20.191  0.00  0.00    +0.000 A 
ATOM     11  C   UNL     1       1.639   8.217  20.470  0.00  0.00    +0.000 A 
ATOM     12  H   UNL     1       0.448  11.384  17.526  0.00  0.00    +0.000 HD
ENDROOT
BRANCH   7  13
ATOM     13  C   UNL     1      -0.520  13.016  21.675  0.00  0.00    +0.000 C 
ATOM     14  O   UNL     1      -0.118  14.162  21.461  0.00  0.00    +0.000 OA
ATOM     15  N   UNL     1      -1.497  12.790  22.707  0.00  0.00    +0.000 N 
ATOM     16  C   UNL     1      -2.083  11.506  23.077  0.00  0.00    +0.000 C 
BRANCH  15  17
ATOM     17  C   UNL     1      -2.047  13.873  23.591  0.00  0.00    +0.000 C 
ATOM     18  C   UNL     1      -1.153  14.924  24.268  0.00  0.00    +0.000 C 
ATOM     19  C   UNL     1      -1.022  16.271  23.551  0.00  0.00    +0.000 C 
ATOM     20  C   UNL     1      -2.317  16.780  22.923  0.00  0.00    +0.000 C 
ATOM     21  C   UNL     1      -3.013  15.701  22.112  0.00  0.00    +0.000 C 
ATOM     22  C   UNL     1      -3.323  14.513  23.002  0.00  0.00    +0.000 C 
ENDBRANCH  15  17
ENDBRANCH   7  13
BRANCH   1  23
ATOM     23  S   UNL     1       2.416   5.628  19.466  0.00  0.00    +0.000 S 
ATOM     24  O   UNL     1       1.973   5.076  18.199  0.00  0.00    +0.000 OA
ATOM     25  O   UNL     1       1.887   5.130  20.715  0.00  0.00    +0.000 OA
BRANCH  23  26
ATOM     26  N   UNL     1       4.093   5.471  19.437  0.00  0.00    +0.000 N 
ATOM     27  H   UNL     1       4.465   6.238  20.005  0.00  0.00    +0.000 HD
BRANCH  26  31
ATOM     28  C   UNL     1       5.825   5.334  15.576  0.00  0.00    +0.000 A 
ATOM     29  C   UNL     1       5.558   4.137  16.256  0.00  0.00    +0.000 A 
ATOM     30  C   UNL     1       5.000   4.157  17.539  0.00  0.00    +0.000 A 
ATOM     31  C   UNL     1       4.717   5.384  18.156  0.00  0.00    +0.000 A 
ATOM     32  C   UNL     1       5.022   6.571  17.501  0.00  0.00    +0.000 A 
ATOM     33  C   UNL     1       5.573   6.540  16.215  0.00  0.00    +0.000 A 
BRANCH  28  34
ATOM     34  O   UNL     1       6.350   5.201  14.316  0.00  0.00    +0.000 OA
BRANCH  34  36
ATOM     35  C   UNL     1       5.650   3.664  12.610  0.00  0.00    +0.000 C 
ATOM     36  C   UNL     1       6.505   3.858  13.849  0.00  0.00    +0.000 C 
ENDBRANCH  34  36
ENDBRANCH  28  34
ENDBRANCH  26  31
ENDBRANCH  23  26
ENDBRANCH   1  23
TORSDOF 7
ENDMDL
