MODEL 1
REMARK VINA RESULT:      -7.1      0.000      0.000
REMARK  Name = 
REMARK  1 active torsions:
REMARK  status: ('A' for Active; 'I' for Inactive)
REMARK    1  A    between atoms: C_1  and  C_2
REMARK                            x       y       z     vdW  Elec       q    Type
REMARK                         _______ _______ _______ _____ _____    ______ ____
ROOT
ATOM      1  C   UNL     1       5.912   4.009  14.956  0.00  0.00    +0.000 C 
ATOM      2  C   UNL     1       5.186   4.840  15.980  0.00  0.00    +0.000 A 
ATOM      3  C   UNL     1       5.349   6.228  15.972  0.00  0.00    +0.000 A 
ATOM      4  C   UNL     1       4.665   7.018  16.890  0.00  0.00    +0.000 A 
ATOM      5  C   UNL     1       3.787   6.435  17.812  0.00  0.00    +0.000 A 
ATOM      6  C   UNL     1       3.570   5.054  17.834  0.00  0.00    +0.000 A 
ATOM      7  C   UNL     1       4.322   4.251  16.932  0.00  0.00    +0.000 A 
ATOM      8  C   UNL     1       4.166   2.736  16.963  0.00  0.00    +0.000 C 
ATOM      9  C   UNL     1       3.263   2.235  18.093  0.00  0.00    +0.000 C 
ATOM     10  C   UNL     1       2.082   3.199  18.171  0.00  0.00    +0.000 C 
ATOM     11  C   UNL     1       0.867   2.642  18.945  0.00  0.00    +0.000 C 
ATOM     12  N   UNL     1       0.597   3.023  20.329  0.00  0.00    +0.000 NA
ATOM     13  C   UNL     1       1.345   4.190  20.800  0.00  0.00    +0.000 C 
ATOM     14  C   UNL     1       1.965   5.160  19.772  0.00  0.00    +0.000 C 
ATOM     15  N   UNL     1       2.644   4.450  18.690  0.00  0.00    +0.000 N 
ATOM     16  H   UNL     1       0.770   2.235  20.950  0.00  0.00    +0.000 HD
ENDROOT
TORSDOF 0
ENDMDL
MODEL 2
REMARK VINA RESULT:      -6.6      1.848      5.345
REMARK  Name = 
REMARK  1 active torsions:
REMARK  status: ('A' for Active; 'I' for Inactive)
REMARK    1  A    between atoms: C_1  and  C_2
REMARK                            x       y       z     vdW  Elec       q    Type
REMARK                         _______ _______ _______ _____ _____    ______ ____
ROOT
ATOM      1  C   UNL     1       1.110   4.634  20.535  0.00  0.00    +0.000 C 
ATOM      2  C   UNL     1       1.949   3.835  19.573  0.00  0.00    +0.000 A 
ATOM      3  C   UNL     1       1.673   2.477  19.391  0.00  0.00    +0.000 A 
ATOM      4  C   UNL     1       2.417   1.728  18.486  0.00  0.00    +0.000 A 
ATOM      5  C   UNL     1       3.430   2.330  17.730  0.00  0.00    +0.000 A 
ATOM      6  C   UNL     1       3.719   3.692  17.858  0.00  0.00    +0.000 A 
ATOM      7  C   UNL     1       2.994   4.434  18.832  0.00  0.00    +0.000 A 
ATOM      8  C   UNL     1       3.318   5.907  19.051  0.00  0.00    +0.000 C 
ATOM      9  C   UNL     1       4.519   6.398  18.239  0.00  0.00    +0.000 C 
ATOM     10  C   UNL     1       4.402   5.765  16.856  0.00  0.00    +0.000 C 
ATOM     11  C   UNL     1       5.264   6.454  15.775  0.00  0.00    +0.000 C 
ATOM     12  N   UNL     1       6.546   5.902  15.346  0.00  0.00    +0.000 NA
ATOM     13  C   UNL     1       6.785   4.518  15.758  0.00  0.00    +0.000 C 
ATOM     14  C   UNL     1       5.592   3.632  16.175  0.00  0.00    +0.000 C 
ATOM     15  N   UNL     1       4.672   4.339  17.065  0.00  0.00    +0.000 N 
ATOM     16  H   UNL     1       7.309   6.491  15.675  0.00  0.00    +0.000 HD
ENDROOT
TORSDOF 0
ENDMDL
MODEL 3
REMARK VINA RESULT:      -6.6      1.901      4.751
REMARK  Name = 
REMARK  1 active torsions:
REMARK  status: ('A' for Active; 'I' for Inactive)
REMARK    1  A    between atoms: C_1  and  C_2
REMARK                            x       y       z     vdW  Elec       q    Type
REMARK                         _______ _______ _______ _____ _____    ______ ____
ROOT
ATOM      1  C   UNL     1       1.025   2.292  18.865  0.00  0.00    +0.000 C 
ATOM      2  C   UNL     1       1.729   3.598  19.122  0.00  0.00    +0.000 A 
ATOM      3  C   UNL     1       1.281   4.422  20.158  0.00  0.00    +0.000 A 
ATOM      4  C   UNL     1       1.935   5.618  20.432  0.00  0.00    +0.000 A 
ATOM      5  C   UNL     1       3.061   5.997  19.692  0.00  0.00    +0.000 A 
ATOM      6  C   UNL     1       3.561   5.189  18.667  0.00  0.00    +0.000 A 
ATOM      7  C   UNL     1       2.847   3.997  18.355  0.00  0.00    +0.000 A 
ATOM      8  C   UNL     1       3.318   3.117  17.204  0.00  0.00    +0.000 C 
ATOM      9  C   UNL     1       4.488   3.711  16.416  0.00  0.00    +0.000 C 
ATOM     10  C   UNL     1       5.437   4.329  17.438  0.00  0.00    +0.000 C 
ATOM     11  C   UNL     1       6.858   4.599  16.894  0.00  0.00    +0.000 C 
ATOM     12  N   UNL     1       7.278   5.933  16.472  0.00  0.00    +0.000 NA
ATOM     13  C   UNL     1       6.398   7.019  16.906  0.00  0.00    +0.000 C 
ATOM     14  C   UNL     1       5.420   6.782  18.077  0.00  0.00    +0.000 C 
ATOM     15  N   UNL     1       4.726   5.500  17.960  0.00  0.00    +0.000 N 
ATOM     16  H   UNL     1       7.383   5.964  15.460  0.00  0.00    +0.000 HD
ENDROOT
TORSDOF 0
ENDMDL
MODEL 4
REMARK VINA RESULT:      -6.6      1.641      2.834
REMARK  Name = 
REMARK  1 active torsions:
REMARK  status: ('A' for Active; 'I' for Inactive)
REMARK    1  A    between atoms: C_1  and  C_2
REMARK                            x       y       z     vdW  Elec       q    Type
REMARK                         _______ _______ _______ _____ _____    ______ ____
ROOT
ATOM      1  C   UNL     1       7.470   6.724  17.458  0.00  0.00    +0.000 C 
ATOM      2  C   UNL     1       6.585   5.630  16.921  0.00  0.00    +0.000 A 
ATOM      3  C   UNL     1       6.851   5.096  15.657  0.00  0.00    +0.000 A 
ATOM      4  C   UNL     1       6.064   4.065  15.155  0.00  0.00    +0.000 A 
ATOM      5  C   UNL     1       5.016   3.536  15.918  0.00  0.00    +0.000 A 
ATOM      6  C   UNL     1       4.735   4.019  17.199  0.00  0.00    +0.000 A 
ATOM      7  C   UNL     1       5.507   5.116  17.677  0.00  0.00    +0.000 A 
ATOM      8  C   UNL     1       5.195   5.717  19.042  0.00  0.00    +0.000 C 
ATOM      9  C   UNL     1       3.957   5.114  19.711  0.00  0.00    +0.000 C 
ATOM     10  C   UNL     1       4.007   3.611  19.451  0.00  0.00    +0.000 C 
ATOM     11  C   UNL     1       3.096   2.783  20.384  0.00  0.00    +0.000 C 
ATOM     12  N   UNL     1       1.793   2.288  19.944  0.00  0.00    +0.000 NA
ATOM     13  C   UNL     1       1.573   2.344  18.499  0.00  0.00    +0.000 C 
ATOM     14  C   UNL     1       2.784   2.466  17.549  0.00  0.00    +0.000 C 
ATOM     15  N   UNL     1       3.746   3.463  18.016  0.00  0.00    +0.000 N 
ATOM     16  H   UNL     1       1.048   2.791  20.422  0.00  0.00    +0.000 HD
ENDROOT
TORSDOF 0
ENDMDL
MODEL 5
REMARK VINA RESULT:      -6.6      1.918      4.200
REMARK  Name = 
REMARK  1 active torsions:
REMARK  status: ('A' for Active; 'I' for Inactive)
REMARK    1  A    between atoms: C_1  and  C_2
REMARK                            x       y       z     vdW  Elec       q    Type
REMARK                         _______ _______ _______ _____ _____    ______ ____
ROOT
ATOM      1  C   UNL     1       1.182   8.140  21.188  0.00  0.00    +0.000 C 
ATOM      2  C   UNL     1       1.833   7.577  19.952  0.00  0.00    +0.000 A 
ATOM      3  C   UNL     1       2.165   8.439  18.903  0.00  0.00    +0.000 A 
ATOM      4  C   UNL     1       2.793   7.944  17.765  0.00  0.00    +0.000 A 
ATOM      5  C   UNL     1       3.122   6.587  17.669  0.00  0.00    +0.000 A 
ATOM      6  C   UNL     1       2.837   5.696  18.708  0.00  0.00    +0.000 A 
ATOM      7  C   UNL     1       2.138   6.201  19.840  0.00  0.00    +0.000 A 
ATOM      8  C   UNL     1       1.749   5.254  20.969  0.00  0.00    +0.000 C 
ATOM      9  C   UNL     1       2.072   3.787  20.677  0.00  0.00    +0.000 C 
ATOM     10  C   UNL     1       3.439   3.764  20.001  0.00  0.00    +0.000 C 
ATOM     11  C   UNL     1       4.122   2.378  20.011  0.00  0.00    +0.000 C 
ATOM     12  N   UNL     1       4.108   1.506  18.839  0.00  0.00    +0.000 NA
ATOM     13  C   UNL     1       3.706   2.161  17.593  0.00  0.00    +0.000 C 
ATOM     14  C   UNL     1       3.771   3.700  17.489  0.00  0.00    +0.000 C 
ATOM     15  N   UNL     1       3.220   4.352  18.676  0.00  0.00    +0.000 N 
ATOM     16  H   UNL     1       3.508   0.701  19.008  0.00  0.00    +0.000 HD
ENDROOT
TORSDOF 0
ENDMDL
MODEL 6
REMARK VINA RESULT:      -6.6      1.762      4.764
REMARK  Name = 
REMARK  1 active torsions:
REMARK  status: ('A' for Active; 'I' for Inactive)
REMARK    1  A    between atoms: C_1  and  C_2
REMARK                            x       y       z     vdW  Elec       q    Type
REMARK                         _______ _______ _______ _____ _____    ______ ____
ROOT
ATOM      1  C   UNL     1       1.377   2.833  20.701  0.00  0.00    +0.000 C 
ATOM      2  C   UNL     1       1.840   4.163  20.168  0.00  0.00    +0.000 A 
ATOM      3  C   UNL     1       1.418   5.336  20.801  0.00  0.00    +0.000 A 
ATOM      4  C   UNL     1       1.858   6.574  20.344  0.00  0.00    +0.000 A 
ATOM      5  C   UNL     1       2.744   6.657  19.264  0.00  0.00    +0.000 A 
ATOM      6  C   UNL     1       3.215   5.509  18.621  0.00  0.00    +0.000 A 
ATOM      7  C   UNL     1       2.711   4.251  19.057  0.00  0.00    +0.000 A 
ATOM      8  C   UNL     1       3.147   2.977  18.346  0.00  0.00    +0.000 C 
ATOM      9  C   UNL     1       4.025   3.229  17.117  0.00  0.00    +0.000 C 
ATOM     10  C   UNL     1       4.990   4.350  17.492  0.00  0.00    +0.000 C 
ATOM     11  C   UNL     1       6.216   4.461  16.557  0.00  0.00    +0.000 C 
ATOM     12  N   UNL     1       6.285   5.463  15.497  0.00  0.00    +0.000 NA
ATOM     13  C   UNL     1       5.292   6.534  15.599  0.00  0.00    +0.000 C 
ATOM     14  C   UNL     1       4.593   6.795  16.951  0.00  0.00    +0.000 C 
ATOM     15  N   UNL     1       4.159   5.554  17.590  0.00  0.00    +0.000 N 
ATOM     16  H   UNL     1       6.209   5.015  14.586  0.00  0.00    +0.000 HD
ENDROOT
TORSDOF 0
ENDMDL
MODEL 7
REMARK VINA RESULT:      -6.5      2.134      5.332
REMARK  Name = 
REMARK  1 active torsions:
REMARK  status: ('A' for Active; 'I' for Inactive)
REMARK    1  A    between atoms: C_1  and  C_2
REMARK                            x       y       z     vdW  Elec       q    Type
REMARK                         _______ _______ _______ _____ _____    ______ ____
ROOT
ATOM      1  C   UNL     1       2.238   4.473  21.162  0.00  0.00    +0.000 C 
ATOM      2  C   UNL     1       2.463   4.049  19.735  0.00  0.00    +0.000 A 
ATOM      3  C   UNL     1       1.467   3.327  19.072  0.00  0.00    +0.000 A 
ATOM      4  C   UNL     1       1.642   2.952  17.745  0.00  0.00    +0.000 A 
ATOM      5  C   UNL     1       2.804   3.313  17.052  0.00  0.00    +0.000 A 
ATOM      6  C   UNL     1       3.812   4.061  17.667  0.00  0.00    +0.000 A 
ATOM      7  C   UNL     1       3.650   4.386  19.044  0.00  0.00    +0.000 A 
ATOM      8  C   UNL     1       4.751   5.146  19.773  0.00  0.00    +0.000 C 
ATOM      9  C   UNL     1       6.005   5.374  18.925  0.00  0.00    +0.000 C 
ATOM     10  C   UNL     1       5.525   5.738  17.523  0.00  0.00    +0.000 C 
ATOM     11  C   UNL     1       6.605   6.409  16.645  0.00  0.00    +0.000 C 
ATOM     12  N   UNL     1       7.345   5.661  15.632  0.00  0.00    +0.000 NA
ATOM     13  C   UNL     1       6.771   4.359  15.290  0.00  0.00    +0.000 C 
ATOM     14  C   UNL     1       5.294   4.067  15.631  0.00  0.00    +0.000 C 
ATOM     15  N   UNL     1       4.949   4.503  16.983  0.00  0.00    +0.000 N 
ATOM     16  H   UNL     1       8.313   5.540  15.923  0.00  0.00    +0.000 HD
ENDROOT
TORSDOF 0
ENDMDL
MODEL 8
REMARK VINA RESULT:      -6.5      0.854      2.665
REMARK  Name = 
REMARK  1 active torsions:
REMARK  status: ('A' for Active; 'I' for Inactive)
REMARK    1  A    between atoms: C_1  and  C_2
REMARK                            x       y       z     vdW  Elec       q    Type
REMARK                         _______ _______ _______ _____ _____    ______ ____
ROOT
ATOM      1  C   UNL     1       6.058   7.379  17.083  0.00  0.00    +0.000 C 
ATOM      2  C   UNL     1       5.476   6.001  16.913  0.00  0.00    +0.000 A 
ATOM      3  C   UNL     1       6.100   5.099  16.045  0.00  0.00    +0.000 A 
ATOM      4  C   UNL     1       5.596   3.812  15.896  0.00  0.00    +0.000 A 
ATOM      5  C   UNL     1       4.478   3.397  16.629  0.00  0.00    +0.000 A 
ATOM      6  C   UNL     1       3.843   4.255  17.531  0.00  0.00    +0.000 A 
ATOM      7  C   UNL     1       4.328   5.590  17.629  0.00  0.00    +0.000 A 
ATOM      8  C   UNL     1       3.628   6.580  18.552  0.00  0.00    +0.000 C 
ATOM      9  C   UNL     1       2.359   6.022  19.200  0.00  0.00    +0.000 C 
ATOM     10  C   UNL     1       2.667   4.582  19.599  0.00  0.00    +0.000 C 
ATOM     11  C   UNL     1       1.679   3.991  20.631  0.00  0.00    +0.000 C 
ATOM     12  N   UNL     1       0.594   3.098  20.231  0.00  0.00    +0.000 NA
ATOM     13  C   UNL     1       0.714   2.555  18.878  0.00  0.00    +0.000 C 
ATOM     14  C   UNL     1       2.087   2.568  18.173  0.00  0.00    +0.000 C 
ATOM     15  N   UNL     1       2.772   3.849  18.334  0.00  0.00    +0.000 N 
ATOM     16  H   UNL     1      -0.303   3.570  20.331  0.00  0.00    +0.000 HD
ENDROOT
TORSDOF 0
ENDMDL
MODEL 9
REMARK VINA RESULT:      -6.5      1.399      1.447
REMARK  Name = 
REMARK  1 active torsions:
REMARK  status: ('A' for Active; 'I' for Inactive)
REMARK    1  A    between atoms: C_1  and  C_2
REMARK                            x       y       z     vdW  Elec       q    Type
REMARK                         _______ _______ _______ _____ _____    ______ ____
ROOT
ATOM      1  C   UNL     1       5.584   4.302  15.124  0.00  0.00    +0.000 C 
ATOM      2  C   UNL     1       5.501   4.568  16.604  0.00  0.00    +0.000 A 
ATOM      3  C   UNL     1       6.462   5.386  17.205  0.00  0.00    +0.000 A 
ATOM      4  C   UNL     1       6.387   5.669  18.565  0.00  0.00    +0.000 A 
ATOM      5  C   UNL     1       5.337   5.159  19.339  0.00  0.00    +0.000 A 
ATOM      6  C   UNL     1       4.338   4.362  18.772  0.00  0.00    +0.000 A 
ATOM      7  C   UNL     1       4.459   4.028  17.394  0.00  0.00    +0.000 A 
ATOM      8  C   UNL     1       3.429   3.111  16.748  0.00  0.00    +0.000 C 
ATOM      9  C   UNL     1       2.409   2.541  17.737  0.00  0.00    +0.000 C 
ATOM     10  C   UNL     1       2.038   3.677  18.687  0.00  0.00    +0.000 C 
ATOM     11  C   UNL     1       0.733   3.433  19.477  0.00  0.00    +0.000 C 
ATOM     12  N   UNL     1       0.748   2.976  20.864  0.00  0.00    +0.000 NA
ATOM     13  C   UNL     1       2.046   3.087  21.531  0.00  0.00    +0.000 C 
ATOM     14  C   UNL     1       3.120   4.032  20.951  0.00  0.00    +0.000 C 
ATOM     15  N   UNL     1       3.237   3.901  19.500  0.00  0.00    +0.000 N 
ATOM     16  H   UNL     1       0.418   2.014  20.919  0.00  0.00    +0.000 HD
ENDROOT
TORSDOF 0
ENDMDL
