MODEL 1
REMARK VINA RESULT:      -8.0      0.000      0.000
REMARK  Name = 
REMARK  8 active torsions:
REMARK  status: ('A' for Active; 'I' for Inactive)
REMARK    1  A    between atoms: C_1  and  O_2
REMARK    2  A    between atoms: O_2  and  C_3
REMARK    3  A    between atoms: C_6  and  N_7
REMARK    4  A    between atoms: N_10  and  C_11
REMARK    5  A    between atoms: C_11  and  C_12
REMARK    6  A    between atoms: C_12  and  N_13
REMARK    7  A    between atoms: N_13  and  C_14
REMARK    8  A    between atoms: C_14  and  C_15
REMARK                            x       y       z     vdW  Elec       q    Type
REMARK                         _______ _______ _______ _____ _____    ______ ____
ROOT
ATOM      1  N   UNL     1       2.244   7.235  18.705  0.00  0.00    +0.000 N 
ATOM      2  C   UNL     1       2.262   8.474  17.918  0.00  0.00    +0.000 C 
ATOM      3  C   UNL     1       1.003   9.308  18.271  0.00  0.00    +0.000 C 
ATOM      4  N   UNL     1       0.790   9.575  19.718  0.00  0.00    +0.000 NA
ATOM      5  C   UNL     1       0.836   8.274  20.433  0.00  0.00    +0.000 C 
ATOM      6  C   UNL     1       2.106   7.434  20.157  0.00  0.00    +0.000 C 
ENDROOT
BRANCH   1  10
ATOM      7  C   UNL     1       6.024   6.480  16.847  0.00  0.00    +0.000 A 
ATOM      8  N   UNL     1       4.860   6.770  17.453  0.00  0.00    +0.000 NA
ATOM      9  C   UNL     1       3.916   5.795  17.563  0.00  0.00    +0.000 A 
ATOM     10  C   UNL     1       2.664   6.009  18.189  0.00  0.00    +0.000 A 
ATOM     11  C   UNL     1       1.755   4.937  18.245  0.00  0.00    +0.000 A 
ATOM     12  C   UNL     1       2.100   3.711  17.718  0.00  0.00    +0.000 A 
ATOM     13  N   UNL     1       3.281   3.471  17.133  0.00  0.00    +0.000 NA
ATOM     14  C   UNL     1       4.153   4.488  17.056  0.00  0.00    +0.000 A 
ATOM     15  C   UNL     1       5.363   4.233  16.448  0.00  0.00    +0.000 A 
ATOM     16  C   UNL     1       6.310   5.221  16.337  0.00  0.00    +0.000 A 
ATOM     17  F   UNL     1       7.484   4.972  15.742  0.00  0.00    +0.000 F 
BRANCH   7  19
ATOM     18  C   UNL     1       7.803   7.592  17.881  0.00  0.00    +0.000 C 
ATOM     19  O   UNL     1       6.989   7.462  16.719  0.00  0.00    +0.000 OA
ENDBRANCH   7  19
ENDBRANCH   1  10
BRANCH   4  20
ATOM     20  C   UNL     1       1.774  10.516  20.289  0.00  0.00    +0.000 C 
BRANCH  20  21
ATOM     21  C   UNL     1       1.120  11.815  20.799  0.00  0.00    +0.000 C 
BRANCH  21  22
ATOM     22  N   UNL     1       1.157  12.897  19.806  0.00  0.00    +0.000 NA
ATOM     23  H   UNL     1       1.181  12.485  18.870  0.00  0.00    +0.000 HD
BRANCH  22  24
ATOM     24  C   UNL     1      -0.092  13.674  19.914  0.00  0.00    +0.000 C 
BRANCH  24  25
ATOM     25  C   UNL     1      -1.292  12.891  19.435  0.00  0.00    +0.000 A 
ATOM     26  C   UNL     1      -2.513  12.951  20.102  0.00  0.00    +0.000 A 
ATOM     27  C   UNL     1      -3.618  12.307  19.545  0.00  0.00    +0.000 A 
ATOM     28  C   UNL     1      -3.476  11.651  18.330  0.00  0.00    +0.000 A 
ATOM     29  C   UNL     1      -2.206  11.593  17.767  0.00  0.00    +0.000 A 
ATOM     30  N   UNL     1      -1.121  12.183  18.292  0.00  0.00    +0.000 NA
ATOM     31  N   UNL     1      -2.001  10.838  16.602  0.00  0.00    +0.000 N 
ATOM     32  C   UNL     1      -3.061  10.824  15.729  0.00  0.00    +0.000 C 
ATOM     33  O   UNL     1      -2.908  10.799  14.511  0.00  0.00    +0.000 OA
ATOM     34  C   UNL     1      -4.437  10.754  16.395  0.00  0.00    +0.000 C 
ATOM     35  O   UNL     1      -4.575  11.058  17.780  0.00  0.00    +0.000 OA
ATOM     36  H   UNL     1      -1.848   9.888  16.929  0.00  0.00    +0.000 HD
ENDBRANCH  24  25
ENDBRANCH  22  24
ENDBRANCH  21  22
ENDBRANCH  20  21
ENDBRANCH   4  20
TORSDOF 7
ENDMDL
MODEL 2
REMARK VINA RESULT:      -8.0      2.981      5.939
REMARK  Name = 
REMARK  8 active torsions:
REMARK  status: ('A' for Active; 'I' for Inactive)
REMARK    1  A    between atoms: C_1  and  O_2
REMARK    2  A    between atoms: O_2  and  C_3
REMARK    3  A    between atoms: C_6  and  N_7
REMARK    4  A    between atoms: N_10  and  C_11
REMARK    5  A    between atoms: C_11  and  C_12
REMARK    6  A    between atoms: C_12  and  N_13
REMARK    7  A    between atoms: N_13  and  C_14
REMARK    8  A    between atoms: C_14  and  C_15
REMARK                            x       y       z     vdW  Elec       q    Type
REMARK                         _______ _______ _______ _____ _____    ______ ____
ROOT
ATOM      1  N   UNL     1       4.378   3.986  17.671  0.00  0.00    +0.000 N 
ATOM      2  C   UNL     1       3.187   3.646  16.882  0.00  0.00    +0.000 C 
ATOM      3  C   UNL     1       2.790   2.178  17.188  0.00  0.00    +0.000 C 
ATOM      4  N   UNL     1       2.617   1.841  18.626  0.00  0.00    +0.000 NA
ATOM      5  C   UNL     1       3.846   2.265  19.344  0.00  0.00    +0.000 C 
ATOM      6  C   UNL     1       4.246   3.742  19.116  0.00  0.00    +0.000 C 
ENDROOT
BRANCH   1  10
ATOM      7  C   UNL     1       6.005   3.778  13.718  0.00  0.00    +0.000 A 
ATOM      8  N   UNL     1       5.445   3.810  14.940  0.00  0.00    +0.000 NA
ATOM      9  C   UNL     1       5.936   4.681  15.865  0.00  0.00    +0.000 A 
ATOM     10  C   UNL     1       5.407   4.786  17.173  0.00  0.00    +0.000 A 
ATOM     11  C   UNL     1       5.991   5.712  18.056  0.00  0.00    +0.000 A 
ATOM     12  C   UNL     1       7.036   6.504  17.632  0.00  0.00    +0.000 A 
ATOM     13  N   UNL     1       7.550   6.441  16.397  0.00  0.00    +0.000 NA
ATOM     14  C   UNL     1       7.016   5.550  15.548  0.00  0.00    +0.000 A 
ATOM     15  C   UNL     1       7.556   5.488  14.282  0.00  0.00    +0.000 A 
ATOM     16  C   UNL     1       7.058   4.606  13.354  0.00  0.00    +0.000 A 
ATOM     17  F   UNL     1       7.586   4.545  12.125  0.00  0.00    +0.000 F 
BRANCH   7  19
ATOM     18  C   UNL     1       4.591   3.494  11.877  0.00  0.00    +0.000 C 
ATOM     19  O   UNL     1       5.524   2.893  12.771  0.00  0.00    +0.000 OA
ENDBRANCH   7  19
ENDBRANCH   1  10
BRANCH   4  20
ATOM     20  C   UNL     1       1.421   2.462  19.231  0.00  0.00    +0.000 C 
BRANCH  20  21
ATOM     21  C   UNL     1       1.740   3.184  20.555  0.00  0.00    +0.000 C 
BRANCH  21  22
ATOM     22  N   UNL     1       1.139   4.522  20.631  0.00  0.00    +0.000 NA
ATOM     23  H   UNL     1       0.450   4.533  21.387  0.00  0.00    +0.000 HD
BRANCH  22  24
ATOM     24  C   UNL     1       2.194   5.490  20.982  0.00  0.00    +0.000 C 
BRANCH  24  25
ATOM     25  C   UNL     1       2.065   6.779  20.204  0.00  0.00    +0.000 A 
ATOM     26  C   UNL     1       2.472   6.871  18.875  0.00  0.00    +0.000 A 
ATOM     27  C   UNL     1       2.215   8.048  18.172  0.00  0.00    +0.000 A 
ATOM     28  C   UNL     1       1.536   9.079  18.805  0.00  0.00    +0.000 A 
ATOM     29  C   UNL     1       1.220   8.921  20.150  0.00  0.00    +0.000 A 
ATOM     30  N   UNL     1       1.477   7.810  20.858  0.00  0.00    +0.000 NA
ATOM     31  N   UNL     1       0.641   9.987  20.853  0.00  0.00    +0.000 N 
ATOM     32  C   UNL     1      -0.205  10.776  20.113  0.00  0.00    +0.000 C 
ATOM     33  O   UNL     1      -1.212  11.290  20.593  0.00  0.00    +0.000 OA
ATOM     34  C   UNL     1       0.252  11.031  18.676  0.00  0.00    +0.000 C 
ATOM     35  O   UNL     1       1.258  10.208  18.091  0.00  0.00    +0.000 OA
ATOM     36  H   UNL     1       1.425  10.560  21.154  0.00  0.00    +0.000 HD
ENDBRANCH  24  25
ENDBRANCH  22  24
ENDBRANCH  21  22
ENDBRANCH  20  21
ENDBRANCH   4  20
TORSDOF 7
ENDMDL
MODEL 3
REMARK VINA RESULT:      -7.9      3.073      9.681
REMARK  Name = 
REMARK  8 active torsions:
REMARK  status: ('A' for Active; 'I' for Inactive)
REMARK    1  A    between atoms: C_1  and  O_2
REMARK    2  A    between atoms: O_2  and  C_3
REMARK    3  A    between atoms: C_6  and  N_7
REMARK    4  A    between atoms: N_10  and  C_11
REMARK    5  A    between atoms: C_11  and  C_12
REMARK    6  A    between atoms: C_12  and  N_13
REMARK    7  A    between atoms: N_13  and  C_14
REMARK    8  A    between atoms: C_14  and  C_15
REMARK                            x       y       z     vdW  Elec       q    Type
REMARK                         _______ _______ _______ _____ _____    ______ ____
ROOT
ATOM      1  N   UNL     1       1.117   9.084  19.370  0.00  0.00    +0.000 N 
ATOM      2  C   UNL     1       1.493   8.853  17.969  0.00  0.00    +0.000 C 
ATOM      3  C   UNL     1       2.874   8.146  17.934  0.00  0.00    +0.000 C 
ATOM      4  N   UNL     1       2.986   6.908  18.749  0.00  0.00    +0.000 NA
ATOM      5  C   UNL     1       2.540   7.228  20.129  0.00  0.00    +0.000 C 
ATOM      6  C   UNL     1       1.139   7.880  20.215  0.00  0.00    +0.000 C 
ENDROOT
BRANCH   1  10
ATOM      7  C   UNL     1      -2.657  10.486  17.917  0.00  0.00    +0.000 A 
ATOM      8  N   UNL     1      -1.484   9.990  18.348  0.00  0.00    +0.000 NA
ATOM      9  C   UNL     1      -0.778  10.689  19.279  0.00  0.00    +0.000 A 
ATOM     10  C   UNL     1       0.463  10.241  19.792  0.00  0.00    +0.000 A 
ATOM     11  C   UNL     1       1.117  11.041  20.747  0.00  0.00    +0.000 A 
ATOM     12  C   UNL     1       0.538  12.216  21.176  0.00  0.00    +0.000 A 
ATOM     13  N   UNL     1      -0.641  12.660  20.722  0.00  0.00    +0.000 NA
ATOM     14  C   UNL     1      -1.270  11.918  19.798  0.00  0.00    +0.000 A 
ATOM     15  C   UNL     1      -2.479  12.386  19.334  0.00  0.00    +0.000 A 
ATOM     16  C   UNL     1      -3.186  11.678  18.392  0.00  0.00    +0.000 A 
ATOM     17  F   UNL     1      -4.360  12.136  17.940  0.00  0.00    +0.000 F 
BRANCH   7  19
ATOM     18  C   UNL     1      -2.965  10.084  15.634  0.00  0.00    +0.000 C 
ATOM     19  O   UNL     1      -3.382   9.793  16.965  0.00  0.00    +0.000 OA
ENDBRANCH   7  19
ENDBRANCH   1  10
BRANCH   4  20
ATOM     20  C   UNL     1       2.210   5.777  18.201  0.00  0.00    +0.000 C 
BRANCH  20  21
ATOM     21  C   UNL     1       2.275   4.527  19.102  0.00  0.00    +0.000 C 
BRANCH  21  22
ATOM     22  N   UNL     1       3.083   3.448  18.519  0.00  0.00    +0.000 NA
ATOM     23  H   UNL     1       3.061   3.534  17.500  0.00  0.00    +0.000 HD
BRANCH  22  24
ATOM     24  C   UNL     1       4.482   3.627  18.948  0.00  0.00    +0.000 C 
BRANCH  24  25
ATOM     25  C   UNL     1       5.334   4.244  17.864  0.00  0.00    +0.000 A 
ATOM     26  C   UNL     1       6.492   4.957  18.166  0.00  0.00    +0.000 A 
ATOM     27  C   UNL     1       7.304   5.398  17.121  0.00  0.00    +0.000 A 
ATOM     28  C   UNL     1       6.952   5.088  15.814  0.00  0.00    +0.000 A 
ATOM     29  C   UNL     1       5.749   4.424  15.605  0.00  0.00    +0.000 A 
ATOM     30  N   UNL     1       4.936   4.010  16.589  0.00  0.00    +0.000 NA
ATOM     31  N   UNL     1       5.303   4.200  14.294  0.00  0.00    +0.000 N 
ATOM     32  C   UNL     1       6.298   3.971  13.377  0.00  0.00    +0.000 C 
ATOM     33  O   UNL     1       6.158   3.193  12.437  0.00  0.00    +0.000 OA
ATOM     34  C   UNL     1       7.554   4.822  13.570  0.00  0.00    +0.000 C 
ATOM     35  O   UNL     1       7.777   5.493  14.806  0.00  0.00    +0.000 OA
ATOM     36  H   UNL     1       4.821   5.055  14.031  0.00  0.00    +0.000 HD
ENDBRANCH  24  25
ENDBRANCH  22  24
ENDBRANCH  21  22
ENDBRANCH  20  21
ENDBRANCH   4  20
TORSDOF 7
ENDMDL
MODEL 4
REMARK VINA RESULT:      -7.9      3.854      5.133
REMARK  Name = 
REMARK  8 active torsions:
REMARK  status: ('A' for Active; 'I' for Inactive)
REMARK    1  A    between atoms: C_1  and  O_2
REMARK    2  A    between atoms: O_2  and  C_3
REMARK    3  A    between atoms: C_6  and  N_7
REMARK    4  A    between atoms: N_10  and  C_11
REMARK    5  A    between atoms: C_11  and  C_12
REMARK    6  A    between atoms: C_12  and  N_13
REMARK    7  A    between atoms: N_13  and  C_14
REMARK    8  A    between atoms: C_14  and  C_15
REMARK                            x       y       z     vdW  Elec       q    Type
REMARK                         _______ _______ _______ _____ _____    ______ ____
ROOT
ATOM      1  N   UNL     1       2.189   7.759  19.074  0.00  0.00    +0.000 N 
ATOM      2  C   UNL     1       1.982   9.165  18.706  0.00  0.00    +0.000 C 
ATOM      3  C   UNL     1       0.538   9.576  19.098  0.00  0.00    +0.000 C 
ATOM      4  N   UNL     1       0.152   9.311  20.509  0.00  0.00    +0.000 NA
ATOM      5  C   UNL     1       0.442   7.884  20.801  0.00  0.00    +0.000 C 
ATOM      6  C   UNL     1       1.891   7.445  20.481  0.00  0.00    +0.000 C 
ENDROOT
BRANCH   1  10
ATOM      7  C   UNL     1       1.856   3.493  19.144  0.00  0.00    +0.000 A 
ATOM      8  N   UNL     1       1.907   4.836  19.153  0.00  0.00    +0.000 NA
ATOM      9  C   UNL     1       2.804   5.465  18.345  0.00  0.00    +0.000 A 
ATOM     10  C   UNL     1       2.925   6.874  18.286  0.00  0.00    +0.000 A 
ATOM     11  C   UNL     1       3.889   7.426  17.423  0.00  0.00    +0.000 A 
ATOM     12  C   UNL     1       4.672   6.599  16.646  0.00  0.00    +0.000 A 
ATOM     13  N   UNL     1       4.573   5.264  16.667  0.00  0.00    +0.000 NA
ATOM     14  C   UNL     1       3.670   4.721  17.498  0.00  0.00    +0.000 A 
ATOM     15  C   UNL     1       3.580   3.347  17.515  0.00  0.00    +0.000 A 
ATOM     16  C   UNL     1       2.674   2.718  18.335  0.00  0.00    +0.000 A 
ATOM     17  F   UNL     1       2.591   1.381  18.353  0.00  0.00    +0.000 F 
BRANCH   7  19
ATOM     18  C   UNL     1       1.352   2.846  21.334  0.00  0.00    +0.000 C 
ATOM     19  O   UNL     1       0.956   2.839  19.966  0.00  0.00    +0.000 OA
ENDBRANCH   7  19
ENDBRANCH   1  10
BRANCH   4  20
ATOM     20  C   UNL     1       0.840  10.189  21.477  0.00  0.00    +0.000 C 
BRANCH  20  21
ATOM     21  C   UNL     1       0.528  11.681  21.243  0.00  0.00    +0.000 C 
BRANCH  21  22
ATOM     22  N   UNL     1      -0.900  11.991  21.390  0.00  0.00    +0.000 NA
ATOM     23  H   UNL     1      -1.444  11.295  20.873  0.00  0.00    +0.000 HD
BRANCH  22  24
ATOM     24  C   UNL     1      -1.263  11.866  22.813  0.00  0.00    +0.000 C 
BRANCH  24  25
ATOM     25  C   UNL     1      -2.433  12.748  23.181  0.00  0.00    +0.000 A 
ATOM     26  C   UNL     1      -2.413  14.121  22.945  0.00  0.00    +0.000 A 
ATOM     27  C   UNL     1      -3.568  14.864  23.191  0.00  0.00    +0.000 A 
ATOM     28  C   UNL     1      -4.710  14.211  23.634  0.00  0.00    +0.000 A 
ATOM     29  C   UNL     1      -4.620  12.849  23.898  0.00  0.00    +0.000 A 
ATOM     30  N   UNL     1      -3.516  12.113  23.695  0.00  0.00    +0.000 NA
ATOM     31  N   UNL     1      -5.717  12.181  24.460  0.00  0.00    +0.000 N 
ATOM     32  C   UNL     1      -6.945  12.648  24.060  0.00  0.00    +0.000 C 
ATOM     33  O   UNL     1      -7.911  11.906  23.903  0.00  0.00    +0.000 OA
ATOM     34  C   UNL     1      -7.032  14.168  23.909  0.00  0.00    +0.000 C 
ATOM     35  O   UNL     1      -5.842  14.946  23.832  0.00  0.00    +0.000 OA
ATOM     36  H   UNL     1      -5.633  12.332  25.461  0.00  0.00    +0.000 HD
ENDBRANCH  24  25
ENDBRANCH  22  24
ENDBRANCH  21  22
ENDBRANCH  20  21
ENDBRANCH   4  20
TORSDOF 7
ENDMDL
MODEL 5
REMARK VINA RESULT:      -7.8      3.033      4.011
REMARK  Name = 
REMARK  8 active torsions:
REMARK  status: ('A' for Active; 'I' for Inactive)
REMARK    1  A    between atoms: C_1  and  O_2
REMARK    2  A    between atoms: O_2  and  C_3
REMARK    3  A    between atoms: C_6  and  N_7
REMARK    4  A    between atoms: N_10  and  C_11
REMARK    5  A    between atoms: C_11  and  C_12
REMARK    6  A    between atoms: C_12  and  N_13
REMARK    7  A    between atoms: N_13  and  C_14
REMARK    8  A    between atoms: C_14  and  C_15
REMARK                            x       y       z     vdW  Elec       q    Type
REMARK                         _______ _______ _______ _____ _____    ______ ____
ROOT
ATOM      1  N   UNL     1       2.138   7.444  18.531  0.00  0.00    +0.000 N 
ATOM      2  C   UNL     1       2.089   8.620  17.652  0.00  0.00    +0.000 C 
ATOM      3  C   UNL     1       0.792   9.415  17.956  0.00  0.00    +0.000 C 
ATOM      4  N   UNL     1       0.576   9.780  19.381  0.00  0.00    +0.000 NA
ATOM      5  C   UNL     1       0.693   8.541  20.191  0.00  0.00    +0.000 C 
ATOM      6  C   UNL     1       2.002   7.747  19.965  0.00  0.00    +0.000 C 
ENDROOT
BRANCH   1  10
ATOM      7  C   UNL     1       6.053   6.686  16.978  0.00  0.00    +0.000 A 
ATOM      8  N   UNL     1       4.844   6.978  17.487  0.00  0.00    +0.000 NA
ATOM      9  C   UNL     1       3.912   5.989  17.578  0.00  0.00    +0.000 A 
ATOM     10  C   UNL     1       2.616   6.205  18.105  0.00  0.00    +0.000 A 
ATOM     11  C   UNL     1       1.725   5.118  18.149  0.00  0.00    +0.000 A 
ATOM     12  C   UNL     1       2.129   3.877  17.706  0.00  0.00    +0.000 A 
ATOM     13  N   UNL     1       3.352   3.636  17.217  0.00  0.00    +0.000 NA
ATOM     14  C   UNL     1       4.209   4.666  17.152  0.00  0.00    +0.000 A 
ATOM     15  C   UNL     1       5.462   4.408  16.642  0.00  0.00    +0.000 A 
ATOM     16  C   UNL     1       6.397   5.411  16.550  0.00  0.00    +0.000 A 
ATOM     17  F   UNL     1       7.614   5.159  16.050  0.00  0.00    +0.000 F 
BRANCH   7  19
ATOM     18  C   UNL     1       7.875   7.739  17.998  0.00  0.00    +0.000 C 
ATOM     19  O   UNL     1       7.007   7.681  16.870  0.00  0.00    +0.000 OA
ENDBRANCH   7  19
ENDBRANCH   1  10
BRANCH   4  20
ATOM     20  C   UNL     1       1.517  10.810  19.868  0.00  0.00    +0.000 C 
BRANCH  20  21
ATOM     21  C   UNL     1       0.979  11.562  21.101  0.00  0.00    +0.000 C 
BRANCH  21  22
ATOM     22  N   UNL     1      -0.485  11.502  21.208  0.00  0.00    +0.000 NA
ATOM     23  H   UNL     1      -0.812  10.632  20.781  0.00  0.00    +0.000 HD
BRANCH  22  24
ATOM     24  C   UNL     1      -0.848  11.456  22.637  0.00  0.00    +0.000 C 
BRANCH  24  25
ATOM     25  C   UNL     1      -1.974  12.407  22.968  0.00  0.00    +0.000 A 
ATOM     26  C   UNL     1      -1.924  13.750  22.601  0.00  0.00    +0.000 A 
ATOM     27  C   UNL     1      -3.044  14.552  22.823  0.00  0.00    +0.000 A 
ATOM     28  C   UNL     1      -4.184  13.983  23.375  0.00  0.00    +0.000 A 
ATOM     29  C   UNL     1      -4.122  12.650  23.764  0.00  0.00    +0.000 A 
ATOM     30  N   UNL     1      -3.050  11.861  23.585  0.00  0.00    +0.000 NA
ATOM     31  N   UNL     1      -5.212  12.074  24.433  0.00  0.00    +0.000 N 
ATOM     32  C   UNL     1      -6.442  12.543  24.042  0.00  0.00    +0.000 C 
ATOM     33  O   UNL     1      -7.436  11.823  23.999  0.00  0.00    +0.000 OA
ATOM     34  C   UNL     1      -6.491  14.044  23.752  0.00  0.00    +0.000 C 
ATOM     35  O   UNL     1      -5.283  14.771  23.550  0.00  0.00    +0.000 OA
ATOM     36  H   UNL     1      -5.077  12.317  25.411  0.00  0.00    +0.000 HD
ENDBRANCH  24  25
ENDBRANCH  22  24
ENDBRANCH  21  22
ENDBRANCH  20  21
ENDBRANCH   4  20
TORSDOF 7
ENDMDL
MODEL 6
REMARK VINA RESULT:      -7.7      2.927      3.743
REMARK  Name = 
REMARK  8 active torsions:
REMARK  status: ('A' for Active; 'I' for Inactive)
REMARK    1  A    between atoms: C_1  and  O_2
REMARK    2  A    between atoms: O_2  and  C_3
REMARK    3  A    between atoms: C_6  and  N_7
REMARK    4  A    between atoms: N_10  and  C_11
REMARK    5  A    between atoms: C_11  and  C_12
REMARK    6  A    between atoms: C_12  and  N_13
REMARK    7  A    between atoms: N_13  and  C_14
REMARK    8  A    between atoms: C_14  and  C_15
REMARK                            x       y       z     vdW  Elec       q    Type
REMARK                         _______ _______ _______ _____ _____    ______ ____
ROOT
ATOM      1  N   UNL     1       2.017   7.736  19.489  0.00  0.00    +0.000 N 
ATOM      2  C   UNL     1       2.221   8.499  18.251  0.00  0.00    +0.000 C 
ATOM      3  C   UNL     1       0.947   9.338  17.967  0.00  0.00    +0.000 C 
ATOM      4  N   UNL     1       0.483  10.205  19.082  0.00  0.00    +0.000 NA
ATOM      5  C   UNL     1       0.354   9.358  20.295  0.00  0.00    +0.000 C 
ATOM      6  C   UNL     1       1.623   8.549  20.651  0.00  0.00    +0.000 C 
ENDROOT
BRANCH   1  10
ATOM      7  C   UNL     1       5.475   6.068  17.598  0.00  0.00    +0.000 A 
ATOM      8  N   UNL     1       4.409   6.648  18.177  0.00  0.00    +0.000 NA
ATOM      9  C   UNL     1       3.621   5.903  19.001  0.00  0.00    +0.000 A 
ATOM     10  C   UNL     1       2.483   6.432  19.655  0.00  0.00    +0.000 A 
ATOM     11  C   UNL     1       1.731   5.576  20.480  0.00  0.00    +0.000 A 
ATOM     12  C   UNL     1       2.121   4.266  20.653  0.00  0.00    +0.000 A 
ATOM     13  N   UNL     1       3.201   3.739  20.061  0.00  0.00    +0.000 NA
ATOM     14  C   UNL     1       3.919   4.536  19.256  0.00  0.00    +0.000 A 
ATOM     15  C   UNL     1       5.025   3.983  18.648  0.00  0.00    +0.000 A 
ATOM     16  C   UNL     1       5.814   4.739  17.816  0.00  0.00    +0.000 A 
ATOM     17  F   UNL     1       6.886   4.199  17.223  0.00  0.00    +0.000 F 
BRANCH   7  19
ATOM     18  C   UNL     1       7.365   7.434  17.430  0.00  0.00    +0.000 C 
ATOM     19  O   UNL     1       6.279   6.808  16.752  0.00  0.00    +0.000 OA
ENDBRANCH   7  19
ENDBRANCH   1  10
BRANCH   4  20
ATOM     20  C   UNL     1       1.378  11.351  19.342  0.00  0.00    +0.000 C 
BRANCH  20  21
ATOM     21  C   UNL     1       0.891  12.645  18.661  0.00  0.00    +0.000 C 
BRANCH  21  22
ATOM     22  N   UNL     1      -0.563  12.827  18.764  0.00  0.00    +0.000 NA
ATOM     23  H   UNL     1      -0.991  11.933  19.016  0.00  0.00    +0.000 HD
BRANCH  22  24
ATOM     24  C   UNL     1      -0.840  13.774  19.860  0.00  0.00    +0.000 C 
BRANCH  24  25
ATOM     25  C   UNL     1      -1.614  13.130  20.986  0.00  0.00    +0.000 A 
ATOM     26  C   UNL     1      -0.978  12.372  21.966  0.00  0.00    +0.000 A 
ATOM     27  C   UNL     1      -1.726  11.905  23.048  0.00  0.00    +0.000 A 
ATOM     28  C   UNL     1      -3.072  12.234  23.132  0.00  0.00    +0.000 A 
ATOM     29  C   UNL     1      -3.634  12.945  22.077  0.00  0.00    +0.000 A 
ATOM     30  N   UNL     1      -2.945  13.385  21.013  0.00  0.00    +0.000 NA
ATOM     31  N   UNL     1      -5.015  13.192  22.070  0.00  0.00    +0.000 N 
ATOM     32  C   UNL     1      -5.573  13.387  23.309  0.00  0.00    +0.000 C 
ATOM     33  O   UNL     1      -6.497  14.174  23.496  0.00  0.00    +0.000 OA
ATOM     34  C   UNL     1      -5.013  12.488  24.412  0.00  0.00    +0.000 C 
ATOM     35  O   UNL     1      -3.779  11.803  24.215  0.00  0.00    +0.000 OA
ATOM     36  H   UNL     1      -5.429  12.357  21.665  0.00  0.00    +0.000 HD
ENDBRANCH  24  25
ENDBRANCH  22  24
ENDBRANCH  21  22
ENDBRANCH  20  21
ENDBRANCH   4  20
TORSDOF 7
ENDMDL
MODEL 7
REMARK VINA RESULT:      -7.7      3.128      4.643
REMARK  Name = 
REMARK  8 active torsions:
REMARK  status: ('A' for Active; 'I' for Inactive)
REMARK    1  A    between atoms: C_1  and  O_2
REMARK    2  A    between atoms: O_2  and  C_3
REMARK    3  A    between atoms: C_6  and  N_7
REMARK    4  A    between atoms: N_10  and  C_11
REMARK    5  A    between atoms: C_11  and  C_12
REMARK    6  A    between atoms: C_12  and  N_13
REMARK    7  A    between atoms: N_13  and  C_14
REMARK    8  A    between atoms: C_14  and  C_15
REMARK                            x       y       z     vdW  Elec       q    Type
REMARK                         _______ _______ _______ _____ _____    ______ ____
ROOT
ATOM      1  N   UNL     1       2.337   7.732  18.532  0.00  0.00    +0.000 N 
ATOM      2  C   UNL     1       1.752   7.624  19.874  0.00  0.00    +0.000 C 
ATOM      3  C   UNL     1       1.719   9.034  20.520  0.00  0.00    +0.000 C 
ATOM      4  N   UNL     1       1.062  10.098  19.714  0.00  0.00    +0.000 NA
ATOM      5  C   UNL     1       1.685  10.098  18.366  0.00  0.00    +0.000 C 
ATOM      6  C   UNL     1       1.685   8.721  17.659  0.00  0.00    +0.000 C 
ENDROOT
BRANCH   1  10
ATOM      7  C   UNL     1       2.003   3.510  19.147  0.00  0.00    +0.000 A 
ATOM      8  N   UNL     1       2.050   4.843  18.974  0.00  0.00    +0.000 NA
ATOM      9  C   UNL     1       3.064   5.375  18.239  0.00  0.00    +0.000 A 
ATOM     10  C   UNL     1       3.191   6.765  18.002  0.00  0.00    +0.000 A 
ATOM     11  C   UNL     1       4.280   7.215  17.234  0.00  0.00    +0.000 A 
ATOM     12  C   UNL     1       5.179   6.307  16.715  0.00  0.00    +0.000 A 
ATOM     13  N   UNL     1       5.080   4.986  16.907  0.00  0.00    +0.000 NA
ATOM     14  C   UNL     1       4.056   4.542  17.652  0.00  0.00    +0.000 A 
ATOM     15  C   UNL     1       3.966   3.181  17.848  0.00  0.00    +0.000 A 
ATOM     16  C   UNL     1       2.942   2.651  18.594  0.00  0.00    +0.000 A 
ATOM     17  F   UNL     1       2.859   1.328  18.787  0.00  0.00    +0.000 F 
BRANCH   7  19
ATOM     18  C   UNL     1       1.343   2.776  21.266  0.00  0.00    +0.000 C 
ATOM     19  O   UNL     1       0.984   2.955  19.899  0.00  0.00    +0.000 OA
ENDBRANCH   7  19
ENDBRANCH   1  10
BRANCH   4  20
ATOM     20  C   UNL     1      -0.401   9.931  19.611  0.00  0.00    +0.000 C 
BRANCH  20  21
ATOM     21  C   UNL     1      -0.989  10.642  18.375  0.00  0.00    +0.000 C 
BRANCH  21  22
ATOM     22  N   UNL     1      -2.383  10.262  18.112  0.00  0.00    +0.000 NA
ATOM     23  H   UNL     1      -2.800   9.913  18.979  0.00  0.00    +0.000 HD
BRANCH  22  24
ATOM     24  C   UNL     1      -3.131  11.471  17.718  0.00  0.00    +0.000 C 
BRANCH  24  25
ATOM     25  C   UNL     1      -4.465  11.568  18.420  0.00  0.00    +0.000 A 
ATOM     26  C   UNL     1      -5.603  10.949  17.908  0.00  0.00    +0.000 A 
ATOM     27  C   UNL     1      -6.777  10.968  18.661  0.00  0.00    +0.000 A 
ATOM     28  C   UNL     1      -6.770  11.576  19.909  0.00  0.00    +0.000 A 
ATOM     29  C   UNL     1      -5.605  12.219  20.312  0.00  0.00    +0.000 A 
ATOM     30  N   UNL     1      -4.469  12.237  19.598  0.00  0.00    +0.000 NA
ATOM     31  N   UNL     1      -5.598  12.945  21.512  0.00  0.00    +0.000 N 
ATOM     32  C   UNL     1      -6.387  12.424  22.508  0.00  0.00    +0.000 C 
ATOM     33  O   UNL     1      -6.074  12.483  23.693  0.00  0.00    +0.000 OA
ATOM     34  C   UNL     1      -7.720  11.845  22.029  0.00  0.00    +0.000 C 
ATOM     35  O   UNL     1      -7.916  11.552  20.649  0.00  0.00    +0.000 OA
ATOM     36  H   UNL     1      -5.962  13.861  21.267  0.00  0.00    +0.000 HD
ENDBRANCH  24  25
ENDBRANCH  22  24
ENDBRANCH  21  22
ENDBRANCH  20  21
ENDBRANCH   4  20
TORSDOF 7
ENDMDL
MODEL 8
REMARK VINA RESULT:      -7.7      2.809      3.977
REMARK  Name = 
REMARK  8 active torsions:
REMARK  status: ('A' for Active; 'I' for Inactive)
REMARK    1  A    between atoms: C_1  and  O_2
REMARK    2  A    between atoms: O_2  and  C_3
REMARK    3  A    between atoms: C_6  and  N_7
REMARK    4  A    between atoms: N_10  and  C_11
REMARK    5  A    between atoms: C_11  and  C_12
REMARK    6  A    between atoms: C_12  and  N_13
REMARK    7  A    between atoms: N_13  and  C_14
REMARK    8  A    between atoms: C_14  and  C_15
REMARK                            x       y       z     vdW  Elec       q    Type
REMARK                         _______ _______ _______ _____ _____    ______ ____
ROOT
ATOM      1  N   UNL     1       2.334   7.856  18.726  0.00  0.00    +0.000 N 
ATOM      2  C   UNL     1       2.083   9.186  18.155  0.00  0.00    +0.000 C 
ATOM      3  C   UNL     1       0.652   9.636  18.550  0.00  0.00    +0.000 C 
ATOM      4  N   UNL     1       0.337   9.589  20.003  0.00  0.00    +0.000 NA
ATOM      5  C   UNL     1       0.667   8.228  20.496  0.00  0.00    +0.000 C 
ATOM      6  C   UNL     1       2.108   7.761  20.178  0.00  0.00    +0.000 C 
ENDROOT
BRANCH   1  10
ATOM      7  C   UNL     1       1.794   3.635  19.183  0.00  0.00    +0.000 A 
ATOM      8  N   UNL     1       1.909   4.970  19.068  0.00  0.00    +0.000 NA
ATOM      9  C   UNL     1       2.859   5.478  18.235  0.00  0.00    +0.000 A 
ATOM     10  C   UNL     1       3.048   6.868  18.049  0.00  0.00    +0.000 A 
ATOM     11  C   UNL     1       4.063   7.291  17.171  0.00  0.00    +0.000 A 
ATOM     12  C   UNL     1       4.827   6.360  16.501  0.00  0.00    +0.000 A 
ATOM     13  N   UNL     1       4.664   5.039  16.644  0.00  0.00    +0.000 NA
ATOM     14  C   UNL     1       3.712   4.619  17.491  0.00  0.00    +0.000 A 
ATOM     15  C   UNL     1       3.556   3.258  17.634  0.00  0.00    +0.000 A 
ATOM     16  C   UNL     1       2.597   2.751  18.478  0.00  0.00    +0.000 A 
ATOM     17  F   UNL     1       2.449   1.427  18.618  0.00  0.00    +0.000 F 
BRANCH   7  19
ATOM     18  C   UNL     1       1.325   2.916  21.359  0.00  0.00    +0.000 C 
ATOM     19  O   UNL     1       0.840   3.104  20.032  0.00  0.00    +0.000 OA
ENDBRANCH   7  19
ENDBRANCH   1  10
BRANCH   4  20
ATOM     20  C   UNL     1       1.053  10.614  20.788  0.00  0.00    +0.000 C 
BRANCH  20  21
ATOM     21  C   UNL     1       0.493  12.032  20.554  0.00  0.00    +0.000 C 
BRANCH  21  22
ATOM     22  N   UNL     1      -0.976  12.070  20.565  0.00  0.00    +0.000 NA
ATOM     23  H   UNL     1      -1.283  12.744  21.271  0.00  0.00    +0.000 HD
BRANCH  22  24
ATOM     24  C   UNL     1      -1.441  12.561  19.255  0.00  0.00    +0.000 C 
BRANCH  24  25
ATOM     25  C   UNL     1      -2.859  12.132  18.958  0.00  0.00    +0.000 A 
ATOM     26  C   UNL     1      -3.162  11.331  17.860  0.00  0.00    +0.000 A 
ATOM     27  C   UNL     1      -4.468  10.865  17.705  0.00  0.00    +0.000 A 
ATOM     28  C   UNL     1      -5.418  11.186  18.665  0.00  0.00    +0.000 A 
ATOM     29  C   UNL     1      -5.039  12.039  19.695  0.00  0.00    +0.000 A 
ATOM     30  N   UNL     1      -3.797  12.523  19.855  0.00  0.00    +0.000 NA
ATOM     31  N   UNL     1      -6.002  12.482  20.614  0.00  0.00    +0.000 N 
ATOM     32  C   UNL     1      -6.986  11.569  20.904  0.00  0.00    +0.000 C 
ATOM     33  O   UNL     1      -7.487  11.476  22.021  0.00  0.00    +0.000 OA
ATOM     34  C   UNL     1      -7.464  10.744  19.708  0.00  0.00    +0.000 C 
ATOM     35  O   UNL     1      -6.681  10.690  18.519  0.00  0.00    +0.000 OA
ATOM     36  H   UNL     1      -6.437  13.286  20.172  0.00  0.00    +0.000 HD
ENDBRANCH  24  25
ENDBRANCH  22  24
ENDBRANCH  21  22
ENDBRANCH  20  21
ENDBRANCH   4  20
TORSDOF 7
ENDMDL
MODEL 9
REMARK VINA RESULT:      -7.6      3.379      4.626
REMARK  Name = 
REMARK  8 active torsions:
REMARK  status: ('A' for Active; 'I' for Inactive)
REMARK    1  A    between atoms: C_1  and  O_2
REMARK    2  A    between atoms: O_2  and  C_3
REMARK    3  A    between atoms: C_6  and  N_7
REMARK    4  A    between atoms: N_10  and  C_11
REMARK    5  A    between atoms: C_11  and  C_12
REMARK    6  A    between atoms: C_12  and  N_13
REMARK    7  A    between atoms: N_13  and  C_14
REMARK    8  A    between atoms: C_14  and  C_15
REMARK                            x       y       z     vdW  Elec       q    Type
REMARK                         _______ _______ _______ _____ _____    ______ ____
ROOT
ATOM      1  N   UNL     1       2.191   8.003  18.752  0.00  0.00    +0.000 N 
ATOM      2  C   UNL     1       1.820   9.276  18.121  0.00  0.00    +0.000 C 
ATOM      3  C   UNL     1       0.371   9.637  18.541  0.00  0.00    +0.000 C 
ATOM      4  N   UNL     1       0.106   9.646  20.004  0.00  0.00    +0.000 NA
ATOM      5  C   UNL     1       0.555   8.343  20.557  0.00  0.00    +0.000 C 
ATOM      6  C   UNL     1       2.017   7.971  20.213  0.00  0.00    +0.000 C 
ENDROOT
BRANCH   1  10
ATOM      7  C   UNL     1       1.772   3.768  19.210  0.00  0.00    +0.000 A 
ATOM      8  N   UNL     1       1.848   5.106  19.092  0.00  0.00    +0.000 NA
ATOM      9  C   UNL     1       2.808   5.641  18.289  0.00  0.00    +0.000 A 
ATOM     10  C   UNL     1       2.959   7.036  18.103  0.00  0.00    +0.000 A 
ATOM     11  C   UNL     1       3.987   7.489  17.257  0.00  0.00    +0.000 A 
ATOM     12  C   UNL     1       4.803   6.580  16.617  0.00  0.00    +0.000 A 
ATOM     13  N   UNL     1       4.678   5.255  16.759  0.00  0.00    +0.000 NA
ATOM     14  C   UNL     1       3.712   4.807  17.577  0.00  0.00    +0.000 A 
ATOM     15  C   UNL     1       3.595   3.442  17.721  0.00  0.00    +0.000 A 
ATOM     16  C   UNL     1       2.626   2.908  18.535  0.00  0.00    +0.000 A 
ATOM     17  F   UNL     1       2.516   1.580  18.676  0.00  0.00    +0.000 F 
BRANCH   7  19
ATOM     18  C   UNL     1       1.308   2.876  21.321  0.00  0.00    +0.000 C 
ATOM     19  O   UNL     1       0.808   3.209  20.029  0.00  0.00    +0.000 OA
ENDBRANCH   7  19
ENDBRANCH   1  10
BRANCH   4  20
ATOM     20  C   UNL     1       0.764  10.765  20.710  0.00  0.00    +0.000 C 
BRANCH  20  21
ATOM     21  C   UNL     1       0.021  11.165  22.000  0.00  0.00    +0.000 C 
BRANCH  21  22
ATOM     22  N   UNL     1      -0.204  12.613  22.099  0.00  0.00    +0.000 NA
ATOM     23  H   UNL     1      -0.544  12.957  21.197  0.00  0.00    +0.000 HD
BRANCH  22  24
ATOM     24  C   UNL     1      -1.266  12.855  23.093  0.00  0.00    +0.000 C 
BRANCH  24  25
ATOM     25  C   UNL     1      -2.630  12.961  22.452  0.00  0.00    +0.000 A 
ATOM     26  C   UNL     1      -2.779  13.100  21.074  0.00  0.00    +0.000 A 
ATOM     27  C   UNL     1      -4.062  13.069  20.528  0.00  0.00    +0.000 A 
ATOM     28  C   UNL     1      -5.149  12.870  21.368  0.00  0.00    +0.000 A 
ATOM     29  C   UNL     1      -4.910  12.800  22.735  0.00  0.00    +0.000 A 
ATOM     30  N   UNL     1      -3.689  12.852  23.291  0.00  0.00    +0.000 NA
ATOM     31  N   UNL     1      -5.994  12.720  23.622  0.00  0.00    +0.000 N 
ATOM     32  C   UNL     1      -7.075  12.016  23.152  0.00  0.00    +0.000 C 
ATOM     33  O   UNL     1      -7.779  11.327  23.884  0.00  0.00    +0.000 OA
ATOM     34  C   UNL     1      -7.378  12.228  21.667  0.00  0.00    +0.000 C 
ATOM     35  O   UNL     1      -6.394  12.803  20.813  0.00  0.00    +0.000 OA
ATOM     36  H   UNL     1      -6.284  13.683  23.770  0.00  0.00    +0.000 HD
ENDBRANCH  24  25
ENDBRANCH  22  24
ENDBRANCH  21  22
ENDBRANCH  20  21
ENDBRANCH   4  20
TORSDOF 7
ENDMDL
