MODEL 1
REMARK VINA RESULT:      -6.8      0.000      0.000
REMARK  Name = 
REMARK  10 active torsions:
REMARK  status: ('A' for Active; 'I' for Inactive)
REMARK    1  A    between atoms: C_1  and  C_2
REMARK    2  A    between atoms: C_2  and  C_3
REMARK    3  A    between atoms: C_3  and  C_4
REMARK    4  A    between atoms: C_3  and  N_6
REMARK    5  A    between atoms: C_4  and  C_5
REMARK    6  A    between atoms: C_10  and  C_12
REMARK    7  A    between atoms: C_12  and  C_13
REMARK    8  A    between atoms: C_16  and  N_17
REMARK    9  A    between atoms: N_17  and  C_18
REMARK   10  A    between atoms: N_17  and  C_19
REMARK                            x       y       z     vdW  Elec       q    Type
REMARK                         _______ _______ _______ _____ _____    ______ ____
ROOT
ATOM      1  N   UNL     1       4.910   5.439  17.996  0.00  0.00    +0.000 NA
ATOM      2  C   UNL     1       4.690   6.854  17.584  0.00  0.00    +0.000 C 
ATOM      3  C   UNL     1       3.225   7.305  17.647  0.00  0.00    +0.000 C 
ATOM      4  N   UNL     1       2.691   7.134  18.997  0.00  0.00    +0.000 N 
ATOM      5  C   UNL     1       1.888   8.136  19.520  0.00  0.00    +0.000 C 
ATOM      6  O   UNL     1       1.645   9.168  18.889  0.00  0.00    +0.000 OA
ATOM      7  C   UNL     1       2.934   5.817  19.599  0.00  0.00    +0.000 C 
ATOM      8  C   UNL     1       4.383   5.319  19.376  0.00  0.00    +0.000 C 
ENDROOT
BRANCH   1   9
ATOM      9  C   UNL     1       4.377   4.455  17.012  0.00  0.00    +0.000 C 
BRANCH   9  11
ATOM     10  C   UNL     1       6.874   4.419  16.278  0.00  0.00    +0.000 C 
ATOM     11  C   UNL     1       5.417   4.243  15.871  0.00  0.00    +0.000 C 
ENDBRANCH   9  11
BRANCH   9  12
ATOM     12  C   UNL     1       3.940   3.096  17.627  0.00  0.00    +0.000 C 
ATOM     13  C   UNL     1       2.470   2.728  17.458  0.00  0.00    +0.000 C 
ENDBRANCH   9  12
ENDBRANCH   1   9
BRANCH   5  14
ATOM     14  C   UNL     1       1.318   7.968  20.922  0.00  0.00    +0.000 C 
BRANCH  14  15
ATOM     15  C   UNL     1       0.497   9.135  21.413  0.00  0.00    +0.000 A 
ATOM     16  C   UNL     1      -0.032  10.096  20.554  0.00  0.00    +0.000 A 
ATOM     17  C   UNL     1      -0.826  11.148  21.047  0.00  0.00    +0.000 A 
ATOM     18  C   UNL     1      -1.160  11.269  22.406  0.00  0.00    +0.000 A 
ATOM     19  C   UNL     1      -0.642  10.274  23.246  0.00  0.00    +0.000 A 
ATOM     20  C   UNL     1       0.166   9.230  22.764  0.00  0.00    +0.000 A 
BRANCH  18  21
ATOM     21  N   UNL     1      -1.902  12.350  22.875  0.00  0.00    +0.000 N 
ATOM     22  C   UNL     1      -1.232  13.585  23.286  0.00  0.00    +0.000 C 
ATOM     23  C   UNL     1      -3.306  12.525  22.513  0.00  0.00    +0.000 C 
ENDBRANCH  18  21
ENDBRANCH  14  15
ENDBRANCH   5  14
TORSDOF 6
ENDMDL
MODEL 2
REMARK VINA RESULT:      -6.6      4.945      7.547
REMARK  Name = 
REMARK  10 active torsions:
REMARK  status: ('A' for Active; 'I' for Inactive)
REMARK    1  A    between atoms: C_1  and  C_2
REMARK    2  A    between atoms: C_2  and  C_3
REMARK    3  A    between atoms: C_3  and  C_4
REMARK    4  A    between atoms: C_3  and  N_6
REMARK    5  A    between atoms: C_4  and  C_5
REMARK    6  A    between atoms: C_10  and  C_12
REMARK    7  A    between atoms: C_12  and  C_13
REMARK    8  A    between atoms: C_16  and  N_17
REMARK    9  A    between atoms: N_17  and  C_18
REMARK   10  A    between atoms: N_17  and  C_19
REMARK                            x       y       z     vdW  Elec       q    Type
REMARK                         _______ _______ _______ _____ _____    ______ ____
ROOT
ATOM      1  N   UNL     1       3.908   4.058  18.185  0.00  0.00    +0.000 NA
ATOM      2  C   UNL     1       4.785   4.021  16.981  0.00  0.00    +0.000 C 
ATOM      3  C   UNL     1       5.365   5.384  16.584  0.00  0.00    +0.000 C 
ATOM      4  N   UNL     1       6.131   5.960  17.688  0.00  0.00    +0.000 N 
ATOM      5  C   UNL     1       7.337   6.581  17.401  0.00  0.00    +0.000 C 
ATOM      6  O   UNL     1       7.784   6.629  16.251  0.00  0.00    +0.000 OA
ATOM      7  C   UNL     1       5.444   5.960  18.986  0.00  0.00    +0.000 C 
ATOM      8  C   UNL     1       4.732   4.619  19.283  0.00  0.00    +0.000 C 
ENDROOT
BRANCH   1   9
ATOM      9  C   UNL     1       2.607   4.742  17.938  0.00  0.00    +0.000 C 
BRANCH   9  11
ATOM     10  C   UNL     1       1.870   2.292  18.411  0.00  0.00    +0.000 C 
ATOM     11  C   UNL     1       1.444   3.715  18.078  0.00  0.00    +0.000 C 
ENDBRANCH   9  11
BRANCH   9  12
ATOM     12  C   UNL     1       2.356   5.994  18.825  0.00  0.00    +0.000 C 
ATOM     13  C   UNL     1       2.309   7.331  18.094  0.00  0.00    +0.000 C 
ENDBRANCH   9  12
ENDBRANCH   1   9
BRANCH   5  14
ATOM     14  C   UNL     1       8.141   7.192  18.540  0.00  0.00    +0.000 C 
BRANCH  14  15
ATOM     15  C   UNL     1       8.412   8.670  18.399  0.00  0.00    +0.000 A 
ATOM     16  C   UNL     1       7.745   9.471  17.474  0.00  0.00    +0.000 A 
ATOM     17  C   UNL     1       7.997  10.853  17.400  0.00  0.00    +0.000 A 
ATOM     18  C   UNL     1       8.891  11.506  18.265  0.00  0.00    +0.000 A 
ATOM     19  C   UNL     1       9.528  10.684  19.206  0.00  0.00    +0.000 A 
ATOM     20  C   UNL     1       9.294   9.300  19.275  0.00  0.00    +0.000 A 
BRANCH  18  21
ATOM     21  N   UNL     1       9.163  12.865  18.135  0.00  0.00    +0.000 N 
ATOM     22  C   UNL     1       8.105  13.855  18.340  0.00  0.00    +0.000 C 
ATOM     23  C   UNL     1      10.514  13.392  18.312  0.00  0.00    +0.000 C 
ENDBRANCH  18  21
ENDBRANCH  14  15
ENDBRANCH   5  14
TORSDOF 6
ENDMDL
MODEL 3
REMARK VINA RESULT:      -6.6      2.065      3.186
REMARK  Name = 
REMARK  10 active torsions:
REMARK  status: ('A' for Active; 'I' for Inactive)
REMARK    1  A    between atoms: C_1  and  C_2
REMARK    2  A    between atoms: C_2  and  C_3
REMARK    3  A    between atoms: C_3  and  C_4
REMARK    4  A    between atoms: C_3  and  N_6
REMARK    5  A    between atoms: C_4  and  C_5
REMARK    6  A    between atoms: C_10  and  C_12
REMARK    7  A    between atoms: C_12  and  C_13
REMARK    8  A    between atoms: C_16  and  N_17
REMARK    9  A    between atoms: N_17  and  C_18
REMARK   10  A    between atoms: N_17  and  C_19
REMARK                            x       y       z     vdW  Elec       q    Type
REMARK                         _______ _______ _______ _____ _____    ______ ____
ROOT
ATOM      1  N   UNL     1       2.692   4.381  18.798  0.00  0.00    +0.000 NA
ATOM      2  C   UNL     1       1.692   4.588  19.883  0.00  0.00    +0.000 C 
ATOM      3  C   UNL     1       1.946   5.834  20.741  0.00  0.00    +0.000 C 
ATOM      4  N   UNL     1       1.973   7.036  19.909  0.00  0.00    +0.000 N 
ATOM      5  C   UNL     1       1.338   8.176  20.377  0.00  0.00    +0.000 C 
ATOM      6  O   UNL     1       0.733   8.186  21.453  0.00  0.00    +0.000 OA
ATOM      7  C   UNL     1       2.828   6.948  18.719  0.00  0.00    +0.000 C 
ATOM      8  C   UNL     1       2.663   5.607  17.965  0.00  0.00    +0.000 C 
ENDROOT
BRANCH   1   9
ATOM      9  C   UNL     1       4.033   3.976  19.309  0.00  0.00    +0.000 C 
BRANCH   9  11
ATOM     10  C   UNL     1       3.467   1.572  18.490  0.00  0.00    +0.000 C 
ATOM     11  C   UNL     1       4.040   2.446  19.598  0.00  0.00    +0.000 C 
ENDBRANCH   9  11
BRANCH   9  12
ATOM     12  C   UNL     1       5.222   4.378  18.393  0.00  0.00    +0.000 C 
ATOM     13  C   UNL     1       6.301   5.240  19.038  0.00  0.00    +0.000 C 
ENDBRANCH   9  12
ENDBRANCH   1   9
BRANCH   5  14
ATOM     14  C   UNL     1       1.364   9.437  19.525  0.00  0.00    +0.000 C 
BRANCH  14  15
ATOM     15  C   UNL     1       0.163  10.336  19.690  0.00  0.00    +0.000 A 
ATOM     16  C   UNL     1       0.071  11.286  20.705  0.00  0.00    +0.000 A 
ATOM     17  C   UNL     1      -1.049  12.133  20.803  0.00  0.00    +0.000 A 
ATOM     18  C   UNL     1      -2.105  12.100  19.876  0.00  0.00    +0.000 A 
ATOM     19  C   UNL     1      -1.974  11.156  18.847  0.00  0.00    +0.000 A 
ATOM     20  C   UNL     1      -0.868  10.296  18.753  0.00  0.00    +0.000 A 
BRANCH  18  21
ATOM     21  N   UNL     1      -3.226  12.911  20.026  0.00  0.00    +0.000 N 
ATOM     22  C   UNL     1      -4.558  12.400  19.698  0.00  0.00    +0.000 C 
ATOM     23  C   UNL     1      -3.232  14.039  20.954  0.00  0.00    +0.000 C 
ENDBRANCH  18  21
ENDBRANCH  14  15
ENDBRANCH   5  14
TORSDOF 6
ENDMDL
MODEL 4
REMARK VINA RESULT:      -6.6      2.671      3.807
REMARK  Name = 
REMARK  10 active torsions:
REMARK  status: ('A' for Active; 'I' for Inactive)
REMARK    1  A    between atoms: C_1  and  C_2
REMARK    2  A    between atoms: C_2  and  C_3
REMARK    3  A    between atoms: C_3  and  C_4
REMARK    4  A    between atoms: C_3  and  N_6
REMARK    5  A    between atoms: C_4  and  C_5
REMARK    6  A    between atoms: C_10  and  C_12
REMARK    7  A    between atoms: C_12  and  C_13
REMARK    8  A    between atoms: C_16  and  N_17
REMARK    9  A    between atoms: N_17  and  C_18
REMARK   10  A    between atoms: N_17  and  C_19
REMARK                            x       y       z     vdW  Elec       q    Type
REMARK                         _______ _______ _______ _____ _____    ______ ____
ROOT
ATOM      1  N   UNL     1       2.666   4.804  18.740  0.00  0.00    +0.000 NA
ATOM      2  C   UNL     1       1.770   5.045  19.906  0.00  0.00    +0.000 C 
ATOM      3  C   UNL     1       2.051   6.354  20.654  0.00  0.00    +0.000 C 
ATOM      4  N   UNL     1       1.941   7.498  19.750  0.00  0.00    +0.000 N 
ATOM      5  C   UNL     1       1.304   8.641  20.208  0.00  0.00    +0.000 C 
ATOM      6  O   UNL     1       0.808   8.700  21.337  0.00  0.00    +0.000 OA
ATOM      7  C   UNL     1       2.677   7.364  18.487  0.00  0.00    +0.000 C 
ATOM      8  C   UNL     1       2.499   5.970  17.839  0.00  0.00    +0.000 C 
ENDROOT
BRANCH   1   9
ATOM      9  C   UNL     1       4.068   4.488  19.137  0.00  0.00    +0.000 C 
BRANCH   9  11
ATOM     10  C   UNL     1       4.233   2.277  20.500  0.00  0.00    +0.000 C 
ATOM     11  C   UNL     1       4.274   2.944  19.131  0.00  0.00    +0.000 C 
ENDBRANCH   9  11
BRANCH   9  12
ATOM     12  C   UNL     1       5.157   5.199  18.286  0.00  0.00    +0.000 C 
ATOM     13  C   UNL     1       6.487   5.456  18.985  0.00  0.00    +0.000 C 
ENDBRANCH   9  12
ENDBRANCH   1   9
BRANCH   5  14
ATOM     14  C   UNL     1       1.188   9.843  19.280  0.00  0.00    +0.000 C 
BRANCH  14  15
ATOM     15  C   UNL     1      -0.226  10.287  18.996  0.00  0.00    +0.000 A 
ATOM     16  C   UNL     1      -0.869  11.269  19.748  0.00  0.00    +0.000 A 
ATOM     17  C   UNL     1      -2.175  11.684  19.427  0.00  0.00    +0.000 A 
ATOM     18  C   UNL     1      -2.882  11.173  18.325  0.00  0.00    +0.000 A 
ATOM     19  C   UNL     1      -2.201  10.209  17.567  0.00  0.00    +0.000 A 
ATOM     20  C   UNL     1      -0.905   9.777  17.891  0.00  0.00    +0.000 A 
BRANCH  18  21
ATOM     21  N   UNL     1      -4.192  11.561  18.061  0.00  0.00    +0.000 N 
ATOM     22  C   UNL     1      -4.950  12.329  19.051  0.00  0.00    +0.000 C 
ATOM     23  C   UNL     1      -4.684  11.702  16.694  0.00  0.00    +0.000 C 
ENDBRANCH  18  21
ENDBRANCH  14  15
ENDBRANCH   5  14
TORSDOF 6
ENDMDL
MODEL 5
REMARK VINA RESULT:      -6.6      2.647      3.760
REMARK  Name = 
REMARK  10 active torsions:
REMARK  status: ('A' for Active; 'I' for Inactive)
REMARK    1  A    between atoms: C_1  and  C_2
REMARK    2  A    between atoms: C_2  and  C_3
REMARK    3  A    between atoms: C_3  and  C_4
REMARK    4  A    between atoms: C_3  and  N_6
REMARK    5  A    between atoms: C_4  and  C_5
REMARK    6  A    between atoms: C_10  and  C_12
REMARK    7  A    between atoms: C_12  and  C_13
REMARK    8  A    between atoms: C_16  and  N_17
REMARK    9  A    between atoms: N_17  and  C_18
REMARK   10  A    between atoms: N_17  and  C_19
REMARK                            x       y       z     vdW  Elec       q    Type
REMARK                         _______ _______ _______ _____ _____    ______ ____
ROOT
ATOM      1  N   UNL     1       2.810   5.374  18.699  0.00  0.00    +0.000 NA
ATOM      2  C   UNL     1       1.890   5.603  19.848  0.00  0.00    +0.000 C 
ATOM      3  C   UNL     1       2.061   6.968  20.526  0.00  0.00    +0.000 C 
ATOM      4  N   UNL     1       1.866   8.050  19.563  0.00  0.00    +0.000 N 
ATOM      5  C   UNL     1       1.137   9.162  19.958  0.00  0.00    +0.000 C 
ATOM      6  O   UNL     1       0.631   9.239  21.082  0.00  0.00    +0.000 OA
ATOM      7  C   UNL     1       2.619   7.910  18.311  0.00  0.00    +0.000 C 
ATOM      8  C   UNL     1       2.558   6.474  17.737  0.00  0.00    +0.000 C 
ENDROOT
BRANCH   1   9
ATOM      9  C   UNL     1       4.230   5.191  19.115  0.00  0.00    +0.000 C 
BRANCH   9  11
ATOM     10  C   UNL     1       3.859   2.710  18.422  0.00  0.00    +0.000 C 
ATOM     11  C   UNL     1       4.498   3.684  19.403  0.00  0.00    +0.000 C 
ENDBRANCH   9  11
BRANCH   9  12
ATOM     12  C   UNL     1       5.275   5.763  18.117  0.00  0.00    +0.000 C 
ATOM     13  C   UNL     1       6.738   5.577  18.503  0.00  0.00    +0.000 C 
ENDBRANCH   9  12
ENDBRANCH   1   9
BRANCH   5  14
ATOM     14  C   UNL     1       0.933  10.300  18.969  0.00  0.00    +0.000 C 
BRANCH  14  15
ATOM     15  C   UNL     1      -0.507  10.695  18.749  0.00  0.00    +0.000 A 
ATOM     16  C   UNL     1      -1.337  10.033  17.846  0.00  0.00    +0.000 A 
ATOM     17  C   UNL     1      -2.686  10.405  17.699  0.00  0.00    +0.000 A 
ATOM     18  C   UNL     1      -3.278  11.423  18.466  0.00  0.00    +0.000 A 
ATOM     19  C   UNL     1      -2.430  12.054  19.388  0.00  0.00    +0.000 A 
ATOM     20  C   UNL     1      -1.078  11.699  19.529  0.00  0.00    +0.000 A 
BRANCH  18  21
ATOM     21  N   UNL     1      -4.600  11.809  18.262  0.00  0.00    +0.000 N 
ATOM     22  C   UNL     1      -5.309  12.588  19.278  0.00  0.00    +0.000 C 
ATOM     23  C   UNL     1      -5.158  11.933  16.918  0.00  0.00    +0.000 C 
ENDBRANCH  18  21
ENDBRANCH  14  15
ENDBRANCH   5  14
TORSDOF 6
ENDMDL
MODEL 6
REMARK VINA RESULT:      -6.6      5.372      7.556
REMARK  Name = 
REMARK  10 active torsions:
REMARK  status: ('A' for Active; 'I' for Inactive)
REMARK    1  A    between atoms: C_1  and  C_2
REMARK    2  A    between atoms: C_2  and  C_3
REMARK    3  A    between atoms: C_3  and  C_4
REMARK    4  A    between atoms: C_3  and  N_6
REMARK    5  A    between atoms: C_4  and  C_5
REMARK    6  A    between atoms: C_10  and  C_12
REMARK    7  A    between atoms: C_12  and  C_13
REMARK    8  A    between atoms: C_16  and  N_17
REMARK    9  A    between atoms: N_17  and  C_18
REMARK   10  A    between atoms: N_17  and  C_19
REMARK                            x       y       z     vdW  Elec       q    Type
REMARK                         _______ _______ _______ _____ _____    ______ ____
ROOT
ATOM      1  N   UNL     1       4.351   3.989  18.044  0.00  0.00    +0.000 NA
ATOM      2  C   UNL     1       5.186   4.160  16.822  0.00  0.00    +0.000 C 
ATOM      3  C   UNL     1       5.610   5.609  16.550  0.00  0.00    +0.000 C 
ATOM      4  N   UNL     1       6.350   6.152  17.688  0.00  0.00    +0.000 N 
ATOM      5  C   UNL     1       7.475   6.922  17.436  0.00  0.00    +0.000 C 
ATOM      6  O   UNL     1       7.876   7.128  16.287  0.00  0.00    +0.000 OA
ATOM      7  C   UNL     1       5.710   5.955  18.995  0.00  0.00    +0.000 C 
ATOM      8  C   UNL     1       5.149   4.524  19.173  0.00  0.00    +0.000 C 
ENDROOT
BRANCH   1   9
ATOM      9  C   UNL     1       2.979   4.552  17.897  0.00  0.00    +0.000 C 
BRANCH   9  11
ATOM     10  C   UNL     1       2.474   2.001  17.822  0.00  0.00    +0.000 C 
ATOM     11  C   UNL     1       1.984   3.412  17.528  0.00  0.00    +0.000 C 
ENDBRANCH   9  11
BRANCH   9  12
ATOM     12  C   UNL     1       2.475   5.357  19.128  0.00  0.00    +0.000 C 
ATOM     13  C   UNL     1       1.500   4.630  20.047  0.00  0.00    +0.000 C 
ENDBRANCH   9  12
ENDBRANCH   1   9
BRANCH   5  14
ATOM     14  C   UNL     1       8.250   7.501  18.611  0.00  0.00    +0.000 C 
BRANCH  14  15
ATOM     15  C   UNL     1       8.498   8.988  18.533  0.00  0.00    +0.000 A 
ATOM     16  C   UNL     1       9.467   9.629  19.302  0.00  0.00    +0.000 A 
ATOM     17  C   UNL     1       9.695  11.011  19.171  0.00  0.00    +0.000 A 
ATOM     18  C   UNL     1       8.999  11.808  18.246  0.00  0.00    +0.000 A 
ATOM     19  C   UNL     1       8.050  11.135  17.463  0.00  0.00    +0.000 A 
ATOM     20  C   UNL     1       7.805   9.758  17.600  0.00  0.00    +0.000 A 
BRANCH  18  21
ATOM     21  N   UNL     1       9.205  13.183  18.175  0.00  0.00    +0.000 N 
ATOM     22  C   UNL     1      10.459  13.717  17.640  0.00  0.00    +0.000 C 
ATOM     23  C   UNL     1       8.086  14.119  18.116  0.00  0.00    +0.000 C 
ENDBRANCH  18  21
ENDBRANCH  14  15
ENDBRANCH   5  14
TORSDOF 6
ENDMDL
MODEL 7
REMARK VINA RESULT:      -6.5      2.691      3.658
REMARK  Name = 
REMARK  10 active torsions:
REMARK  status: ('A' for Active; 'I' for Inactive)
REMARK    1  A    between atoms: C_1  and  C_2
REMARK    2  A    between atoms: C_2  and  C_3
REMARK    3  A    between atoms: C_3  and  C_4
REMARK    4  A    between atoms: C_3  and  N_6
REMARK    5  A    between atoms: C_4  and  C_5
REMARK    6  A    between atoms: C_10  and  C_12
REMARK    7  A    between atoms: C_12  and  C_13
REMARK    8  A    between atoms: C_16  and  N_17
REMARK    9  A    between atoms: N_17  and  C_18
REMARK   10  A    between atoms: N_17  and  C_19
REMARK                            x       y       z     vdW  Elec       q    Type
REMARK                         _______ _______ _______ _____ _____    ______ ____
ROOT
ATOM      1  N   UNL     1       2.743   5.312  19.847  0.00  0.00    +0.000 NA
ATOM      2  C   UNL     1       3.423   6.064  18.755  0.00  0.00    +0.000 C 
ATOM      3  C   UNL     1       2.505   7.024  17.988  0.00  0.00    +0.000 C 
ATOM      4  N   UNL     1       1.895   7.992  18.898  0.00  0.00    +0.000 N 
ATOM      5  C   UNL     1       1.808   9.315  18.492  0.00  0.00    +0.000 C 
ATOM      6  O   UNL     1       2.257   9.690  17.405  0.00  0.00    +0.000 OA
ATOM      7  C   UNL     1       1.280   7.413  20.100  0.00  0.00    +0.000 C 
ATOM      8  C   UNL     1       2.167   6.330  20.759  0.00  0.00    +0.000 C 
ENDROOT
BRANCH   1   9
ATOM      9  C   UNL     1       1.791   4.283  19.342  0.00  0.00    +0.000 C 
BRANCH   9  11
ATOM     10  C   UNL     1       3.721   2.601  18.874  0.00  0.00    +0.000 C 
ATOM     11  C   UNL     1       2.518   3.356  18.323  0.00  0.00    +0.000 C 
ENDBRANCH   9  11
BRANCH   9  12
ATOM     12  C   UNL     1       1.089   3.451  20.451  0.00  0.00    +0.000 C 
ATOM     13  C   UNL     1       1.955   3.063  21.645  0.00  0.00    +0.000 C 
ENDBRANCH   9  12
ENDBRANCH   1   9
BRANCH   5  14
ATOM     14  C   UNL     1       1.168  10.333  19.426  0.00  0.00    +0.000 C 
BRANCH  14  15
ATOM     15  C   UNL     1      -0.237  10.737  19.051  0.00  0.00    +0.000 A 
ATOM     16  C   UNL     1      -0.913  10.184  17.966  0.00  0.00    +0.000 A 
ATOM     17  C   UNL     1      -2.237  10.558  17.672  0.00  0.00    +0.000 A 
ATOM     18  C   UNL     1      -2.960  11.467  18.464  0.00  0.00    +0.000 A 
ATOM     19  C   UNL     1      -2.268  11.987  19.568  0.00  0.00    +0.000 A 
ATOM     20  C   UNL     1      -0.940  11.631  19.858  0.00  0.00    +0.000 A 
BRANCH  18  21
ATOM     21  N   UNL     1      -4.249  11.861  18.120  0.00  0.00    +0.000 N 
ATOM     22  C   UNL     1      -4.829  11.461  16.837  0.00  0.00    +0.000 C 
ATOM     23  C   UNL     1      -5.237  12.206  19.139  0.00  0.00    +0.000 C 
ENDBRANCH  18  21
ENDBRANCH  14  15
ENDBRANCH   5  14
TORSDOF 6
ENDMDL
MODEL 8
REMARK VINA RESULT:      -6.5      6.014      7.860
REMARK  Name = 
REMARK  10 active torsions:
REMARK  status: ('A' for Active; 'I' for Inactive)
REMARK    1  A    between atoms: C_1  and  C_2
REMARK    2  A    between atoms: C_2  and  C_3
REMARK    3  A    between atoms: C_3  and  C_4
REMARK    4  A    between atoms: C_3  and  N_6
REMARK    5  A    between atoms: C_4  and  C_5
REMARK    6  A    between atoms: C_10  and  C_12
REMARK    7  A    between atoms: C_12  and  C_13
REMARK    8  A    between atoms: C_16  and  N_17
REMARK    9  A    between atoms: N_17  and  C_18
REMARK   10  A    between atoms: N_17  and  C_19
REMARK                            x       y       z     vdW  Elec       q    Type
REMARK                         _______ _______ _______ _____ _____    ______ ____
ROOT
ATOM      1  N   UNL     1       5.654   4.416  17.280  0.00  0.00    +0.000 NA
ATOM      2  C   UNL     1       5.560   5.572  16.346  0.00  0.00    +0.000 C 
ATOM      3  C   UNL     1       5.599   6.941  17.037  0.00  0.00    +0.000 C 
ATOM      4  N   UNL     1       6.823   7.088  17.823  0.00  0.00    +0.000 N 
ATOM      5  C   UNL     1       7.491   8.302  17.783  0.00  0.00    +0.000 C 
ATOM      6  O   UNL     1       7.094   9.238  17.082  0.00  0.00    +0.000 OA
ATOM      7  C   UNL     1       7.125   5.962  18.716  0.00  0.00    +0.000 C 
ATOM      8  C   UNL     1       6.920   4.589  18.033  0.00  0.00    +0.000 C 
ENDROOT
BRANCH   1   9
ATOM      9  C   UNL     1       4.429   4.233  18.109  0.00  0.00    +0.000 C 
BRANCH   9  11
ATOM     10  C   UNL     1       1.868   4.460  17.705  0.00  0.00    +0.000 C 
ATOM     11  C   UNL     1       3.208   3.961  17.181  0.00  0.00    +0.000 C 
ENDBRANCH   9  11
BRANCH   9  12
ATOM     12  C   UNL     1       4.548   3.141  19.209  0.00  0.00    +0.000 C 
ATOM     13  C   UNL     1       3.831   1.826  18.925  0.00  0.00    +0.000 C 
ENDBRANCH   9  12
ENDBRANCH   1   9
BRANCH   5  14
ATOM     14  C   UNL     1       8.762   8.472  18.603  0.00  0.00    +0.000 C 
BRANCH  14  15
ATOM     15  C   UNL     1       9.132   9.904  18.904  0.00  0.00    +0.000 A 
ATOM     16  C   UNL     1       9.242  10.393  20.204  0.00  0.00    +0.000 A 
ATOM     17  C   UNL     1       9.629  11.724  20.445  0.00  0.00    +0.000 A 
ATOM     18  C   UNL     1       9.959  12.615  19.409  0.00  0.00    +0.000 A 
ATOM     19  C   UNL     1       9.870  12.090  18.112  0.00  0.00    +0.000 A 
ATOM     20  C   UNL     1       9.469  10.767  17.862  0.00  0.00    +0.000 A 
BRANCH  18  21
ATOM     21  N   UNL     1      10.286  13.942  19.672  0.00  0.00    +0.000 N 
ATOM     22  C   UNL     1      10.396  14.419  21.051  0.00  0.00    +0.000 C 
ATOM     23  C   UNL     1      11.016  14.753  18.701  0.00  0.00    +0.000 C 
ENDBRANCH  18  21
ENDBRANCH  14  15
ENDBRANCH   5  14
TORSDOF 6
ENDMDL
MODEL 9
REMARK VINA RESULT:      -6.5      0.861      1.136
REMARK  Name = 
REMARK  10 active torsions:
REMARK  status: ('A' for Active; 'I' for Inactive)
REMARK    1  A    between atoms: C_1  and  C_2
REMARK    2  A    between atoms: C_2  and  C_3
REMARK    3  A    between atoms: C_3  and  C_4
REMARK    4  A    between atoms: C_3  and  N_6
REMARK    5  A    between atoms: C_4  and  C_5
REMARK    6  A    between atoms: C_10  and  C_12
REMARK    7  A    between atoms: C_12  and  C_13
REMARK    8  A    between atoms: C_16  and  N_17
REMARK    9  A    between atoms: N_17  and  C_18
REMARK   10  A    between atoms: N_17  and  C_19
REMARK                            x       y       z     vdW  Elec       q    Type
REMARK                         _______ _______ _______ _____ _____    ______ ____
ROOT
ATOM      1  N   UNL     1       4.290   5.511  18.196  0.00  0.00    +0.000 NA
ATOM      2  C   UNL     1       4.103   6.911  17.721  0.00  0.00    +0.000 C 
ATOM      3  C   UNL     1       2.682   7.454  17.915  0.00  0.00    +0.000 C 
ATOM      4  N   UNL     1       2.293   7.394  19.323  0.00  0.00    +0.000 N 
ATOM      5  C   UNL     1       1.611   8.472  19.866  0.00  0.00    +0.000 C 
ATOM      6  O   UNL     1       1.356   9.480  19.200  0.00  0.00    +0.000 OA
ATOM      7  C   UNL     1       2.530   6.100  19.976  0.00  0.00    +0.000 C 
ATOM      8  C   UNL     1       3.915   5.503  19.630  0.00  0.00    +0.000 C 
ENDROOT
BRANCH   1   9
ATOM      9  C   UNL     1       3.597   4.507  17.339  0.00  0.00    +0.000 C 
BRANCH   9  11
ATOM     10  C   UNL     1       5.315   4.419  15.386  0.00  0.00    +0.000 C 
ATOM     11  C   UNL     1       4.652   3.683  16.543  0.00  0.00    +0.000 C 
ENDBRANCH   9  11
BRANCH   9  12
ATOM     12  C   UNL     1       2.618   3.572  18.102  0.00  0.00    +0.000 C 
ATOM     13  C   UNL     1       2.751   2.082  17.807  0.00  0.00    +0.000 C 
ENDBRANCH   9  12
ENDBRANCH   1   9
BRANCH   5  14
ATOM     14  C   UNL     1       1.193   8.419  21.328  0.00  0.00    +0.000 C 
BRANCH  14  15
ATOM     15  C   UNL     1       0.421   9.623  21.808  0.00  0.00    +0.000 A 
ATOM     16  C   UNL     1       0.547  10.879  21.218  0.00  0.00    +0.000 A 
ATOM     17  C   UNL     1      -0.220  11.970  21.668  0.00  0.00    +0.000 A 
ATOM     18  C   UNL     1      -1.171  11.852  22.696  0.00  0.00    +0.000 A 
ATOM     19  C   UNL     1      -1.301  10.571  23.254  0.00  0.00    +0.000 A 
ATOM     20  C   UNL     1      -0.527   9.482  22.821  0.00  0.00    +0.000 A 
BRANCH  18  21
ATOM     21  N   UNL     1      -1.878  12.957  23.160  0.00  0.00    +0.000 N 
ATOM     22  C   UNL     1      -3.250  12.808  23.648  0.00  0.00    +0.000 C 
ATOM     23  C   UNL     1      -1.191  14.143  23.666  0.00  0.00    +0.000 C 
ENDBRANCH  18  21
ENDBRANCH  14  15
ENDBRANCH   5  14
TORSDOF 6
ENDMDL
