MODEL 1
REMARK VINA RESULT:      -7.3      0.000      0.000
REMARK  Name = 
REMARK  5 active torsions:
REMARK  status: ('A' for Active; 'I' for Inactive)
REMARK    1  A    between atoms: C_1  and  O_2
REMARK    2  A    between atoms: O_2  and  C_3
REMARK    3  A    between atoms: C_3  and  C_5
REMARK    4  A    between atoms: N_7  and  C_8
REMARK    5  A    between atoms: C_16  and  C_17
REMARK                            x       y       z     vdW  Elec       q    Type
REMARK                         _______ _______ _______ _____ _____    ______ ____
ROOT
ATOM      1  C   UNL     1       5.225   5.957  16.851  0.00  0.00    +0.000 A 
ATOM      2  C   UNL     1       4.822   4.954  17.703  0.00  0.00    +0.000 A 
ATOM      3  N   UNL     1       3.732   5.420  18.405  0.00  0.00    +0.000 N 
ATOM      4  C   UNL     1       3.520   6.738  17.959  0.00  0.00    +0.000 A 
ATOM      5  N   UNL     1       4.386   7.040  17.001  0.00  0.00    +0.000 NA
ENDROOT
BRANCH   3   6
ATOM      6  C   UNL     1       2.959   4.649  19.330  0.00  0.00    +0.000 A 
ATOM      7  C   UNL     1       3.462   4.449  20.630  0.00  0.00    +0.000 A 
ATOM      8  C   UNL     1       2.786   3.637  21.544  0.00  0.00    +0.000 A 
ATOM      9  C   UNL     1       1.565   3.073  21.194  0.00  0.00    +0.000 A 
ATOM     10 CL   UNL     1       0.728   2.080  22.320  0.00  0.00    +0.000 Cl
ATOM     11  C   UNL     1       1.027   3.295  19.930  0.00  0.00    +0.000 A 
ATOM     12  C   UNL     1       1.724   4.065  18.989  0.00  0.00    +0.000 A 
ATOM     13 CL   UNL     1       1.038   4.076  17.399  0.00  0.00    +0.000 Cl
ENDBRANCH   3   6
BRANCH   4  14
ATOM     14  C   UNL     1       2.537   7.713  18.471  0.00  0.00    +0.000 A 
ATOM     15  C   UNL     1       1.950   8.693  17.655  0.00  0.00    +0.000 A 
ATOM     16  C   UNL     1       1.088   9.656  18.189  0.00  0.00    +0.000 A 
ATOM     17  C   UNL     1       0.737   9.598  19.533  0.00  0.00    +0.000 A 
ATOM     18 BR   UNL     1      -0.457  10.880  20.242  0.00  0.00    +0.000 Br
ATOM     19  C   UNL     1       1.246   8.591  20.349  0.00  0.00    +0.000 A 
ATOM     20  C   UNL     1       2.150   7.660  19.819  0.00  0.00    +0.000 A 
ENDBRANCH   4  14
BRANCH   1  21
ATOM     21  C   UNL     1       6.357   5.891  15.918  0.00  0.00    +0.000 C 
ATOM     22  O   UNL     1       7.506   6.179  16.243  0.00  0.00    +0.000 OA
BRANCH  21  24
ATOM     23  C   UNL     1       6.294   4.128  14.372  0.00  0.00    +0.000 C 
ATOM     24  O   UNL     1       5.982   5.487  14.675  0.00  0.00    +0.000 OA
ENDBRANCH  21  24
ENDBRANCH   1  21
TORSDOF 4
ENDMDL
MODEL 2
REMARK VINA RESULT:      -7.3      0.649      1.174
REMARK  Name = 
REMARK  5 active torsions:
REMARK  status: ('A' for Active; 'I' for Inactive)
REMARK    1  A    between atoms: C_1  and  O_2
REMARK    2  A    between atoms: O_2  and  C_3
REMARK    3  A    between atoms: C_3  and  C_5
REMARK    4  A    between atoms: N_7  and  C_8
REMARK    5  A    between atoms: C_16  and  C_17
REMARK                            x       y       z     vdW  Elec       q    Type
REMARK                         _______ _______ _______ _____ _____    ______ ____
ROOT
ATOM      1  C   UNL     1       5.409   5.268  16.752  0.00  0.00    +0.000 A 
ATOM      2  C   UNL     1       4.938   4.334  17.646  0.00  0.00    +0.000 A 
ATOM      3  N   UNL     1       3.907   4.917  18.350  0.00  0.00    +0.000 N 
ATOM      4  C   UNL     1       3.801   6.232  17.860  0.00  0.00    +0.000 A 
ATOM      5  N   UNL     1       4.670   6.425  16.877  0.00  0.00    +0.000 NA
ENDROOT
BRANCH   3   6
ATOM      6  C   UNL     1       3.090   4.249  19.315  0.00  0.00    +0.000 A 
ATOM      7  C   UNL     1       3.646   3.935  20.571  0.00  0.00    +0.000 A 
ATOM      8  C   UNL     1       2.916   3.211  21.518  0.00  0.00    +0.000 A 
ATOM      9  C   UNL     1       1.600   2.854  21.249  0.00  0.00    +0.000 A 
ATOM     10 CL   UNL     1       0.699   1.970  22.415  0.00  0.00    +0.000 Cl
ATOM     11  C   UNL     1       1.016   3.194  20.033  0.00  0.00    +0.000 A 
ATOM     12  C   UNL     1       1.757   3.873  19.056  0.00  0.00    +0.000 A 
ATOM     13 CL   UNL     1       0.971   4.037  17.522  0.00  0.00    +0.000 Cl
ENDBRANCH   3   6
BRANCH   4  14
ATOM     14  C   UNL     1       2.916   7.306  18.354  0.00  0.00    +0.000 A 
ATOM     15  C   UNL     1       2.406   7.323  19.661  0.00  0.00    +0.000 A 
ATOM     16  C   UNL     1       1.502   8.309  20.071  0.00  0.00    +0.000 A 
ATOM     17  C   UNL     1       1.163   9.339  19.201  0.00  0.00    +0.000 A 
ATOM     18 BR   UNL     1      -0.031  10.688  19.772  0.00  0.00    +0.000 Br
ATOM     19  C   UNL     1       1.713   9.387  17.923  0.00  0.00    +0.000 A 
ATOM     20  C   UNL     1       2.578   8.368  17.501  0.00  0.00    +0.000 A 
ENDBRANCH   4  14
BRANCH   1  21
ATOM     21  C   UNL     1       6.511   5.072  15.802  0.00  0.00    +0.000 C 
ATOM     22  O   UNL     1       7.387   5.913  15.614  0.00  0.00    +0.000 OA
BRANCH  21  24
ATOM     23  C   UNL     1       6.233   3.961  13.755  0.00  0.00    +0.000 C 
ATOM     24  O   UNL     1       6.440   3.873  15.164  0.00  0.00    +0.000 OA
ENDBRANCH  21  24
ENDBRANCH   1  21
TORSDOF 4
ENDMDL
MODEL 3
REMARK VINA RESULT:      -7.1      0.504      1.505
REMARK  Name = 
REMARK  5 active torsions:
REMARK  status: ('A' for Active; 'I' for Inactive)
REMARK    1  A    between atoms: C_1  and  O_2
REMARK    2  A    between atoms: O_2  and  C_3
REMARK    3  A    between atoms: C_3  and  C_5
REMARK    4  A    between atoms: N_7  and  C_8
REMARK    5  A    between atoms: C_16  and  C_17
REMARK                            x       y       z     vdW  Elec       q    Type
REMARK                         _______ _______ _______ _____ _____    ______ ____
ROOT
ATOM      1  C   UNL     1       5.144   6.010  16.861  0.00  0.00    +0.000 A 
ATOM      2  C   UNL     1       4.746   5.000  17.707  0.00  0.00    +0.000 A 
ATOM      3  N   UNL     1       3.671   5.466  18.431  0.00  0.00    +0.000 N 
ATOM      4  C   UNL     1       3.463   6.791  18.005  0.00  0.00    +0.000 A 
ATOM      5  N   UNL     1       4.317   7.099  17.038  0.00  0.00    +0.000 NA
ENDROOT
BRANCH   3   6
ATOM      6  C   UNL     1       2.906   4.691  19.359  0.00  0.00    +0.000 A 
ATOM      7  C   UNL     1       3.396   4.526  20.669  0.00  0.00    +0.000 A 
ATOM      8  C   UNL     1       2.729   3.711  21.588  0.00  0.00    +0.000 A 
ATOM      9  C   UNL     1       1.529   3.109  21.231  0.00  0.00    +0.000 A 
ATOM     10 CL   UNL     1       0.703   2.113  22.362  0.00  0.00    +0.000 Cl
ATOM     11  C   UNL     1       1.003   3.295  19.957  0.00  0.00    +0.000 A 
ATOM     12  C   UNL     1       1.691   4.067  19.012  0.00  0.00    +0.000 A 
ATOM     13 CL   UNL     1       1.028   4.033  17.413  0.00  0.00    +0.000 Cl
ENDBRANCH   3   6
BRANCH   4  14
ATOM     14  C   UNL     1       2.497   7.768  18.545  0.00  0.00    +0.000 A 
ATOM     15  C   UNL     1       2.093   7.769  19.889  0.00  0.00    +0.000 A 
ATOM     16  C   UNL     1       1.112   8.652  20.349  0.00  0.00    +0.000 A 
ATOM     17  C   UNL     1       0.582   9.605  19.485  0.00  0.00    +0.000 A 
ATOM     18 BR   UNL     1      -0.718  10.820  20.121  0.00  0.00    +0.000 Br
ATOM     19  C   UNL     1       1.019   9.675  18.165  0.00  0.00    +0.000 A 
ATOM     20  C   UNL     1       1.965   8.753  17.697  0.00  0.00    +0.000 A 
ENDBRANCH   4  14
BRANCH   1  21
ATOM     21  C   UNL     1       6.260   5.946  15.909  0.00  0.00    +0.000 C 
ATOM     22  O   UNL     1       6.101   5.742  14.708  0.00  0.00    +0.000 OA
BRANCH  21  24
ATOM     23  C   UNL     1       7.547   7.292  17.335  0.00  0.00    +0.000 C 
ATOM     24  O   UNL     1       7.466   6.130  16.511  0.00  0.00    +0.000 OA
ENDBRANCH  21  24
ENDBRANCH   1  21
TORSDOF 4
ENDMDL
MODEL 4
REMARK VINA RESULT:      -6.9      0.623      1.158
REMARK  Name = 
REMARK  5 active torsions:
REMARK  status: ('A' for Active; 'I' for Inactive)
REMARK    1  A    between atoms: C_1  and  O_2
REMARK    2  A    between atoms: O_2  and  C_3
REMARK    3  A    between atoms: C_3  and  C_5
REMARK    4  A    between atoms: N_7  and  C_8
REMARK    5  A    between atoms: C_16  and  C_17
REMARK                            x       y       z     vdW  Elec       q    Type
REMARK                         _______ _______ _______ _____ _____    ______ ____
ROOT
ATOM      1  C   UNL     1       5.418   5.728  17.032  0.00  0.00    +0.000 A 
ATOM      2  C   UNL     1       4.961   4.751  17.886  0.00  0.00    +0.000 A 
ATOM      3  N   UNL     1       3.843   5.246  18.521  0.00  0.00    +0.000 N 
ATOM      4  C   UNL     1       3.670   6.555  18.034  0.00  0.00    +0.000 A 
ATOM      5  N   UNL     1       4.586   6.824  17.114  0.00  0.00    +0.000 NA
ENDROOT
BRANCH   3   6
ATOM      6  C   UNL     1       3.016   4.506  19.424  0.00  0.00    +0.000 A 
ATOM      7  C   UNL     1       3.486   4.265  20.729  0.00  0.00    +0.000 A 
ATOM      8  C   UNL     1       2.752   3.479  21.622  0.00  0.00    +0.000 A 
ATOM      9  C   UNL     1       1.510   2.984  21.246  0.00  0.00    +0.000 A 
ATOM     10 CL   UNL     1       0.603   2.024  22.346  0.00  0.00    +0.000 Cl
ATOM     11  C   UNL     1       1.005   3.249  19.977  0.00  0.00    +0.000 A 
ATOM     12  C   UNL     1       1.757   3.992  19.056  0.00  0.00    +0.000 A 
ATOM     13 CL   UNL     1       1.099   4.057  17.456  0.00  0.00    +0.000 Cl
ENDBRANCH   3   6
BRANCH   4  14
ATOM     14  C   UNL     1       2.675   7.553  18.473  0.00  0.00    +0.000 A 
ATOM     15  C   UNL     1       2.136   8.515  17.604  0.00  0.00    +0.000 A 
ATOM     16  C   UNL     1       1.261   9.501  18.072  0.00  0.00    +0.000 A 
ATOM     17  C   UNL     1       0.847   9.483  19.399  0.00  0.00    +0.000 A 
ATOM     18 BR   UNL     1      -0.364  10.796  20.016  0.00  0.00    +0.000 Br
ATOM     19  C   UNL     1       1.309   8.495  20.265  0.00  0.00    +0.000 A 
ATOM     20  C   UNL     1       2.226   7.541  19.803  0.00  0.00    +0.000 A 
ENDBRANCH   4  14
BRANCH   1  21
ATOM     21  C   UNL     1       6.594   5.627  16.158  0.00  0.00    +0.000 C 
ATOM     22  O   UNL     1       6.771   4.690  15.384  0.00  0.00    +0.000 OA
BRANCH  21  24
ATOM     23  C   UNL     1       7.706   7.031  17.673  0.00  0.00    +0.000 C 
ATOM     24  O   UNL     1       7.449   6.673  16.315  0.00  0.00    +0.000 OA
ENDBRANCH  21  24
ENDBRANCH   1  21
TORSDOF 4
ENDMDL
MODEL 5
REMARK VINA RESULT:      -6.6      0.974      1.632
REMARK  Name = 
REMARK  5 active torsions:
REMARK  status: ('A' for Active; 'I' for Inactive)
REMARK    1  A    between atoms: C_1  and  O_2
REMARK    2  A    between atoms: O_2  and  C_3
REMARK    3  A    between atoms: C_3  and  C_5
REMARK    4  A    between atoms: N_7  and  C_8
REMARK    5  A    between atoms: C_16  and  C_17
REMARK                            x       y       z     vdW  Elec       q    Type
REMARK                         _______ _______ _______ _____ _____    ______ ____
ROOT
ATOM      1  C   UNL     1       5.250   4.821  16.556  0.00  0.00    +0.000 A 
ATOM      2  C   UNL     1       4.781   3.929  17.494  0.00  0.00    +0.000 A 
ATOM      3  N   UNL     1       3.830   4.582  18.247  0.00  0.00    +0.000 N 
ATOM      4  C   UNL     1       3.772   5.895  17.743  0.00  0.00    +0.000 A 
ATOM      5  N   UNL     1       4.590   6.022  16.706  0.00  0.00    +0.000 NA
ENDROOT
BRANCH   3   6
ATOM      6  C   UNL     1       3.036   3.977  19.272  0.00  0.00    +0.000 A 
ATOM      7  C   UNL     1       3.652   3.627  20.488  0.00  0.00    +0.000 A 
ATOM      8  C   UNL     1       2.939   2.959  21.488  0.00  0.00    +0.000 A 
ATOM      9  C   UNL     1       1.586   2.699  21.313  0.00  0.00    +0.000 A 
ATOM     10 CL   UNL     1       0.705   1.886  22.545  0.00  0.00    +0.000 Cl
ATOM     11  C   UNL     1       0.945   3.078  20.137  0.00  0.00    +0.000 A 
ATOM     12  C   UNL     1       1.664   3.700  19.107  0.00  0.00    +0.000 A 
ATOM     13 CL   UNL     1       0.788   3.917  17.630  0.00  0.00    +0.000 Cl
ENDBRANCH   3   6
BRANCH   4  14
ATOM     14  C   UNL     1       2.985   7.027  18.270  0.00  0.00    +0.000 A 
ATOM     15  C   UNL     1       2.527   7.075  19.596  0.00  0.00    +0.000 A 
ATOM     16  C   UNL     1       1.710   8.120  20.040  0.00  0.00    +0.000 A 
ATOM     17  C   UNL     1       1.412   9.174  19.184  0.00  0.00    +0.000 A 
ATOM     18 BR   UNL     1       0.337  10.601  19.800  0.00  0.00    +0.000 Br
ATOM     19  C   UNL     1       1.914   9.188  17.885  0.00  0.00    +0.000 A 
ATOM     20  C   UNL     1       2.690   8.112  17.430  0.00  0.00    +0.000 A 
ENDBRANCH   4  14
BRANCH   1  21
ATOM     21  C   UNL     1       6.279   4.546  15.545  0.00  0.00    +0.000 C 
ATOM     22  O   UNL     1       6.017   4.372  14.358  0.00  0.00    +0.000 OA
BRANCH  21  24
ATOM     23  C   UNL     1       7.592   4.788  17.474  0.00  0.00    +0.000 C 
ATOM     24  O   UNL     1       7.530   4.501  16.077  0.00  0.00    +0.000 OA
ENDBRANCH  21  24
ENDBRANCH   1  21
TORSDOF 4
ENDMDL
MODEL 6
REMARK VINA RESULT:      -6.4      5.601      7.868
REMARK  Name = 
REMARK  5 active torsions:
REMARK  status: ('A' for Active; 'I' for Inactive)
REMARK    1  A    between atoms: C_1  and  O_2
REMARK    2  A    between atoms: O_2  and  C_3
REMARK    3  A    between atoms: C_3  and  C_5
REMARK    4  A    between atoms: N_7  and  C_8
REMARK    5  A    between atoms: C_16  and  C_17
REMARK                            x       y       z     vdW  Elec       q    Type
REMARK                         _______ _______ _______ _____ _____    ______ ____
ROOT
ATOM      1  C   UNL     1      -2.235  11.654  18.838  0.00  0.00    +0.000 A 
ATOM      2  C   UNL     1      -1.622  10.427  18.724  0.00  0.00    +0.000 A 
ATOM      3  N   UNL     1      -0.276  10.614  18.953  0.00  0.00    +0.000 N 
ATOM      4  C   UNL     1      -0.110  11.993  19.179  0.00  0.00    +0.000 A 
ATOM      5  N   UNL     1      -1.287  12.605  19.152  0.00  0.00    +0.000 NA
ENDROOT
BRANCH   3   6
ATOM      6  C   UNL     1       0.699   9.569  19.015  0.00  0.00    +0.000 A 
ATOM      7  C   UNL     1       1.422   9.248  17.851  0.00  0.00    +0.000 A 
ATOM      8  C   UNL     1       2.327   8.182  17.838  0.00  0.00    +0.000 A 
ATOM      9  C   UNL     1       2.571   7.472  19.007  0.00  0.00    +0.000 A 
ATOM     10 CL   UNL     1       3.689   6.166  18.996  0.00  0.00    +0.000 Cl
ATOM     11  C   UNL     1       1.902   7.802  20.181  0.00  0.00    +0.000 A 
ATOM     12  C   UNL     1       0.954   8.834  20.190  0.00  0.00    +0.000 A 
ATOM     13 CL   UNL     1       0.052   8.988  21.660  0.00  0.00    +0.000 Cl
ENDBRANCH   3   6
BRANCH   4  14
ATOM     14  C   UNL     1       1.156  12.727  19.371  0.00  0.00    +0.000 A 
ATOM     15  C   UNL     1       1.669  13.028  20.642  0.00  0.00    +0.000 A 
ATOM     16  C   UNL     1       2.827  13.799  20.790  0.00  0.00    +0.000 A 
ATOM     17  C   UNL     1       3.532  14.206  19.664  0.00  0.00    +0.000 A 
ATOM     18 BR   UNL     1       5.115  15.218  19.870  0.00  0.00    +0.000 Br
ATOM     19  C   UNL     1       3.086  13.858  18.392  0.00  0.00    +0.000 A 
ATOM     20  C   UNL     1       1.897  13.129  18.249  0.00  0.00    +0.000 A 
ENDBRANCH   4  14
BRANCH   1  21
ATOM     21  C   UNL     1      -3.669  11.920  18.667  0.00  0.00    +0.000 C 
ATOM     22  O   UNL     1      -4.360  12.437  19.542  0.00  0.00    +0.000 OA
BRANCH  21  24
ATOM     23  C   UNL     1      -5.398  12.067  17.089  0.00  0.00    +0.000 C 
ATOM     24  O   UNL     1      -4.129  11.524  17.450  0.00  0.00    +0.000 OA
ENDBRANCH  21  24
ENDBRANCH   1  21
TORSDOF 4
ENDMDL
MODEL 7
REMARK VINA RESULT:      -6.4      3.734      5.884
REMARK  Name = 
REMARK  5 active torsions:
REMARK  status: ('A' for Active; 'I' for Inactive)
REMARK    1  A    between atoms: C_1  and  O_2
REMARK    2  A    between atoms: O_2  and  C_3
REMARK    3  A    between atoms: C_3  and  C_5
REMARK    4  A    between atoms: N_7  and  C_8
REMARK    5  A    between atoms: C_16  and  C_17
REMARK                            x       y       z     vdW  Elec       q    Type
REMARK                         _______ _______ _______ _____ _____    ______ ____
ROOT
ATOM      1  C   UNL     1       6.107   4.243  14.041  0.00  0.00    +0.000 A 
ATOM      2  C   UNL     1       6.874   5.250  14.583  0.00  0.00    +0.000 A 
ATOM      3  N   UNL     1       6.422   5.470  15.865  0.00  0.00    +0.000 N 
ATOM      4  C   UNL     1       5.348   4.581  16.055  0.00  0.00    +0.000 A 
ATOM      5  N   UNL     1       5.190   3.820  14.980  0.00  0.00    +0.000 NA
ENDROOT
BRANCH   3   6
ATOM      6  C   UNL     1       7.013   6.377  16.801  0.00  0.00    +0.000 A 
ATOM      7  C   UNL     1       6.900   7.761  16.566  0.00  0.00    +0.000 A 
ATOM      8  C   UNL     1       7.530   8.685  17.405  0.00  0.00    +0.000 A 
ATOM      9  C   UNL     1       8.220   8.240  18.526  0.00  0.00    +0.000 A 
ATOM     10 CL   UNL     1       8.987   9.375  19.563  0.00  0.00    +0.000 Cl
ATOM     11  C   UNL     1       8.304   6.879  18.803  0.00  0.00    +0.000 A 
ATOM     12  C   UNL     1       7.722   5.943  17.939  0.00  0.00    +0.000 A 
ATOM     13 CL   UNL     1       8.091   4.289  18.293  0.00  0.00    +0.000 Cl
ENDBRANCH   3   6
BRANCH   4  14
ATOM     14  C   UNL     1       4.453   4.488  17.225  0.00  0.00    +0.000 A 
ATOM     15  C   UNL     1       4.410   3.357  18.056  0.00  0.00    +0.000 A 
ATOM     16  C   UNL     1       3.490   3.266  19.105  0.00  0.00    +0.000 A 
ATOM     17  C   UNL     1       2.658   4.343  19.389  0.00  0.00    +0.000 A 
ATOM     18 BR   UNL     1       1.442   4.228  20.830  0.00  0.00    +0.000 Br
ATOM     19  C   UNL     1       2.731   5.506  18.627  0.00  0.00    +0.000 A 
ATOM     20  C   UNL     1       3.620   5.571  17.544  0.00  0.00    +0.000 A 
ENDBRANCH   4  14
BRANCH   1  21
ATOM     21  C   UNL     1       6.242   3.691  12.688  0.00  0.00    +0.000 C 
ATOM     22  O   UNL     1       7.116   4.054  11.904  0.00  0.00    +0.000 OA
BRANCH  21  24
ATOM     23  C   UNL     1       4.422   3.090  11.337  0.00  0.00    +0.000 C 
ATOM     24  O   UNL     1       5.297   2.753  12.412  0.00  0.00    +0.000 OA
ENDBRANCH  21  24
ENDBRANCH   1  21
TORSDOF 4
ENDMDL
MODEL 8
REMARK VINA RESULT:      -6.3      1.342      1.865
REMARK  Name = 
REMARK  5 active torsions:
REMARK  status: ('A' for Active; 'I' for Inactive)
REMARK    1  A    between atoms: C_1  and  O_2
REMARK    2  A    between atoms: O_2  and  C_3
REMARK    3  A    between atoms: C_3  and  C_5
REMARK    4  A    between atoms: N_7  and  C_8
REMARK    5  A    between atoms: C_16  and  C_17
REMARK                            x       y       z     vdW  Elec       q    Type
REMARK                         _______ _______ _______ _____ _____    ______ ____
ROOT
ATOM      1  C   UNL     1       5.022   5.223  16.351  0.00  0.00    +0.000 A 
ATOM      2  C   UNL     1       4.649   4.253  17.255  0.00  0.00    +0.000 A 
ATOM      3  N   UNL     1       3.733   4.819  18.114  0.00  0.00    +0.000 N 
ATOM      4  C   UNL     1       3.596   6.158  17.706  0.00  0.00    +0.000 A 
ATOM      5  N   UNL     1       4.334   6.385  16.628  0.00  0.00    +0.000 NA
ENDROOT
BRANCH   3   6
ATOM      6  C   UNL     1       3.032   4.117  19.146  0.00  0.00    +0.000 A 
ATOM      7  C   UNL     1       1.651   4.343  19.300  0.00  0.00    +0.000 A 
ATOM      8  C   UNL     1       0.938   3.745  20.344  0.00  0.00    +0.000 A 
ATOM      9  C   UNL     1       1.582   2.862  21.201  0.00  0.00    +0.000 A 
ATOM     10 CL   UNL     1       0.706   2.119  22.479  0.00  0.00    +0.000 Cl
ATOM     11  C   UNL     1       2.937   2.588  21.038  0.00  0.00    +0.000 A 
ATOM     12  C   UNL     1       3.671   3.223  20.028  0.00  0.00    +0.000 A 
ATOM     13 CL   UNL     1       5.380   2.951  20.082  0.00  0.00    +0.000 Cl
ENDBRANCH   3   6
BRANCH   4  14
ATOM     14  C   UNL     1       2.809   7.222  18.362  0.00  0.00    +0.000 A 
ATOM     15  C   UNL     1       2.503   7.199  19.731  0.00  0.00    +0.000 A 
ATOM     16  C   UNL     1       1.683   8.177  20.304  0.00  0.00    +0.000 A 
ATOM     17  C   UNL     1       1.229   9.238  19.529  0.00  0.00    +0.000 A 
ATOM     18 BR   UNL     1       0.152  10.576  20.317  0.00  0.00    +0.000 Br
ATOM     19  C   UNL     1       1.580   9.325  18.184  0.00  0.00    +0.000 A 
ATOM     20  C   UNL     1       2.359   8.314  17.604  0.00  0.00    +0.000 A 
ENDBRANCH   4  14
BRANCH   1  21
ATOM     21  C   UNL     1       5.986   5.055  15.257  0.00  0.00    +0.000 C 
ATOM     22  O   UNL     1       7.065   5.643  15.223  0.00  0.00    +0.000 OA
BRANCH  21  24
ATOM     23  C   UNL     1       6.451   3.989  13.220  0.00  0.00    +0.000 C 
ATOM     24  O   UNL     1       5.544   4.192  14.303  0.00  0.00    +0.000 OA
ENDBRANCH  21  24
ENDBRANCH   1  21
TORSDOF 4
ENDMDL
MODEL 9
REMARK VINA RESULT:      -6.3      5.520      7.774
REMARK  Name = 
REMARK  5 active torsions:
REMARK  status: ('A' for Active; 'I' for Inactive)
REMARK    1  A    between atoms: C_1  and  O_2
REMARK    2  A    between atoms: O_2  and  C_3
REMARK    3  A    between atoms: C_3  and  C_5
REMARK    4  A    between atoms: N_7  and  C_8
REMARK    5  A    between atoms: C_16  and  C_17
REMARK                            x       y       z     vdW  Elec       q    Type
REMARK                         _______ _______ _______ _____ _____    ______ ____
ROOT
ATOM      1  C   UNL     1      -2.332  11.407  18.196  0.00  0.00    +0.000 A 
ATOM      2  C   UNL     1      -1.662  10.205  18.214  0.00  0.00    +0.000 A 
ATOM      3  N   UNL     1      -0.377  10.454  18.642  0.00  0.00    +0.000 N 
ATOM      4  C   UNL     1      -0.301  11.844  18.850  0.00  0.00    +0.000 A 
ATOM      5  N   UNL     1      -1.482  12.404  18.624  0.00  0.00    +0.000 NA
ENDROOT
BRANCH   3   6
ATOM      6  C   UNL     1       0.617   9.453  18.885  0.00  0.00    +0.000 A 
ATOM      7  C   UNL     1       1.424   9.027  17.813  0.00  0.00    +0.000 A 
ATOM      8  C   UNL     1       2.352   7.995  17.979  0.00  0.00    +0.000 A 
ATOM      9  C   UNL     1       2.533   7.427  19.234  0.00  0.00    +0.000 A 
ATOM     10 CL   UNL     1       3.680   6.164  19.443  0.00  0.00    +0.000 Cl
ATOM     11  C   UNL     1       1.780   7.865  20.318  0.00  0.00    +0.000 A 
ATOM     12  C   UNL     1       0.809   8.862  20.149  0.00  0.00    +0.000 A 
ATOM     13 CL   UNL     1      -0.193   9.151  21.531  0.00  0.00    +0.000 Cl
ENDBRANCH   3   6
BRANCH   4  14
ATOM     14  C   UNL     1       0.891  12.635  19.212  0.00  0.00    +0.000 A 
ATOM     15  C   UNL     1       1.846  13.039  18.266  0.00  0.00    +0.000 A 
ATOM     16  C   UNL     1       3.008  13.713  18.655  0.00  0.00    +0.000 A 
ATOM     17  C   UNL     1       3.188  14.066  19.988  0.00  0.00    +0.000 A 
ATOM     18 BR   UNL     1       4.743  15.008  20.503  0.00  0.00    +0.000 Br
ATOM     19  C   UNL     1       2.221  13.742  20.936  0.00  0.00    +0.000 A 
ATOM     20  C   UNL     1       1.083  13.021  20.548  0.00  0.00    +0.000 A 
ENDBRANCH   4  14
BRANCH   1  21
ATOM     21  C   UNL     1      -3.732  11.607  17.799  0.00  0.00    +0.000 C 
ATOM     22  O   UNL     1      -4.136  11.401  16.657  0.00  0.00    +0.000 OA
BRANCH  21  24
ATOM     23  C   UNL     1      -5.800  12.507  18.441  0.00  0.00    +0.000 C 
ATOM     24  O   UNL     1      -4.506  12.046  18.827  0.00  0.00    +0.000 OA
ENDBRANCH  21  24
ENDBRANCH   1  21
TORSDOF 4
ENDMDL
