MODEL 1
REMARK VINA RESULT:      -8.1      0.000      0.000
REMARK  Name = 
REMARK  4 active torsions:
REMARK  status: ('A' for Active; 'I' for Inactive)
REMARK    1  A    between atoms: C_1  and  C_2
REMARK    2  A    between atoms: C_7  and  C_8
REMARK    3  A    between atoms: C_8  and  C_9
REMARK    4  A    between atoms: N_18  and  C_19
REMARK                            x       y       z     vdW  Elec       q    Type
REMARK                         _______ _______ _______ _____ _____    ______ ____
ROOT
ATOM      1  C   UNL     1       1.827   8.421  18.939  0.00  0.00    +0.000 C 
ATOM      2  O   UNL     1       2.007   8.889  17.813  0.00  0.00    +0.000 OA
ATOM      3  N   UNL     1       2.154   7.123  19.237  0.00  0.00    +0.000 N 
ATOM      4  C   UNL     1       2.038   6.423  20.495  0.00  0.00    +0.000 C 
ATOM      5  C   UNL     1       1.698   5.010  20.048  0.00  0.00    +0.000 C 
ATOM      6  C   UNL     1       2.527   4.815  18.751  0.00  0.00    +0.000 C 
ATOM      7  C   UNL     1       1.783   3.979  17.695  0.00  0.00    +0.000 C 
ATOM      8  C   UNL     1       1.650   2.520  18.106  0.00  0.00    +0.000 C 
ATOM      9  C   UNL     1       3.023   1.957  18.426  0.00  0.00    +0.000 C 
ATOM     10  N   UNL     1       3.694   2.767  19.432  0.00  0.00    +0.000 N 
ATOM     11  C   UNL     1       4.676   2.129  20.284  0.00  0.00    +0.000 C 
ATOM     12  C   UNL     1       3.830   4.139  19.199  0.00  0.00    +0.000 C 
ATOM     13  O   UNL     1       4.822   4.776  19.542  0.00  0.00    +0.000 OA
ATOM     14  C   UNL     1       2.740   6.251  18.229  0.00  0.00    +0.000 C 
ENDROOT
BRANCH   1  15
ATOM     15  C   UNL     1       1.185   9.287  20.016  0.00  0.00    +0.000 C 
BRANCH  15  22
ATOM     16  C   UNL     1       0.566  16.099  18.655  0.00  0.00    +0.000 C 
ATOM     17  C   UNL     1       0.648  14.613  18.873  0.00  0.00    +0.000 A 
ATOM     18  C   UNL     1      -0.474  13.819  18.575  0.00  0.00    +0.000 A 
ATOM     19  C   UNL     1      -0.382  12.453  18.839  0.00  0.00    +0.000 A 
ATOM     20  O   UNL     1      -1.375  11.551  18.620  0.00  0.00    +0.000 OA
ATOM     21  C   UNL     1      -0.905  10.346  19.018  0.00  0.00    +0.000 A 
ATOM     22  C   UNL     1       0.385  10.441  19.508  0.00  0.00    +0.000 A 
ATOM     23  C   UNL     1       0.739  11.823  19.367  0.00  0.00    +0.000 A 
ATOM     24  C   UNL     1       1.870  12.621  19.624  0.00  0.00    +0.000 A 
ATOM     25  C   UNL     1       1.807  14.005  19.386  0.00  0.00    +0.000 A 
ATOM     26 CL   UNL     1       3.214  14.940  19.763  0.00  0.00    +0.000 Cl
ENDBRANCH  15  22
ENDBRANCH   1  15
TORSDOF 2
ENDMDL
MODEL 2
REMARK VINA RESULT:      -8.0      3.510      9.111
REMARK  Name = 
REMARK  4 active torsions:
REMARK  status: ('A' for Active; 'I' for Inactive)
REMARK    1  A    between atoms: C_1  and  C_2
REMARK    2  A    between atoms: C_7  and  C_8
REMARK    3  A    between atoms: C_8  and  C_9
REMARK    4  A    between atoms: N_18  and  C_19
REMARK                            x       y       z     vdW  Elec       q    Type
REMARK                         _______ _______ _______ _____ _____    ______ ____
ROOT
ATOM      1  C   UNL     1       1.705   8.606  19.315  0.00  0.00    +0.000 C 
ATOM      2  O   UNL     1       1.796   7.795  20.239  0.00  0.00    +0.000 OA
ATOM      3  N   UNL     1       1.275   9.891  19.527  0.00  0.00    +0.000 N 
ATOM      4  C   UNL     1       1.135  10.971  18.578  0.00  0.00    +0.000 C 
ATOM      5  C   UNL     1      -0.080  11.713  19.110  0.00  0.00    +0.000 C 
ATOM      6  C   UNL     1       0.062  11.613  20.651  0.00  0.00    +0.000 C 
ATOM      7  C   UNL     1      -1.293  11.453  21.361  0.00  0.00    +0.000 C 
ATOM      8  C   UNL     1      -2.135  12.719  21.288  0.00  0.00    +0.000 C 
ATOM      9  C   UNL     1      -1.335  13.890  21.830  0.00  0.00    +0.000 C 
ATOM     10  N   UNL     1      -0.063  14.016  21.132  0.00  0.00    +0.000 N 
ATOM     11  C   UNL     1       0.549  15.326  21.052  0.00  0.00    +0.000 C 
ATOM     12  C   UNL     1       0.779  12.902  21.078  0.00  0.00    +0.000 C 
ATOM     13  O   UNL     1       2.003  12.990  21.134  0.00  0.00    +0.000 OA
ATOM     14  C   UNL     1       0.918  10.347  20.863  0.00  0.00    +0.000 C 
ENDROOT
BRANCH   1  15
ATOM     15  C   UNL     1       2.035   8.162  17.895  0.00  0.00    +0.000 C 
BRANCH  15  22
ATOM     16  C   UNL     1       3.543   1.368  18.342  0.00  0.00    +0.000 C 
ATOM     17  C   UNL     1       3.278   2.839  18.175  0.00  0.00    +0.000 A 
ATOM     18  C   UNL     1       4.347   3.688  17.837  0.00  0.00    +0.000 A 
ATOM     19  C   UNL     1       4.078   5.053  17.742  0.00  0.00    +0.000 A 
ATOM     20  O   UNL     1       4.997   6.007  17.437  0.00  0.00    +0.000 OA
ATOM     21  C   UNL     1       4.352   7.197  17.463  0.00  0.00    +0.000 A 
ATOM     22  C   UNL     1       3.017   7.042  17.793  0.00  0.00    +0.000 A 
ATOM     23  C   UNL     1       2.830   5.629  17.952  0.00  0.00    +0.000 A 
ATOM     24  C   UNL     1       1.759   4.766  18.251  0.00  0.00    +0.000 A 
ATOM     25  C   UNL     1       1.998   3.386  18.371  0.00  0.00    +0.000 A 
ATOM     26 CL   UNL     1       0.651   2.380  18.784  0.00  0.00    +0.000 Cl
ENDBRANCH  15  22
ENDBRANCH   1  15
TORSDOF 2
ENDMDL
MODEL 3
REMARK VINA RESULT:      -8.0      2.170      2.327
REMARK  Name = 
REMARK  4 active torsions:
REMARK  status: ('A' for Active; 'I' for Inactive)
REMARK    1  A    between atoms: C_1  and  C_2
REMARK    2  A    between atoms: C_7  and  C_8
REMARK    3  A    between atoms: C_8  and  C_9
REMARK    4  A    between atoms: N_18  and  C_19
REMARK                            x       y       z     vdW  Elec       q    Type
REMARK                         _______ _______ _______ _____ _____    ______ ____
ROOT
ATOM      1  C   UNL     1       1.982   8.563  18.533  0.00  0.00    +0.000 C 
ATOM      2  O   UNL     1       2.131   8.901  17.357  0.00  0.00    +0.000 OA
ATOM      3  N   UNL     1       2.245   7.284  18.951  0.00  0.00    +0.000 N 
ATOM      4  C   UNL     1       2.153   6.725  20.280  0.00  0.00    +0.000 C 
ATOM      5  C   UNL     1       1.704   5.300  20.001  0.00  0.00    +0.000 C 
ATOM      6  C   UNL     1       2.450   4.919  18.695  0.00  0.00    +0.000 C 
ATOM      7  C   UNL     1       1.603   4.030  17.769  0.00  0.00    +0.000 C 
ATOM      8  C   UNL     1       1.402   2.632  18.338  0.00  0.00    +0.000 C 
ATOM      9  C   UNL     1       2.754   2.016  18.652  0.00  0.00    +0.000 C 
ATOM     10  N   UNL     1       3.525   2.878  19.534  0.00  0.00    +0.000 N 
ATOM     11  C   UNL     1       4.510   2.268  20.403  0.00  0.00    +0.000 C 
ATOM     12  C   UNL     1       3.731   4.207  19.152  0.00  0.00    +0.000 C 
ATOM     13  O   UNL     1       4.777   4.809  19.380  0.00  0.00    +0.000 OA
ATOM     14  C   UNL     1       2.723   6.276  18.015  0.00  0.00    +0.000 C 
ENDROOT
BRANCH   1  15
ATOM     15  C   UNL     1       1.452   9.576  19.540  0.00  0.00    +0.000 C 
BRANCH  15  22
ATOM     16  C   UNL     1      -4.010  13.574  21.221  0.00  0.00    +0.000 C 
ATOM     17  C   UNL     1      -2.839  12.743  20.771  0.00  0.00    +0.000 A 
ATOM     18  C   UNL     1      -2.872  12.159  19.493  0.00  0.00    +0.000 A 
ATOM     19  C   UNL     1      -1.795  11.351  19.128  0.00  0.00    +0.000 A 
ATOM     20  O   UNL     1      -1.676  10.706  17.938  0.00  0.00    +0.000 OA
ATOM     21  C   UNL     1      -0.510  10.019  17.979  0.00  0.00    +0.000 A 
ATOM     22  C   UNL     1       0.139  10.193  19.188  0.00  0.00    +0.000 A 
ATOM     23  C   UNL     1      -0.693  11.091  19.935  0.00  0.00    +0.000 A 
ATOM     24  C   UNL     1      -0.652  11.712  21.197  0.00  0.00    +0.000 A 
ATOM     25  C   UNL     1      -1.729  12.519  21.604  0.00  0.00    +0.000 A 
ATOM     26 CL   UNL     1      -1.642  13.221  23.184  0.00  0.00    +0.000 Cl
ENDBRANCH  15  22
ENDBRANCH   1  15
TORSDOF 2
ENDMDL
MODEL 4
REMARK VINA RESULT:      -7.8      3.169      8.692
REMARK  Name = 
REMARK  4 active torsions:
REMARK  status: ('A' for Active; 'I' for Inactive)
REMARK    1  A    between atoms: C_1  and  C_2
REMARK    2  A    between atoms: C_7  and  C_8
REMARK    3  A    between atoms: C_8  and  C_9
REMARK    4  A    between atoms: N_18  and  C_19
REMARK                            x       y       z     vdW  Elec       q    Type
REMARK                         _______ _______ _______ _____ _____    ______ ____
ROOT
ATOM      1  C   UNL     1       1.790   8.676  18.629  0.00  0.00    +0.000 C 
ATOM      2  O   UNL     1       2.302   8.886  17.528  0.00  0.00    +0.000 OA
ATOM      3  N   UNL     1       0.942   9.582  19.212  0.00  0.00    +0.000 N 
ATOM      4  C   UNL     1       0.239   9.491  20.470  0.00  0.00    +0.000 C 
ATOM      5  C   UNL     1       0.236  10.935  20.944  0.00  0.00    +0.000 C 
ATOM      6  C   UNL     1       0.061  11.760  19.642  0.00  0.00    +0.000 C 
ATOM      7  C   UNL     1       0.860  13.074  19.663  0.00  0.00    +0.000 C 
ATOM      8  C   UNL     1       0.288  14.080  20.652  0.00  0.00    +0.000 C 
ATOM      9  C   UNL     1      -1.183  14.304  20.352  0.00  0.00    +0.000 C 
ATOM     10  N   UNL     1      -1.909  13.042  20.347  0.00  0.00    +0.000 N 
ATOM     11  C   UNL     1      -3.319  13.060  20.676  0.00  0.00    +0.000 C 
ATOM     12  C   UNL     1      -1.448  12.013  19.521  0.00  0.00    +0.000 C 
ATOM     13  O   UNL     1      -2.204  11.240  18.939  0.00  0.00    +0.000 OA
ATOM     14  C   UNL     1       0.608  10.830  18.539  0.00  0.00    +0.000 C 
ENDROOT
BRANCH   1  15
ATOM     15  C   UNL     1       2.138   7.399  19.384  0.00  0.00    +0.000 C 
BRANCH  15  22
ATOM     16  C   UNL     1       7.101   4.424  15.491  0.00  0.00    +0.000 C 
ATOM     17  C   UNL     1       6.006   4.981  16.359  0.00  0.00    +0.000 A 
ATOM     18  C   UNL     1       4.800   4.268  16.473  0.00  0.00    +0.000 A 
ATOM     19  C   UNL     1       3.787   4.838  17.242  0.00  0.00    +0.000 A 
ATOM     20  O   UNL     1       2.561   4.287  17.444  0.00  0.00    +0.000 OA
ATOM     21  C   UNL     1       1.867   5.148  18.225  0.00  0.00    +0.000 A 
ATOM     22  C   UNL     1       2.616   6.269  18.533  0.00  0.00    +0.000 A 
ATOM     23  C   UNL     1       3.889   6.054  17.908  0.00  0.00    +0.000 A 
ATOM     24  C   UNL     1       5.115   6.741  17.820  0.00  0.00    +0.000 A 
ATOM     25  C   UNL     1       6.152   6.203  17.039  0.00  0.00    +0.000 A 
ATOM     26 CL   UNL     1       7.620   7.114  16.934  0.00  0.00    +0.000 Cl
ENDBRANCH  15  22
ENDBRANCH   1  15
TORSDOF 2
ENDMDL
MODEL 5
REMARK VINA RESULT:      -7.7      2.828      3.810
REMARK  Name = 
REMARK  4 active torsions:
REMARK  status: ('A' for Active; 'I' for Inactive)
REMARK    1  A    between atoms: C_1  and  C_2
REMARK    2  A    between atoms: C_7  and  C_8
REMARK    3  A    between atoms: C_8  and  C_9
REMARK    4  A    between atoms: N_18  and  C_19
REMARK                            x       y       z     vdW  Elec       q    Type
REMARK                         _______ _______ _______ _____ _____    ______ ____
ROOT
ATOM      1  C   UNL     1       1.585   8.807  19.735  0.00  0.00    +0.000 C 
ATOM      2  O   UNL     1       1.517   8.953  20.957  0.00  0.00    +0.000 OA
ATOM      3  N   UNL     1       1.991   7.623  19.175  0.00  0.00    +0.000 N 
ATOM      4  C   UNL     1       2.104   7.269  17.779  0.00  0.00    +0.000 C 
ATOM      5  C   UNL     1       3.308   6.341  17.778  0.00  0.00    +0.000 C 
ATOM      6  C   UNL     1       3.177   5.551  19.107  0.00  0.00    +0.000 C 
ATOM      7  C   UNL     1       4.540   5.264  19.761  0.00  0.00    +0.000 C 
ATOM      8  C   UNL     1       5.356   4.252  18.970  0.00  0.00    +0.000 C 
ATOM      9  C   UNL     1       4.536   2.990  18.766  0.00  0.00    +0.000 C 
ATOM     10  N   UNL     1       3.258   3.297  18.141  0.00  0.00    +0.000 N 
ATOM     11  C   UNL     1       2.620   2.271  17.343  0.00  0.00    +0.000 C 
ATOM     12  C   UNL     1       2.438   4.257  18.741  0.00  0.00    +0.000 C 
ATOM     13  O   UNL     1       1.213   4.167  18.757  0.00  0.00    +0.000 OA
ATOM     14  C   UNL     1       2.347   6.485  20.012  0.00  0.00    +0.000 C 
ENDROOT
BRANCH   1  15
ATOM     15  C   UNL     1       1.255   9.981  18.821  0.00  0.00    +0.000 C 
BRANCH  15  22
ATOM     16  C   UNL     1      -5.237  11.739  16.977  0.00  0.00    +0.000 C 
ATOM     17  C   UNL     1      -3.866  11.353  17.463  0.00  0.00    +0.000 A 
ATOM     18  C   UNL     1      -3.427  11.833  18.709  0.00  0.00    +0.000 A 
ATOM     19  C   UNL     1      -2.132  11.501  19.105  0.00  0.00    +0.000 A 
ATOM     20  O   UNL     1      -1.551  11.891  20.270  0.00  0.00    +0.000 OA
ATOM     21  C   UNL     1      -0.296  11.384  20.273  0.00  0.00    +0.000 A 
ATOM     22  C   UNL     1      -0.035  10.671  19.117  0.00  0.00    +0.000 A 
ATOM     23  C   UNL     1      -1.252  10.726  18.359  0.00  0.00    +0.000 A 
ATOM     24  C   UNL     1      -1.715  10.218  17.131  0.00  0.00    +0.000 A 
ATOM     25  C   UNL     1      -3.010  10.547  16.693  0.00  0.00    +0.000 A 
ATOM     26 CL   UNL     1      -3.508   9.929  15.155  0.00  0.00    +0.000 Cl
ENDBRANCH  15  22
ENDBRANCH   1  15
TORSDOF 2
ENDMDL
MODEL 6
REMARK VINA RESULT:      -7.7      3.267      4.164
REMARK  Name = 
REMARK  4 active torsions:
REMARK  status: ('A' for Active; 'I' for Inactive)
REMARK    1  A    between atoms: C_1  and  C_2
REMARK    2  A    between atoms: C_7  and  C_8
REMARK    3  A    between atoms: C_8  and  C_9
REMARK    4  A    between atoms: N_18  and  C_19
REMARK                            x       y       z     vdW  Elec       q    Type
REMARK                         _______ _______ _______ _____ _____    ______ ____
ROOT
ATOM      1  C   UNL     1       2.086   7.210  19.866  0.00  0.00    +0.000 C 
ATOM      2  O   UNL     1       1.829   6.563  20.882  0.00  0.00    +0.000 OA
ATOM      3  N   UNL     1       3.038   6.793  18.971  0.00  0.00    +0.000 N 
ATOM      4  C   UNL     1       3.447   7.405  17.728  0.00  0.00    +0.000 C 
ATOM      5  C   UNL     1       4.931   7.082  17.682  0.00  0.00    +0.000 C 
ATOM      6  C   UNL     1       5.028   5.660  18.293  0.00  0.00    +0.000 C 
ATOM      7  C   UNL     1       6.296   5.466  19.143  0.00  0.00    +0.000 C 
ATOM      8  C   UNL     1       7.558   5.439  18.294  0.00  0.00    +0.000 C 
ATOM      9  C   UNL     1       7.420   4.380  17.215  0.00  0.00    +0.000 C 
ATOM     10  N   UNL     1       6.215   4.597  16.427  0.00  0.00    +0.000 N 
ATOM     11  C   UNL     1       6.195   4.125  15.058  0.00  0.00    +0.000 C 
ATOM     12  C   UNL     1       4.992   4.699  17.096  0.00  0.00    +0.000 C 
ATOM     13  O   UNL     1       3.944   4.253  16.637  0.00  0.00    +0.000 OA
ATOM     14  C   UNL     1       3.775   5.556  19.188  0.00  0.00    +0.000 C 
ENDROOT
BRANCH   1  15
ATOM     15  C   UNL     1       1.364   8.528  19.616  0.00  0.00    +0.000 C 
BRANCH  15  22
ATOM     16  C   UNL     1      -2.789  13.223  22.673  0.00  0.00    +0.000 C 
ATOM     17  C   UNL     1      -1.902  12.158  22.089  0.00  0.00    +0.000 A 
ATOM     18  C   UNL     1      -1.025  11.463  22.940  0.00  0.00    +0.000 A 
ATOM     19  C   UNL     1      -0.179  10.519  22.358  0.00  0.00    +0.000 A 
ATOM     20  O   UNL     1       0.733   9.771  23.033  0.00  0.00    +0.000 OA
ATOM     21  C   UNL     1       1.362   8.996  22.119  0.00  0.00    +0.000 A 
ATOM     22  C   UNL     1       0.883   9.230  20.842  0.00  0.00    +0.000 A 
ATOM     23  C   UNL     1      -0.149  10.214  21.002  0.00  0.00    +0.000 A 
ATOM     24  C   UNL     1      -1.059  10.887  20.165  0.00  0.00    +0.000 A 
ATOM     25  C   UNL     1      -1.914  11.857  20.716  0.00  0.00    +0.000 A 
ATOM     26 CL   UNL     1      -2.980  12.683  19.630  0.00  0.00    +0.000 Cl
ENDBRANCH  15  22
ENDBRANCH   1  15
TORSDOF 2
ENDMDL
MODEL 7
REMARK VINA RESULT:      -7.5      3.391      8.506
REMARK  Name = 
REMARK  4 active torsions:
REMARK  status: ('A' for Active; 'I' for Inactive)
REMARK    1  A    between atoms: C_1  and  C_2
REMARK    2  A    between atoms: C_7  and  C_8
REMARK    3  A    between atoms: C_8  and  C_9
REMARK    4  A    between atoms: N_18  and  C_19
REMARK                            x       y       z     vdW  Elec       q    Type
REMARK                         _______ _______ _______ _____ _____    ______ ____
ROOT
ATOM      1  C   UNL     1       1.652   8.090  19.691  0.00  0.00    +0.000 C 
ATOM      2  O   UNL     1       2.238   7.417  20.541  0.00  0.00    +0.000 OA
ATOM      3  N   UNL     1       1.082   9.298  20.000  0.00  0.00    +0.000 N 
ATOM      4  C   UNL     1       0.387  10.223  19.135  0.00  0.00    +0.000 C 
ATOM      5  C   UNL     1      -0.668  10.803  20.063  0.00  0.00    +0.000 C 
ATOM      6  C   UNL     1       0.051  10.906  21.434  0.00  0.00    +0.000 C 
ATOM      7  C   UNL     1      -0.885  10.598  22.616  0.00  0.00    +0.000 C 
ATOM      8  C   UNL     1      -1.930  11.685  22.821  0.00  0.00    +0.000 C 
ATOM      9  C   UNL     1      -1.239  13.029  22.966  0.00  0.00    +0.000 C 
ATOM     10  N   UNL     1      -0.369  13.291  21.829  0.00  0.00    +0.000 N 
ATOM     11  C   UNL     1      -0.107  14.668  21.467  0.00  0.00    +0.000 C 
ATOM     12  C   UNL     1       0.599  12.337  21.500  0.00  0.00    +0.000 C 
ATOM     13  O   UNL     1       1.712  12.639  21.078  0.00  0.00    +0.000 OA
ATOM     14  C   UNL     1       1.160   9.837  21.351  0.00  0.00    +0.000 C 
ENDROOT
BRANCH   1  15
ATOM     15  C   UNL     1       1.517   7.551  18.273  0.00  0.00    +0.000 C 
BRANCH  15  22
ATOM     16  C   UNL     1       7.604   4.461  16.845  0.00  0.00    +0.000 C 
ATOM     17  C   UNL     1       6.267   5.052  17.202  0.00  0.00    +0.000 A 
ATOM     18  C   UNL     1       5.147   4.206  17.271  0.00  0.00    +0.000 A 
ATOM     19  C   UNL     1       3.914   4.794  17.552  0.00  0.00    +0.000 A 
ATOM     20  O   UNL     1       2.736   4.124  17.643  0.00  0.00    +0.000 OA
ATOM     21  C   UNL     1       1.779   5.044  17.909  0.00  0.00    +0.000 A 
ATOM     22  C   UNL     1       2.310   6.319  17.984  0.00  0.00    +0.000 A 
ATOM     23  C   UNL     1       3.719   6.153  17.775  0.00  0.00    +0.000 A 
ATOM     24  C   UNL     1       4.854   6.985  17.742  0.00  0.00    +0.000 A 
ATOM     25  C   UNL     1       6.110   6.427  17.445  0.00  0.00    +0.000 A 
ATOM     26 CL   UNL     1       7.460   7.507  17.376  0.00  0.00    +0.000 Cl
ENDBRANCH  15  22
ENDBRANCH   1  15
TORSDOF 2
ENDMDL
MODEL 8
REMARK VINA RESULT:      -7.4      2.983      3.765
REMARK  Name = 
REMARK  4 active torsions:
REMARK  status: ('A' for Active; 'I' for Inactive)
REMARK    1  A    between atoms: C_1  and  C_2
REMARK    2  A    between atoms: C_7  and  C_8
REMARK    3  A    between atoms: C_8  and  C_9
REMARK    4  A    between atoms: N_18  and  C_19
REMARK                            x       y       z     vdW  Elec       q    Type
REMARK                         _______ _______ _______ _____ _____    ______ ____
ROOT
ATOM      1  C   UNL     1       2.114   7.274  19.864  0.00  0.00    +0.000 C 
ATOM      2  O   UNL     1       1.905   6.679  20.923  0.00  0.00    +0.000 OA
ATOM      3  N   UNL     1       3.037   6.824  18.957  0.00  0.00    +0.000 N 
ATOM      4  C   UNL     1       3.389   7.373  17.668  0.00  0.00    +0.000 C 
ATOM      5  C   UNL     1       4.876   7.070  17.583  0.00  0.00    +0.000 C 
ATOM      6  C   UNL     1       5.019   5.684  18.264  0.00  0.00    +0.000 C 
ATOM      7  C   UNL     1       6.321   5.555  19.074  0.00  0.00    +0.000 C 
ATOM      8  C   UNL     1       7.551   5.500  18.180  0.00  0.00    +0.000 C 
ATOM      9  C   UNL     1       7.389   4.383  17.165  0.00  0.00    +0.000 C 
ATOM     10  N   UNL     1       6.153   4.540  16.413  0.00  0.00    +0.000 N 
ATOM     11  C   UNL     1       6.089   3.995  15.074  0.00  0.00    +0.000 C 
ATOM     12  C   UNL     1       4.954   4.660  17.123  0.00  0.00    +0.000 C 
ATOM     13  O   UNL     1       3.897   4.175  16.728  0.00  0.00    +0.000 OA
ATOM     14  C   UNL     1       3.803   5.611  19.211  0.00  0.00    +0.000 C 
ENDROOT
BRANCH   1  15
ATOM     15  C   UNL     1       1.361   8.566  19.572  0.00  0.00    +0.000 C 
BRANCH  15  22
ATOM     16  C   UNL     1      -1.125  13.955  23.236  0.00  0.00    +0.000 C 
ATOM     17  C   UNL     1      -0.668  12.748  22.463  0.00  0.00    +0.000 A 
ATOM     18  C   UNL     1      -1.026  11.469  22.925  0.00  0.00    +0.000 A 
ATOM     19  C   UNL     1      -0.542  10.371  22.216  0.00  0.00    +0.000 A 
ATOM     20  O   UNL     1      -0.784   9.072  22.534  0.00  0.00    +0.000 OA
ATOM     21  C   UNL     1      -0.130   8.315  21.622  0.00  0.00    +0.000 A 
ATOM     22  C   UNL     1       0.552   9.100  20.708  0.00  0.00    +0.000 A 
ATOM     23  C   UNL     1       0.260  10.453  21.083  0.00  0.00    +0.000 A 
ATOM     24  C   UNL     1       0.579  11.738  20.605  0.00  0.00    +0.000 A 
ATOM     25  C   UNL     1       0.122  12.867  21.306  0.00  0.00    +0.000 A 
ATOM     26 CL   UNL     1       0.584  14.420  20.696  0.00  0.00    +0.000 Cl
ENDBRANCH  15  22
ENDBRANCH   1  15
TORSDOF 2
ENDMDL
MODEL 9
REMARK VINA RESULT:      -7.3      2.616      3.159
REMARK  Name = 
REMARK  4 active torsions:
REMARK  status: ('A' for Active; 'I' for Inactive)
REMARK    1  A    between atoms: C_1  and  C_2
REMARK    2  A    between atoms: C_7  and  C_8
REMARK    3  A    between atoms: C_8  and  C_9
REMARK    4  A    between atoms: N_18  and  C_19
REMARK                            x       y       z     vdW  Elec       q    Type
REMARK                         _______ _______ _______ _____ _____    ______ ____
ROOT
ATOM      1  C   UNL     1       1.558   9.124  19.294  0.00  0.00    +0.000 C 
ATOM      2  O   UNL     1       1.594   9.691  18.200  0.00  0.00    +0.000 OA
ATOM      3  N   UNL     1       1.945   7.816  19.437  0.00  0.00    +0.000 N 
ATOM      4  C   UNL     1       1.994   7.008  20.633  0.00  0.00    +0.000 C 
ATOM      5  C   UNL     1       1.633   5.629  20.107  0.00  0.00    +0.000 C 
ATOM      6  C   UNL     1       2.305   5.570  18.710  0.00  0.00    +0.000 C 
ATOM      7  C   UNL     1       1.458   4.804  17.678  0.00  0.00    +0.000 C 
ATOM      8  C   UNL     1       1.405   3.312  17.972  0.00  0.00    +0.000 C 
ATOM      9  C   UNL     1       2.817   2.766  18.079  0.00  0.00    +0.000 C 
ATOM     10  N   UNL     1       3.587   3.508  19.067  0.00  0.00    +0.000 N 
ATOM     11  C   UNL     1       4.676   2.831  19.739  0.00  0.00    +0.000 C 
ATOM     12  C   UNL     1       3.665   4.899  18.941  0.00  0.00    +0.000 C 
ATOM     13  O   UNL     1       4.678   5.535  19.220  0.00  0.00    +0.000 OA
ATOM     14  C   UNL     1       2.425   7.051  18.294  0.00  0.00    +0.000 C 
ENDROOT
BRANCH   1  15
ATOM     15  C   UNL     1       1.032   9.875  20.510  0.00  0.00    +0.000 C 
BRANCH  15  22
ATOM     16  C   UNL     1      -4.434  11.574  16.526  0.00  0.00    +0.000 C 
ATOM     17  C   UNL     1      -3.308  11.224  17.459  0.00  0.00    +0.000 A 
ATOM     18  C   UNL     1      -3.166  11.950  18.655  0.00  0.00    +0.000 A 
ATOM     19  C   UNL     1      -2.081  11.636  19.472  0.00  0.00    +0.000 A 
ATOM     20  O   UNL     1      -1.793  12.247  20.651  0.00  0.00    +0.000 OA
ATOM     21  C   UNL     1      -0.662  11.675  21.125  0.00  0.00    +0.000 A 
ATOM     22  C   UNL     1      -0.191  10.697  20.267  0.00  0.00    +0.000 A 
ATOM     23  C   UNL     1      -1.138  10.653  19.191  0.00  0.00    +0.000 A 
ATOM     24  C   UNL     1      -1.313   9.905  18.012  0.00  0.00    +0.000 A 
ATOM     25  C   UNL     1      -2.387  10.207  17.156  0.00  0.00    +0.000 A 
ATOM     26 CL   UNL     1      -2.524   9.282  15.699  0.00  0.00    +0.000 Cl
ENDBRANCH  15  22
ENDBRANCH   1  15
TORSDOF 2
ENDMDL
