MODEL 1
REMARK VINA RESULT:      -8.2      0.000      0.000
REMARK  Name = 
REMARK  10 active torsions:
REMARK  status: ('A' for Active; 'I' for Inactive)
REMARK    1  A    between atoms: C_1  and  O_2
REMARK    2  A    between atoms: O_2  and  C_3
REMARK    3  A    between atoms: C_6  and  S_7
REMARK    4  A    between atoms: S_7  and  N_10
REMARK    5  A    between atoms: N_10  and  C_11
REMARK    6  A    between atoms: N_10  and  C_21
REMARK    7  A    between atoms: C_11  and  C_12
REMARK    8  A    between atoms: C_17  and  N_18
REMARK    9  A    between atoms: C_26  and  O_27
REMARK   10  A    between atoms: O_27  and  C_28
REMARK                            x       y       z     vdW  Elec       q    Type
REMARK                         _______ _______ _______ _____ _____    ______ ____
ROOT
ATOM      1  N   UNL     1       3.830   4.831  19.291  0.00  0.00    +0.000 NA
ENDROOT
BRANCH   1   2
ATOM      2  C   UNL     1       4.235   3.411  18.935  0.00  0.00    +0.000 C 
ATOM      3  C   UNL     1       3.767   2.214  19.808  0.00  0.00    +0.000 C 
ATOM      4  C   UNL     1       3.723   1.360  18.522  0.00  0.00    +0.000 C 
ATOM      5  C   UNL     1       3.503   2.668  17.761  0.00  0.00    +0.000 C 
ENDBRANCH   1   2
BRANCH   1   6
ATOM      6  S   UNL     1       2.241   5.497  19.189  0.00  0.00    +0.000 S 
ATOM      7  O   UNL     1       1.535   5.132  20.406  0.00  0.00    +0.000 OA
ATOM      8  O   UNL     1       1.688   5.122  17.907  0.00  0.00    +0.000 OA
BRANCH   6  12
ATOM      9  C   UNL     1       1.167   9.981  18.903  0.00  0.00    +0.000 A 
ATOM     10  C   UNL     1       1.876   9.350  17.867  0.00  0.00    +0.000 A 
ATOM     11  C   UNL     1       2.386   8.038  18.011  0.00  0.00    +0.000 A 
ATOM     12  C   UNL     1       2.230   7.334  19.214  0.00  0.00    +0.000 A 
ATOM     13  C   UNL     1       1.601   8.002  20.277  0.00  0.00    +0.000 A 
ATOM     14  C   UNL     1       1.060   9.311  20.134  0.00  0.00    +0.000 A 
BRANCH   9  16
ATOM     15  C   UNL     1       1.452  12.360  19.061  0.00  0.00    +0.000 C 
ATOM     16  O   UNL     1       0.624  11.233  18.757  0.00  0.00    +0.000 OA
ENDBRANCH   9  16
BRANCH  14  17
ATOM     17  O   UNL     1       0.488   9.764  21.295  0.00  0.00    +0.000 OA
ATOM     18  C   UNL     1      -0.280   8.922  22.146  0.00  0.00    +0.000 C 
ENDBRANCH  14  17
ENDBRANCH   6  12
ENDBRANCH   1   6
BRANCH   1  19
ATOM     19  C   UNL     1       4.979   5.779  19.232  0.00  0.00    +0.000 C 
BRANCH  19  20
ATOM     20  C   UNL     1       5.675   5.794  17.905  0.00  0.00    +0.000 A 
ATOM     21  C   UNL     1       4.974   5.910  16.714  0.00  0.00    +0.000 A 
ATOM     22  C   UNL     1       5.452   5.229  15.605  0.00  0.00    +0.000 A 
ATOM     23  C   UNL     1       6.616   4.457  15.703  0.00  0.00    +0.000 A 
ATOM     24  C   UNL     1       7.444   4.573  16.819  0.00  0.00    +0.000 A 
ATOM     25  C   UNL     1       7.004   5.369  17.864  0.00  0.00    +0.000 A 
BRANCH  25  26
ATOM     26  N   UNL     1       7.954   5.940  18.811  0.00  0.00    +0.000 N 
ATOM     27  O   UNL     1       8.344   5.185  19.721  0.00  0.00    +0.000 OA
ATOM     28  O   UNL     1       8.280   7.120  18.677  0.00  0.00    +0.000 OA
ENDBRANCH  25  26
ENDBRANCH  19  20
ENDBRANCH   1  19
TORSDOF 8
ENDMDL
MODEL 2
REMARK VINA RESULT:      -7.4      0.867      1.099
REMARK  Name = 
REMARK  10 active torsions:
REMARK  status: ('A' for Active; 'I' for Inactive)
REMARK    1  A    between atoms: C_1  and  O_2
REMARK    2  A    between atoms: O_2  and  C_3
REMARK    3  A    between atoms: C_6  and  S_7
REMARK    4  A    between atoms: S_7  and  N_10
REMARK    5  A    between atoms: N_10  and  C_11
REMARK    6  A    between atoms: N_10  and  C_21
REMARK    7  A    between atoms: C_11  and  C_12
REMARK    8  A    between atoms: C_17  and  N_18
REMARK    9  A    between atoms: C_26  and  O_27
REMARK   10  A    between atoms: O_27  and  C_28
REMARK                            x       y       z     vdW  Elec       q    Type
REMARK                         _______ _______ _______ _____ _____    ______ ____
ROOT
ATOM      1  N   UNL     1       3.999   4.782  19.273  0.00  0.00    +0.000 NA
ENDROOT
BRANCH   1   2
ATOM      2  C   UNL     1       4.440   3.352  19.008  0.00  0.00    +0.000 C 
ATOM      3  C   UNL     1       4.254   2.255  20.090  0.00  0.00    +0.000 C 
ATOM      4  C   UNL     1       4.025   1.240  18.949  0.00  0.00    +0.000 C 
ATOM      5  C   UNL     1       3.552   2.423  18.104  0.00  0.00    +0.000 C 
ENDBRANCH   1   2
BRANCH   1   6
ATOM      6  S   UNL     1       2.373   5.349  19.371  0.00  0.00    +0.000 S 
ATOM      7  O   UNL     1       1.875   5.025  20.697  0.00  0.00    +0.000 OA
ATOM      8  O   UNL     1       1.666   4.860  18.208  0.00  0.00    +0.000 OA
BRANCH   6  12
ATOM      9  C   UNL     1       1.014   9.732  18.842  0.00  0.00    +0.000 A 
ATOM     10  C   UNL     1       1.757   9.090  17.837  0.00  0.00    +0.000 A 
ATOM     11  C   UNL     1       2.350   7.823  18.050  0.00  0.00    +0.000 A 
ATOM     12  C   UNL     1       2.245   7.180  19.292  0.00  0.00    +0.000 A 
ATOM     13  C   UNL     1       1.580   7.866  20.321  0.00  0.00    +0.000 A 
ATOM     14  C   UNL     1       0.956   9.128  20.110  0.00  0.00    +0.000 A 
BRANCH   9  16
ATOM     15  C   UNL     1      -0.992  10.920  18.266  0.00  0.00    +0.000 C 
ATOM     16  O   UNL     1       0.392  10.938  18.631  0.00  0.00    +0.000 OA
ENDBRANCH   9  16
BRANCH  14  17
ATOM     17  O   UNL     1       0.362   9.609  21.248  0.00  0.00    +0.000 OA
ATOM     18  C   UNL     1       0.551  10.945  21.700  0.00  0.00    +0.000 C 
ENDBRANCH  14  17
ENDBRANCH   6  12
ENDBRANCH   1   6
BRANCH   1  19
ATOM     19  C   UNL     1       5.055   5.775  18.920  0.00  0.00    +0.000 C 
BRANCH  19  20
ATOM     20  C   UNL     1       5.503   5.690  17.493  0.00  0.00    +0.000 A 
ATOM     21  C   UNL     1       4.645   5.282  16.482  0.00  0.00    +0.000 A 
ATOM     22  C   UNL     1       5.175   4.543  15.435  0.00  0.00    +0.000 A 
ATOM     23  C   UNL     1       6.541   4.234  15.413  0.00  0.00    +0.000 A 
ATOM     24  C   UNL     1       7.420   4.878  16.283  0.00  0.00    +0.000 A 
ATOM     25  C   UNL     1       6.875   5.719  17.240  0.00  0.00    +0.000 A 
BRANCH  25  26
ATOM     26  N   UNL     1       7.679   6.777  17.841  0.00  0.00    +0.000 N 
ATOM     27  O   UNL     1       7.756   7.840  17.198  0.00  0.00    +0.000 OA
ATOM     28  O   UNL     1       8.249   6.548  18.908  0.00  0.00    +0.000 OA
ENDBRANCH  25  26
ENDBRANCH  19  20
ENDBRANCH   1  19
TORSDOF 8
ENDMDL
MODEL 3
REMARK VINA RESULT:      -7.3      2.319      4.455
REMARK  Name = 
REMARK  10 active torsions:
REMARK  status: ('A' for Active; 'I' for Inactive)
REMARK    1  A    between atoms: C_1  and  O_2
REMARK    2  A    between atoms: O_2  and  C_3
REMARK    3  A    between atoms: C_6  and  S_7
REMARK    4  A    between atoms: S_7  and  N_10
REMARK    5  A    between atoms: N_10  and  C_11
REMARK    6  A    between atoms: N_10  and  C_21
REMARK    7  A    between atoms: C_11  and  C_12
REMARK    8  A    between atoms: C_17  and  N_18
REMARK    9  A    between atoms: C_26  and  O_27
REMARK   10  A    between atoms: O_27  and  C_28
REMARK                            x       y       z     vdW  Elec       q    Type
REMARK                         _______ _______ _______ _____ _____    ______ ____
ROOT
ATOM      1  N   UNL     1       5.130   4.760  16.906  0.00  0.00    +0.000 NA
ENDROOT
BRANCH   1   2
ATOM      2  C   UNL     1       5.811   4.104  15.717  0.00  0.00    +0.000 C 
ATOM      3  C   UNL     1       5.210   4.235  14.292  0.00  0.00    +0.000 C 
ATOM      4  C   UNL     1       6.651   4.216  13.737  0.00  0.00    +0.000 C 
ATOM      5  C   UNL     1       7.091   4.769  15.094  0.00  0.00    +0.000 C 
ENDBRANCH   1   2
BRANCH   1   6
ATOM      6  S   UNL     1       4.953   6.455  17.176  0.00  0.00    +0.000 S 
ATOM      7  O   UNL     1       4.872   7.099  15.875  0.00  0.00    +0.000 OA
ATOM      8  O   UNL     1       5.981   6.863  18.107  0.00  0.00    +0.000 OA
BRANCH   6  12
ATOM      9  C   UNL     1       1.591   8.215  19.810  0.00  0.00    +0.000 A 
ATOM     10  C   UNL     1       2.143   6.956  20.104  0.00  0.00    +0.000 A 
ATOM     11  C   UNL     1       3.029   6.309  19.211  0.00  0.00    +0.000 A 
ATOM     12  C   UNL     1       3.359   6.891  17.978  0.00  0.00    +0.000 A 
ATOM     13  C   UNL     1       2.735   8.105  17.649  0.00  0.00    +0.000 A 
ATOM     14  C   UNL     1       1.863   8.778  18.551  0.00  0.00    +0.000 A 
BRANCH   9  16
ATOM     15  C   UNL     1       1.370   9.465  21.848  0.00  0.00    +0.000 C 
ATOM     16  O   UNL     1       0.770   8.874  20.691  0.00  0.00    +0.000 OA
ENDBRANCH   9  16
BRANCH  14  17
ATOM     17  O   UNL     1       1.374   9.946  18.025  0.00  0.00    +0.000 OA
ATOM     18  C   UNL     1       1.951  11.213  18.315  0.00  0.00    +0.000 C 
ENDBRANCH  14  17
ENDBRANCH   6  12
ENDBRANCH   1   6
BRANCH   1  19
ATOM     19  C   UNL     1       5.086   3.865  18.098  0.00  0.00    +0.000 C 
BRANCH  19  20
ATOM     20  C   UNL     1       3.780   3.150  18.262  0.00  0.00    +0.000 A 
ATOM     21  C   UNL     1       2.734   3.327  17.367  0.00  0.00    +0.000 A 
ATOM     22  C   UNL     1       1.439   3.297  17.862  0.00  0.00    +0.000 A 
ATOM     23  C   UNL     1       1.213   3.086  19.228  0.00  0.00    +0.000 A 
ATOM     24  C   UNL     1       2.249   2.644  20.051  0.00  0.00    +0.000 A 
ATOM     25  C   UNL     1       3.515   2.554  19.495  0.00  0.00    +0.000 A 
BRANCH  25  26
ATOM     26  N   UNL     1       4.519   1.673  20.080  0.00  0.00    +0.000 N 
ATOM     27  O   UNL     1       4.942   1.993  21.206  0.00  0.00    +0.000 OA
ATOM     28  O   UNL     1       4.905   0.705  19.423  0.00  0.00    +0.000 OA
ENDBRANCH  25  26
ENDBRANCH  19  20
ENDBRANCH   1  19
TORSDOF 8
ENDMDL
MODEL 4
REMARK VINA RESULT:      -7.1      2.013      3.760
REMARK  Name = 
REMARK  10 active torsions:
REMARK  status: ('A' for Active; 'I' for Inactive)
REMARK    1  A    between atoms: C_1  and  O_2
REMARK    2  A    between atoms: O_2  and  C_3
REMARK    3  A    between atoms: C_6  and  S_7
REMARK    4  A    between atoms: S_7  and  N_10
REMARK    5  A    between atoms: N_10  and  C_11
REMARK    6  A    between atoms: N_10  and  C_21
REMARK    7  A    between atoms: C_11  and  C_12
REMARK    8  A    between atoms: C_17  and  N_18
REMARK    9  A    between atoms: C_26  and  O_27
REMARK   10  A    between atoms: O_27  and  C_28
REMARK                            x       y       z     vdW  Elec       q    Type
REMARK                         _______ _______ _______ _____ _____    ______ ____
ROOT
ATOM      1  N   UNL     1       4.284   5.558  18.699  0.00  0.00    +0.000 NA
ENDROOT
BRANCH   1   2
ATOM      2  C   UNL     1       5.392   6.525  18.317  0.00  0.00    +0.000 C 
ATOM      3  C   UNL     1       6.883   6.118  18.470  0.00  0.00    +0.000 C 
ATOM      4  C   UNL     1       7.193   6.981  17.228  0.00  0.00    +0.000 C 
ATOM      5  C   UNL     1       5.745   6.738  16.801  0.00  0.00    +0.000 C 
ENDBRANCH   1   2
BRANCH   1   6
ATOM      6  S   UNL     1       2.640   5.965  19.030  0.00  0.00    +0.000 S 
ATOM      7  O   UNL     1       2.345   5.529  20.383  0.00  0.00    +0.000 OA
ATOM      8  O   UNL     1       1.836   5.474  17.933  0.00  0.00    +0.000 OA
BRANCH   6  12
ATOM      9  C   UNL     1       0.860  10.227  18.927  0.00  0.00    +0.000 A 
ATOM     10  C   UNL     1       1.542   9.712  17.811  0.00  0.00    +0.000 A 
ATOM     11  C   UNL     1       2.262   8.496  17.880  0.00  0.00    +0.000 A 
ATOM     12  C   UNL     1       2.348   7.778  19.083  0.00  0.00    +0.000 A 
ATOM     13  C   UNL     1       1.742   8.343  20.217  0.00  0.00    +0.000 A 
ATOM     14  C   UNL     1       0.992   9.551  20.152  0.00  0.00    +0.000 A 
BRANCH   9  16
ATOM     15  C   UNL     1      -1.288  11.255  18.617  0.00  0.00    +0.000 C 
ATOM     16  O   UNL     1       0.117  11.379  18.859  0.00  0.00    +0.000 OA
ENDBRANCH   9  16
BRANCH  14  17
ATOM     17  O   UNL     1       0.486   9.912  21.374  0.00  0.00    +0.000 OA
ATOM     18  C   UNL     1      -0.365   9.058  22.129  0.00  0.00    +0.000 C 
ENDBRANCH  14  17
ENDBRANCH   6  12
ENDBRANCH   1   6
BRANCH   1  19
ATOM     19  C   UNL     1       4.814   4.296  19.292  0.00  0.00    +0.000 C 
BRANCH  19  20
ATOM     20  C   UNL     1       4.046   3.075  18.887  0.00  0.00    +0.000 A 
ATOM     21  C   UNL     1       3.909   2.708  17.556  0.00  0.00    +0.000 A 
ATOM     22  C   UNL     1       2.718   2.119  17.159  0.00  0.00    +0.000 A 
ATOM     23  C   UNL     1       1.696   1.904  18.092  0.00  0.00    +0.000 A 
ATOM     24  C   UNL     1       1.954   2.027  19.457  0.00  0.00    +0.000 A 
ATOM     25  C   UNL     1       3.203   2.493  19.834  0.00  0.00    +0.000 A 
BRANCH  25  26
ATOM     26  N   UNL     1       3.734   2.198  21.160  0.00  0.00    +0.000 N 
ATOM     27  O   UNL     1       4.893   1.745  21.199  0.00  0.00    +0.000 OA
ATOM     28  O   UNL     1       3.007   2.379  22.137  0.00  0.00    +0.000 OA
ENDBRANCH  25  26
ENDBRANCH  19  20
ENDBRANCH   1  19
TORSDOF 8
ENDMDL
MODEL 5
REMARK VINA RESULT:      -7.1      1.751      2.170
REMARK  Name = 
REMARK  10 active torsions:
REMARK  status: ('A' for Active; 'I' for Inactive)
REMARK    1  A    between atoms: C_1  and  O_2
REMARK    2  A    between atoms: O_2  and  C_3
REMARK    3  A    between atoms: C_6  and  S_7
REMARK    4  A    between atoms: S_7  and  N_10
REMARK    5  A    between atoms: N_10  and  C_11
REMARK    6  A    between atoms: N_10  and  C_21
REMARK    7  A    between atoms: C_11  and  C_12
REMARK    8  A    between atoms: C_17  and  N_18
REMARK    9  A    between atoms: C_26  and  O_27
REMARK   10  A    between atoms: O_27  and  C_28
REMARK                            x       y       z     vdW  Elec       q    Type
REMARK                         _______ _______ _______ _____ _____    ______ ____
ROOT
ATOM      1  N   UNL     1       3.844   4.533  18.630  0.00  0.00    +0.000 NA
ENDROOT
BRANCH   1   2
ATOM      2  C   UNL     1       4.171   3.060  18.449  0.00  0.00    +0.000 C 
ATOM      3  C   UNL     1       4.267   2.115  19.677  0.00  0.00    +0.000 C 
ATOM      4  C   UNL     1       3.719   0.981  18.783  0.00  0.00    +0.000 C 
ATOM      5  C   UNL     1       3.055   2.075  17.947  0.00  0.00    +0.000 C 
ENDBRANCH   1   2
BRANCH   1   6
ATOM      6  S   UNL     1       2.463   5.181  19.435  0.00  0.00    +0.000 S 
ATOM      7  O   UNL     1       2.623   4.922  20.856  0.00  0.00    +0.000 OA
ATOM      8  O   UNL     1       1.285   4.694  18.752  0.00  0.00    +0.000 OA
BRANCH   6  12
ATOM      9  C   UNL     1       1.156   9.586  18.956  0.00  0.00    +0.000 A 
ATOM     10  C   UNL     1       1.785   8.909  17.897  0.00  0.00    +0.000 A 
ATOM     11  C   UNL     1       2.369   7.633  18.077  0.00  0.00    +0.000 A 
ATOM     12  C   UNL     1       2.369   7.013  19.335  0.00  0.00    +0.000 A 
ATOM     13  C   UNL     1       1.820   7.732  20.410  0.00  0.00    +0.000 A 
ATOM     14  C   UNL     1       1.207   9.005  20.235  0.00  0.00    +0.000 A 
BRANCH   9  16
ATOM     15  C   UNL     1      -0.861  10.809  18.506  0.00  0.00    +0.000 C 
ATOM     16  O   UNL     1       0.544  10.802  18.782  0.00  0.00    +0.000 OA
ENDBRANCH   9  16
BRANCH  14  17
ATOM     17  O   UNL     1       0.734   9.519  21.415  0.00  0.00    +0.000 OA
ATOM     18  C   UNL     1      -0.397   8.975  22.084  0.00  0.00    +0.000 C 
ENDBRANCH  14  17
ENDBRANCH   6  12
ENDBRANCH   1   6
BRANCH   1  19
ATOM     19  C   UNL     1       4.514   5.391  17.611  0.00  0.00    +0.000 C 
BRANCH  19  20
ATOM     20  C   UNL     1       5.988   5.540  17.829  0.00  0.00    +0.000 A 
ATOM     21  C   UNL     1       6.576   5.267  19.056  0.00  0.00    +0.000 A 
ATOM     22  C   UNL     1       7.656   6.042  19.450  0.00  0.00    +0.000 A 
ATOM     23  C   UNL     1       8.130   7.062  18.615  0.00  0.00    +0.000 A 
ATOM     24  C   UNL     1       7.707   7.138  17.288  0.00  0.00    +0.000 A 
ATOM     25  C   UNL     1       6.716   6.259  16.881  0.00  0.00    +0.000 A 
BRANCH  25  26
ATOM     26  N   UNL     1       6.561   5.921  15.471  0.00  0.00    +0.000 N 
ATOM     27  O   UNL     1       7.553   5.412  14.916  0.00  0.00    +0.000 OA
ATOM     28  O   UNL     1       5.493   6.185  14.917  0.00  0.00    +0.000 OA
ENDBRANCH  25  26
ENDBRANCH  19  20
ENDBRANCH   1  19
TORSDOF 8
ENDMDL
MODEL 6
REMARK VINA RESULT:      -6.9      3.055      7.207
REMARK  Name = 
REMARK  10 active torsions:
REMARK  status: ('A' for Active; 'I' for Inactive)
REMARK    1  A    between atoms: C_1  and  O_2
REMARK    2  A    between atoms: O_2  and  C_3
REMARK    3  A    between atoms: C_6  and  S_7
REMARK    4  A    between atoms: S_7  and  N_10
REMARK    5  A    between atoms: N_10  and  C_11
REMARK    6  A    between atoms: N_10  and  C_21
REMARK    7  A    between atoms: C_11  and  C_12
REMARK    8  A    between atoms: C_17  and  N_18
REMARK    9  A    between atoms: C_26  and  O_27
REMARK   10  A    between atoms: O_27  and  C_28
REMARK                            x       y       z     vdW  Elec       q    Type
REMARK                         _______ _______ _______ _____ _____    ______ ____
ROOT
ATOM      1  N   UNL     1       4.962   5.394  18.844  0.00  0.00    +0.000 NA
ENDROOT
BRANCH   1   2
ATOM      2  C   UNL     1       3.638   5.972  18.372  0.00  0.00    +0.000 C 
ATOM      3  C   UNL     1       2.730   6.766  19.349  0.00  0.00    +0.000 C 
ATOM      4  C   UNL     1       2.287   7.633  18.150  0.00  0.00    +0.000 C 
ATOM      5  C   UNL     1       3.630   7.284  17.508  0.00  0.00    +0.000 C 
ENDBRANCH   1   2
BRANCH   1   6
ATOM      6  S   UNL     1       6.496   5.598  18.081  0.00  0.00    +0.000 S 
ATOM      7  O   UNL     1       7.499   5.003  18.949  0.00  0.00    +0.000 OA
ATOM      8  O   UNL     1       6.619   6.989  17.704  0.00  0.00    +0.000 OA
BRANCH   6  12
ATOM      9  C   UNL     1       6.287   4.045  13.736  0.00  0.00    +0.000 A 
ATOM     10  C   UNL     1       5.410   3.546  14.715  0.00  0.00    +0.000 A 
ATOM     11  C   UNL     1       5.578   3.855  16.085  0.00  0.00    +0.000 A 
ATOM     12  C   UNL     1       6.652   4.647  16.518  0.00  0.00    +0.000 A 
ATOM     13  C   UNL     1       7.577   5.067  15.548  0.00  0.00    +0.000 A 
ATOM     14  C   UNL     1       7.403   4.785  14.163  0.00  0.00    +0.000 A 
BRANCH   9  16
ATOM     15  C   UNL     1       4.855   3.230  11.989  0.00  0.00    +0.000 C 
ATOM     16  O   UNL     1       6.105   3.793  12.399  0.00  0.00    +0.000 OA
ENDBRANCH   9  16
BRANCH  14  17
ATOM     17  O   UNL     1       8.420   5.296  13.399  0.00  0.00    +0.000 OA
ATOM     18  C   UNL     1       8.179   6.105  12.254  0.00  0.00    +0.000 C 
ENDBRANCH  14  17
ENDBRANCH   6  12
ENDBRANCH   1   6
BRANCH   1  19
ATOM     19  C   UNL     1       4.779   4.198  19.715  0.00  0.00    +0.000 C 
BRANCH  19  20
ATOM     20  C   UNL     1       3.669   3.296  19.269  0.00  0.00    +0.000 A 
ATOM     21  C   UNL     1       3.516   2.930  17.940  0.00  0.00    +0.000 A 
ATOM     22  C   UNL     1       2.229   2.767  17.451  0.00  0.00    +0.000 A 
ATOM     23  C   UNL     1       1.127   2.965  18.293  0.00  0.00    +0.000 A 
ATOM     24  C   UNL     1       1.307   3.062  19.673  0.00  0.00    +0.000 A 
ATOM     25  C   UNL     1       2.607   3.089  20.150  0.00  0.00    +0.000 A 
BRANCH  25  26
ATOM     26  N   UNL     1       2.900   2.699  21.524  0.00  0.00    +0.000 N 
ATOM     27  O   UNL     1       3.792   1.844  21.674  0.00  0.00    +0.000 OA
ATOM     28  O   UNL     1       2.236   3.202  22.432  0.00  0.00    +0.000 OA
ENDBRANCH  25  26
ENDBRANCH  19  20
ENDBRANCH   1  19
TORSDOF 8
ENDMDL
MODEL 7
REMARK VINA RESULT:      -6.9      2.951      7.212
REMARK  Name = 
REMARK  10 active torsions:
REMARK  status: ('A' for Active; 'I' for Inactive)
REMARK    1  A    between atoms: C_1  and  O_2
REMARK    2  A    between atoms: O_2  and  C_3
REMARK    3  A    between atoms: C_6  and  S_7
REMARK    4  A    between atoms: S_7  and  N_10
REMARK    5  A    between atoms: N_10  and  C_11
REMARK    6  A    between atoms: N_10  and  C_21
REMARK    7  A    between atoms: C_11  and  C_12
REMARK    8  A    between atoms: C_17  and  N_18
REMARK    9  A    between atoms: C_26  and  O_27
REMARK   10  A    between atoms: O_27  and  C_28
REMARK                            x       y       z     vdW  Elec       q    Type
REMARK                         _______ _______ _______ _____ _____    ______ ____
ROOT
ATOM      1  N   UNL     1       3.596   5.505  18.274  0.00  0.00    +0.000 NA
ENDROOT
BRANCH   1   2
ATOM      2  C   UNL     1       2.504   6.553  18.404  0.00  0.00    +0.000 C 
ATOM      3  C   UNL     1       2.227   7.240  19.769  0.00  0.00    +0.000 C 
ATOM      4  C   UNL     1       1.849   8.519  18.991  0.00  0.00    +0.000 C 
ATOM      5  C   UNL     1       2.763   8.010  17.875  0.00  0.00    +0.000 C 
ENDBRANCH   1   2
BRANCH   1   6
ATOM      6  S   UNL     1       5.281   5.805  18.054  0.00  0.00    +0.000 S 
ATOM      7  O   UNL     1       5.969   5.332  19.243  0.00  0.00    +0.000 OA
ATOM      8  O   UNL     1       5.433   7.184  17.646  0.00  0.00    +0.000 OA
BRANCH   6  12
ATOM      9  C   UNL     1       6.431   3.882  14.014  0.00  0.00    +0.000 A 
ATOM     10  C   UNL     1       5.529   3.238  14.879  0.00  0.00    +0.000 A 
ATOM     11  C   UNL     1       5.310   3.702  16.198  0.00  0.00    +0.000 A 
ATOM     12  C   UNL     1       6.016   4.806  16.699  0.00  0.00    +0.000 A 
ATOM     13  C   UNL     1       6.982   5.389  15.862  0.00  0.00    +0.000 A 
ATOM     14  C   UNL     1       7.191   4.948  14.525  0.00  0.00    +0.000 A 
BRANCH   9  16
ATOM     15  C   UNL     1       5.453   3.137  11.951  0.00  0.00    +0.000 C 
ATOM     16  O   UNL     1       6.614   3.471  12.717  0.00  0.00    +0.000 OA
ENDBRANCH   9  16
BRANCH  14  17
ATOM     17  O   UNL     1       8.175   5.663  13.891  0.00  0.00    +0.000 OA
ATOM     18  C   UNL     1       8.151   5.918  12.492  0.00  0.00    +0.000 C 
ENDBRANCH  14  17
ENDBRANCH   6  12
ENDBRANCH   1   6
BRANCH   1  19
ATOM     19  C   UNL     1       3.065   4.188  17.815  0.00  0.00    +0.000 C 
BRANCH  19  20
ATOM     20  C   UNL     1       2.336   3.432  18.883  0.00  0.00    +0.000 A 
ATOM     21  C   UNL     1       0.982   3.625  19.120  0.00  0.00    +0.000 A 
ATOM     22  C   UNL     1       0.528   3.537  20.427  0.00  0.00    +0.000 A 
ATOM     23  C   UNL     1       1.425   3.253  21.464  0.00  0.00    +0.000 A 
ATOM     24  C   UNL     1       2.711   2.798  21.176  0.00  0.00    +0.000 A 
ATOM     25  C   UNL     1       3.098   2.770  19.846  0.00  0.00    +0.000 A 
BRANCH  25  26
ATOM     26  N   UNL     1       4.173   1.888  19.406  0.00  0.00    +0.000 N 
ATOM     27  O   UNL     1       3.904   1.123  18.461  0.00  0.00    +0.000 OA
ATOM     28  O   UNL     1       5.247   1.926  20.006  0.00  0.00    +0.000 OA
ENDBRANCH  25  26
ENDBRANCH  19  20
ENDBRANCH   1  19
TORSDOF 8
ENDMDL
MODEL 8
REMARK VINA RESULT:      -6.8      1.033      1.113
REMARK  Name = 
REMARK  10 active torsions:
REMARK  status: ('A' for Active; 'I' for Inactive)
REMARK    1  A    between atoms: C_1  and  O_2
REMARK    2  A    between atoms: O_2  and  C_3
REMARK    3  A    between atoms: C_6  and  S_7
REMARK    4  A    between atoms: S_7  and  N_10
REMARK    5  A    between atoms: N_10  and  C_11
REMARK    6  A    between atoms: N_10  and  C_21
REMARK    7  A    between atoms: C_11  and  C_12
REMARK    8  A    between atoms: C_17  and  N_18
REMARK    9  A    between atoms: C_26  and  O_27
REMARK   10  A    between atoms: O_27  and  C_28
REMARK                            x       y       z     vdW  Elec       q    Type
REMARK                         _______ _______ _______ _____ _____    ______ ____
ROOT
ATOM      1  N   UNL     1       3.797   5.482  18.708  0.00  0.00    +0.000 NA
ENDROOT
BRANCH   1   2
ATOM      2  C   UNL     1       4.143   4.129  18.110  0.00  0.00    +0.000 C 
ATOM      3  C   UNL     1       4.070   2.841  18.974  0.00  0.00    +0.000 C 
ATOM      4  C   UNL     1       3.648   2.073  17.702  0.00  0.00    +0.000 C 
ATOM      5  C   UNL     1       3.105   3.404  17.180  0.00  0.00    +0.000 C 
ENDBRANCH   1   2
BRANCH   1   6
ATOM      6  S   UNL     1       2.356   5.879  19.571  0.00  0.00    +0.000 S 
ATOM      7  O   UNL     1       2.526   5.422  20.939  0.00  0.00    +0.000 OA
ATOM      8  O   UNL     1       1.233   5.400  18.796  0.00  0.00    +0.000 OA
BRANCH   6  12
ATOM      9  C   UNL     1       0.639  10.147  19.985  0.00  0.00    +0.000 A 
ATOM     10  C   UNL     1       1.067   9.669  18.735  0.00  0.00    +0.000 A 
ATOM     11  C   UNL     1       1.773   8.449  18.612  0.00  0.00    +0.000 A 
ATOM     12  C   UNL     1       2.101   7.689  19.745  0.00  0.00    +0.000 A 
ATOM     13  C   UNL     1       1.750   8.216  20.999  0.00  0.00    +0.000 A 
ATOM     14  C   UNL     1       1.016   9.428  21.133  0.00  0.00    +0.000 A 
BRANCH   9  16
ATOM     15  C   UNL     1      -1.323  11.399  19.392  0.00  0.00    +0.000 C 
ATOM     16  O   UNL     1      -0.090  11.303  20.113  0.00  0.00    +0.000 OA
ENDBRANCH   9  16
BRANCH  14  17
ATOM     17  O   UNL     1       0.780   9.748  22.445  0.00  0.00    +0.000 OA
ATOM     18  C   UNL     1      -0.469   9.495  23.078  0.00  0.00    +0.000 C 
ENDBRANCH  14  17
ENDBRANCH   6  12
ENDBRANCH   1   6
BRANCH   1  19
ATOM     19  C   UNL     1       4.536   6.598  18.051  0.00  0.00    +0.000 C 
BRANCH  19  20
ATOM     20  C   UNL     1       5.594   6.135  17.097  0.00  0.00    +0.000 A 
ATOM     21  C   UNL     1       5.365   6.066  15.730  0.00  0.00    +0.000 A 
ATOM     22  C   UNL     1       5.969   5.042  15.017  0.00  0.00    +0.000 A 
ATOM     23  C   UNL     1       6.790   4.117  15.674  0.00  0.00    +0.000 A 
ATOM     24  C   UNL     1       7.220   4.363  16.978  0.00  0.00    +0.000 A 
ATOM     25  C   UNL     1       6.702   5.472  17.626  0.00  0.00    +0.000 A 
BRANCH  25  26
ATOM     26  N   UNL     1       7.419   6.081  18.740  0.00  0.00    +0.000 N 
ATOM     27  O   UNL     1       7.263   5.544  19.853  0.00  0.00    +0.000 OA
ATOM     28  O   UNL     1       8.093   7.088  18.524  0.00  0.00    +0.000 OA
ENDBRANCH  25  26
ENDBRANCH  19  20
ENDBRANCH   1  19
TORSDOF 8
ENDMDL
MODEL 9
REMARK VINA RESULT:      -6.8      1.636      2.569
REMARK  Name = 
REMARK  10 active torsions:
REMARK  status: ('A' for Active; 'I' for Inactive)
REMARK    1  A    between atoms: C_1  and  O_2
REMARK    2  A    between atoms: O_2  and  C_3
REMARK    3  A    between atoms: C_6  and  S_7
REMARK    4  A    between atoms: S_7  and  N_10
REMARK    5  A    between atoms: N_10  and  C_11
REMARK    6  A    between atoms: N_10  and  C_21
REMARK    7  A    between atoms: C_11  and  C_12
REMARK    8  A    between atoms: C_17  and  N_18
REMARK    9  A    between atoms: C_26  and  O_27
REMARK   10  A    between atoms: O_27  and  C_28
REMARK                            x       y       z     vdW  Elec       q    Type
REMARK                         _______ _______ _______ _____ _____    ______ ____
ROOT
ATOM      1  N   UNL     1       3.481   5.737  19.278  0.00  0.00    +0.000 NA
ENDROOT
BRANCH   1   2
ATOM      2  C   UNL     1       2.818   4.463  19.774  0.00  0.00    +0.000 C 
ATOM      3  C   UNL     1       1.858   4.496  20.994  0.00  0.00    +0.000 C 
ATOM      4  C   UNL     1       1.056   3.357  20.328  0.00  0.00    +0.000 C 
ATOM      5  C   UNL     1       1.589   3.875  18.992  0.00  0.00    +0.000 C 
ENDBRANCH   1   2
BRANCH   1   6
ATOM      6  S   UNL     1       2.709   7.030  18.436  0.00  0.00    +0.000 S 
ATOM      7  O   UNL     1       1.808   6.440  17.460  0.00  0.00    +0.000 OA
ATOM      8  O   UNL     1       3.739   7.943  17.992  0.00  0.00    +0.000 OA
BRANCH   6  12
ATOM      9  C   UNL     1       0.850  10.095  21.349  0.00  0.00    +0.000 A 
ATOM     10  C   UNL     1       1.211   8.813  21.797  0.00  0.00    +0.000 A 
ATOM     11  C   UNL     1       1.598   7.795  20.894  0.00  0.00    +0.000 A 
ATOM     12  C   UNL     1       1.599   8.023  19.510  0.00  0.00    +0.000 A 
ATOM     13  C   UNL     1       1.150   9.276  19.062  0.00  0.00    +0.000 A 
ATOM     14  C   UNL     1       0.785  10.317  19.962  0.00  0.00    +0.000 A 
BRANCH   9  16
ATOM     15  C   UNL     1      -0.814  11.137  22.732  0.00  0.00    +0.000 C 
ATOM     16  O   UNL     1       0.522  11.105  22.218  0.00  0.00    +0.000 OA
ENDBRANCH   9  16
BRANCH  14  17
ATOM     17  O   UNL     1       0.386  11.453  19.307  0.00  0.00    +0.000 OA
ATOM     18  C   UNL     1       1.261  12.551  19.083  0.00  0.00    +0.000 C 
ENDBRANCH  14  17
ENDBRANCH   6  12
ENDBRANCH   1   6
BRANCH   1  19
ATOM     19  C   UNL     1       4.952   5.573  19.091  0.00  0.00    +0.000 C 
BRANCH  19  20
ATOM     20  C   UNL     1       5.358   5.397  17.660  0.00  0.00    +0.000 A 
ATOM     21  C   UNL     1       4.542   4.749  16.744  0.00  0.00    +0.000 A 
ATOM     22  C   UNL     1       5.145   3.987  15.756  0.00  0.00    +0.000 A 
ATOM     23  C   UNL     1       6.541   3.891  15.696  0.00  0.00    +0.000 A 
ATOM     24  C   UNL     1       7.337   4.757  16.446  0.00  0.00    +0.000 A 
ATOM     25  C   UNL     1       6.698   5.607  17.334  0.00  0.00    +0.000 A 
BRANCH  25  26
ATOM     26  N   UNL     1       7.344   6.837  17.776  0.00  0.00    +0.000 N 
ATOM     27  O   UNL     1       7.081   7.862  17.120  0.00  0.00    +0.000 OA
ATOM     28  O   UNL     1       8.122   6.784  18.730  0.00  0.00    +0.000 OA
ENDBRANCH  25  26
ENDBRANCH  19  20
ENDBRANCH   1  19
TORSDOF 8
ENDMDL
