MODEL 1
REMARK VINA RESULT:      -7.6      0.000      0.000
REMARK  Name = 
REMARK  10 active torsions:
REMARK  status: ('A' for Active; 'I' for Inactive)
REMARK    1  A    between atoms: C_1  and  C_2
REMARK    2  A    between atoms: C_2  and  C_3
REMARK    3  A    between atoms: C_3  and  C_4
REMARK    4  A    between atoms: C_4  and  C_5
REMARK    5  A    between atoms: C_5  and  C_6
REMARK    6  A    between atoms: C_6  and  C_7
REMARK    7  A    between atoms: C_7  and  C_8
REMARK    8  A    between atoms: C_8  and  O_9
REMARK    9  A    between atoms: C_8  and  C_10
REMARK   10  A    between atoms: C_8  and  C_17
REMARK                            x       y       z     vdW  Elec       q    Type
REMARK                         _______ _______ _______ _____ _____    ______ ____
ROOT
ATOM      1  C   UNL     1       5.490   5.699  16.172  0.00  0.00    +0.000 C 
ENDROOT
BRANCH   1   2
ATOM      2  C   UNL     1       4.223   5.314  16.958  0.00  0.00    +0.000 A 
ATOM      3  C   UNL     1       3.421   6.276  17.601  0.00  0.00    +0.000 A 
ATOM      4  C   UNL     1       2.260   5.908  18.292  0.00  0.00    +0.000 A 
ATOM      5  C   UNL     1       1.885   4.569  18.366  0.00  0.00    +0.000 A 
ATOM      6  C   UNL     1       2.670   3.602  17.747  0.00  0.00    +0.000 A 
ATOM      7 CL   UNL     1       2.217   1.946  17.848  0.00  0.00    +0.000 Cl
ATOM      8  C   UNL     1       3.823   3.966  17.043  0.00  0.00    +0.000 A 
ENDBRANCH   1   2
BRANCH   1   9
ATOM      9  C   UNL     1       6.564   6.314  17.099  0.00  0.00    +0.000 A 
ATOM     10  C   UNL     1       7.064   5.588  18.185  0.00  0.00    +0.000 A 
ATOM     11  C   UNL     1       8.002   6.180  19.025  0.00  0.00    +0.000 A 
ATOM     12  C   UNL     1       8.431   7.473  18.766  0.00  0.00    +0.000 A 
ATOM     13  C   UNL     1       7.914   8.123  17.660  0.00  0.00    +0.000 A 
ATOM     14  N   UNL     1       7.006   7.574  16.825  0.00  0.00    +0.000 NA
ENDBRANCH   1   9
BRANCH   1  15
ATOM     15  O   UNL     1       5.173   6.697  15.179  0.00  0.00    +0.000 OA
ATOM     16  H   UNL     1       5.969   6.835  14.644  0.00  0.00    +0.000 HD
ENDBRANCH   1  15
BRANCH   1  17
ATOM     17  C   UNL     1       6.101   4.477  15.420  0.00  0.00    +0.000 C 
BRANCH  17  18
ATOM     18  C   UNL     1       6.567   4.753  13.987  0.00  0.00    +0.000 C 
BRANCH  18  19
ATOM     19  C   UNL     1       6.479   3.489  13.129  0.00  0.00    +0.000 C 
BRANCH  19  20
ATOM     20  C   UNL     1       5.658   3.757  11.871  0.00  0.00    +0.000 C 
BRANCH  20  21
ATOM     21  C   UNL     1       4.215   3.288  12.034  0.00  0.00    +0.000 C 
BRANCH  21  23
ATOM     22  C   UNL     1       3.179   4.256   9.955  0.00  0.00    +0.000 C 
ATOM     23  C   UNL     1       3.588   2.982  10.675  0.00  0.00    +0.000 C 
ENDBRANCH  21  23
ENDBRANCH  20  21
ENDBRANCH  19  20
ENDBRANCH  18  19
ENDBRANCH  17  18
ENDBRANCH   1  17
TORSDOF 9
ENDMDL
MODEL 2
REMARK VINA RESULT:      -7.4      2.508      4.582
REMARK  Name = 
REMARK  10 active torsions:
REMARK  status: ('A' for Active; 'I' for Inactive)
REMARK    1  A    between atoms: C_1  and  C_2
REMARK    2  A    between atoms: C_2  and  C_3
REMARK    3  A    between atoms: C_3  and  C_4
REMARK    4  A    between atoms: C_4  and  C_5
REMARK    5  A    between atoms: C_5  and  C_6
REMARK    6  A    between atoms: C_6  and  C_7
REMARK    7  A    between atoms: C_7  and  C_8
REMARK    8  A    between atoms: C_8  and  O_9
REMARK    9  A    between atoms: C_8  and  C_10
REMARK   10  A    between atoms: C_8  and  C_17
REMARK                            x       y       z     vdW  Elec       q    Type
REMARK                         _______ _______ _______ _____ _____    ______ ____
ROOT
ATOM      1  C   UNL     1       5.527   4.568  16.415  0.00  0.00    +0.000 C 
ENDROOT
BRANCH   1   2
ATOM      2  C   UNL     1       6.484   5.373  17.314  0.00  0.00    +0.000 A 
ATOM      3  C   UNL     1       7.118   4.800  18.433  0.00  0.00    +0.000 A 
ATOM      4  C   UNL     1       8.002   5.543  19.225  0.00  0.00    +0.000 A 
ATOM      5  C   UNL     1       8.258   6.877  18.923  0.00  0.00    +0.000 A 
ATOM      6  C   UNL     1       7.634   7.465  17.829  0.00  0.00    +0.000 A 
ATOM      7 CL   UNL     1       7.938   9.117  17.460  0.00  0.00    +0.000 Cl
ATOM      8  C   UNL     1       6.760   6.724  17.025  0.00  0.00    +0.000 A 
ENDBRANCH   1   2
BRANCH   1   9
ATOM      9  C   UNL     1       4.112   4.484  17.030  0.00  0.00    +0.000 A 
ATOM     10  C   UNL     1       3.488   5.629  17.534  0.00  0.00    +0.000 A 
ATOM     11  C   UNL     1       2.228   5.518  18.117  0.00  0.00    +0.000 A 
ATOM     12  C   UNL     1       1.612   4.277  18.178  0.00  0.00    +0.000 A 
ATOM     13  C   UNL     1       2.275   3.191  17.638  0.00  0.00    +0.000 A 
ATOM     14  N   UNL     1       3.495   3.268  17.063  0.00  0.00    +0.000 NA
ENDBRANCH   1   9
BRANCH   1  15
ATOM     15  O   UNL     1       6.003   3.213  16.274  0.00  0.00    +0.000 OA
ATOM     16  H   UNL     1       6.380   3.130  15.385  0.00  0.00    +0.000 HD
ENDBRANCH   1  15
BRANCH   1  17
ATOM     17  C   UNL     1       5.428   5.175  14.982  0.00  0.00    +0.000 C 
BRANCH  17  18
ATOM     18  C   UNL     1       6.574   4.809  14.033  0.00  0.00    +0.000 C 
BRANCH  18  19
ATOM     19  C   UNL     1       6.191   3.626  13.140  0.00  0.00    +0.000 C 
BRANCH  19  20
ATOM     20  C   UNL     1       4.951   3.961  12.317  0.00  0.00    +0.000 C 
BRANCH  20  21
ATOM     21  C   UNL     1       4.665   2.885  11.273  0.00  0.00    +0.000 C 
BRANCH  21  23
ATOM     22  C   UNL     1       3.097   4.155   9.769  0.00  0.00    +0.000 C 
ATOM     23  C   UNL     1       3.234   3.004  10.751  0.00  0.00    +0.000 C 
ENDBRANCH  21  23
ENDBRANCH  20  21
ENDBRANCH  19  20
ENDBRANCH  18  19
ENDBRANCH  17  18
ENDBRANCH   1  17
TORSDOF 9
ENDMDL
MODEL 3
REMARK VINA RESULT:      -7.3      3.443      5.991
REMARK  Name = 
REMARK  10 active torsions:
REMARK  status: ('A' for Active; 'I' for Inactive)
REMARK    1  A    between atoms: C_1  and  C_2
REMARK    2  A    between atoms: C_2  and  C_3
REMARK    3  A    between atoms: C_3  and  C_4
REMARK    4  A    between atoms: C_4  and  C_5
REMARK    5  A    between atoms: C_5  and  C_6
REMARK    6  A    between atoms: C_6  and  C_7
REMARK    7  A    between atoms: C_7  and  C_8
REMARK    8  A    between atoms: C_8  and  O_9
REMARK    9  A    between atoms: C_8  and  C_10
REMARK   10  A    between atoms: C_8  and  C_17
REMARK                            x       y       z     vdW  Elec       q    Type
REMARK                         _______ _______ _______ _____ _____    ______ ____
ROOT
ATOM      1  C   UNL     1       3.341   5.674  18.879  0.00  0.00    +0.000 C 
ENDROOT
BRANCH   1   2
ATOM      2  C   UNL     1       2.623   7.036  18.918  0.00  0.00    +0.000 A 
ATOM      3  C   UNL     1       2.581   7.892  17.801  0.00  0.00    +0.000 A 
ATOM      4  C   UNL     1       1.904   9.116  17.850  0.00  0.00    +0.000 A 
ATOM      5  C   UNL     1       1.269   9.517  19.022  0.00  0.00    +0.000 A 
ATOM      6  C   UNL     1       1.308   8.692  20.141  0.00  0.00    +0.000 A 
ATOM      7 CL   UNL     1       0.535   9.190  21.594  0.00  0.00    +0.000 Cl
ATOM      8  C   UNL     1       1.971   7.461  20.093  0.00  0.00    +0.000 A 
ENDBRANCH   1   2
BRANCH   1   9
ATOM      9  C   UNL     1       2.549   4.595  19.651  0.00  0.00    +0.000 A 
ATOM     10  C   UNL     1       1.477   3.932  19.044  0.00  0.00    +0.000 A 
ATOM     11  C   UNL     1       0.756   2.992  19.776  0.00  0.00    +0.000 A 
ATOM     12  C   UNL     1       1.119   2.723  21.087  0.00  0.00    +0.000 A 
ATOM     13  C   UNL     1       2.205   3.397  21.615  0.00  0.00    +0.000 A 
ATOM     14  N   UNL     1       2.926   4.311  20.930  0.00  0.00    +0.000 NA
ENDBRANCH   1   9
BRANCH   1  15
ATOM     15  O   UNL     1       4.634   5.777  19.512  0.00  0.00    +0.000 OA
ATOM     16  H   UNL     1       4.505   6.226  20.360  0.00  0.00    +0.000 HD
ENDBRANCH   1  15
BRANCH   1  17
ATOM     17  C   UNL     1       3.580   5.186  17.417  0.00  0.00    +0.000 C 
BRANCH  17  18
ATOM     18  C   UNL     1       4.710   4.166  17.241  0.00  0.00    +0.000 C 
BRANCH  18  19
ATOM     19  C   UNL     1       5.172   4.104  15.783  0.00  0.00    +0.000 C 
BRANCH  19  20
ATOM     20  C   UNL     1       6.450   4.918  15.596  0.00  0.00    +0.000 C 
BRANCH  20  21
ATOM     21  C   UNL     1       7.217   5.064  16.907  0.00  0.00    +0.000 C 
BRANCH  21  23
ATOM     22  C   UNL     1       7.976   6.691  18.671  0.00  0.00    +0.000 C 
ATOM     23  C   UNL     1       7.348   6.536  17.295  0.00  0.00    +0.000 C 
ENDBRANCH  21  23
ENDBRANCH  20  21
ENDBRANCH  19  20
ENDBRANCH  18  19
ENDBRANCH  17  18
ENDBRANCH   1  17
TORSDOF 9
ENDMDL
MODEL 4
REMARK VINA RESULT:      -7.3      2.166      5.598
REMARK  Name = 
REMARK  10 active torsions:
REMARK  status: ('A' for Active; 'I' for Inactive)
REMARK    1  A    between atoms: C_1  and  C_2
REMARK    2  A    between atoms: C_2  and  C_3
REMARK    3  A    between atoms: C_3  and  C_4
REMARK    4  A    between atoms: C_4  and  C_5
REMARK    5  A    between atoms: C_5  and  C_6
REMARK    6  A    between atoms: C_6  and  C_7
REMARK    7  A    between atoms: C_7  and  C_8
REMARK    8  A    between atoms: C_8  and  O_9
REMARK    9  A    between atoms: C_8  and  C_10
REMARK   10  A    between atoms: C_8  and  C_17
REMARK                            x       y       z     vdW  Elec       q    Type
REMARK                         _______ _______ _______ _____ _____    ______ ____
ROOT
ATOM      1  C   UNL     1       5.691   4.635  16.266  0.00  0.00    +0.000 C 
ENDROOT
BRANCH   1   2
ATOM      2  C   UNL     1       6.168   4.511  14.807  0.00  0.00    +0.000 A 
ATOM      3  C   UNL     1       7.324   5.167  14.340  0.00  0.00    +0.000 A 
ATOM      4  C   UNL     1       7.753   5.024  13.015  0.00  0.00    +0.000 A 
ATOM      5  C   UNL     1       7.028   4.236  12.126  0.00  0.00    +0.000 A 
ATOM      6  C   UNL     1       5.877   3.589  12.564  0.00  0.00    +0.000 A 
ATOM      7 CL   UNL     1       4.972   2.624  11.465  0.00  0.00    +0.000 Cl
ATOM      8  C   UNL     1       5.451   3.716  13.891  0.00  0.00    +0.000 A 
ENDBRANCH   1   2
BRANCH   1   9
ATOM      9  C   UNL     1       6.594   5.592  17.076  0.00  0.00    +0.000 A 
ATOM     10  C   UNL     1       7.318   5.124  18.177  0.00  0.00    +0.000 A 
ATOM     11  C   UNL     1       8.093   6.017  18.912  0.00  0.00    +0.000 A 
ATOM     12  C   UNL     1       8.141   7.351  18.534  0.00  0.00    +0.000 A 
ATOM     13  C   UNL     1       7.420   7.740  17.420  0.00  0.00    +0.000 A 
ATOM     14  N   UNL     1       6.663   6.897  16.685  0.00  0.00    +0.000 NA
ENDBRANCH   1   9
BRANCH   1  15
ATOM     15  O   UNL     1       5.754   3.349  16.918  0.00  0.00    +0.000 OA
ATOM     16  H   UNL     1       6.186   3.480  17.775  0.00  0.00    +0.000 HD
ENDBRANCH   1  15
BRANCH   1  17
ATOM     17  C   UNL     1       4.213   5.126  16.354  0.00  0.00    +0.000 C 
BRANCH  17  18
ATOM     18  C   UNL     1       3.583   5.066  17.749  0.00  0.00    +0.000 C 
BRANCH  18  19
ATOM     19  C   UNL     1       2.159   4.512  17.685  0.00  0.00    +0.000 C 
BRANCH  19  20
ATOM     20  C   UNL     1       2.146   3.034  18.065  0.00  0.00    +0.000 C 
BRANCH  20  21
ATOM     21  C   UNL     1       0.941   2.690  18.936  0.00  0.00    +0.000 C 
BRANCH  21  23
ATOM     22  C   UNL     1       1.453   2.797  21.398  0.00  0.00    +0.000 C 
ATOM     23  C   UNL     1       0.919   3.555  20.195  0.00  0.00    +0.000 C 
ENDBRANCH  21  23
ENDBRANCH  20  21
ENDBRANCH  19  20
ENDBRANCH  18  19
ENDBRANCH  17  18
ENDBRANCH   1  17
TORSDOF 9
ENDMDL
MODEL 5
REMARK VINA RESULT:      -7.3      1.691      2.166
REMARK  Name = 
REMARK  10 active torsions:
REMARK  status: ('A' for Active; 'I' for Inactive)
REMARK    1  A    between atoms: C_1  and  C_2
REMARK    2  A    between atoms: C_2  and  C_3
REMARK    3  A    between atoms: C_3  and  C_4
REMARK    4  A    between atoms: C_4  and  C_5
REMARK    5  A    between atoms: C_5  and  C_6
REMARK    6  A    between atoms: C_6  and  C_7
REMARK    7  A    between atoms: C_7  and  C_8
REMARK    8  A    between atoms: C_8  and  O_9
REMARK    9  A    between atoms: C_8  and  C_10
REMARK   10  A    between atoms: C_8  and  C_17
REMARK                            x       y       z     vdW  Elec       q    Type
REMARK                         _______ _______ _______ _____ _____    ______ ____
ROOT
ATOM      1  C   UNL     1       5.377   5.055  16.377  0.00  0.00    +0.000 C 
ENDROOT
BRANCH   1   2
ATOM      2  C   UNL     1       4.193   4.586  17.243  0.00  0.00    +0.000 A 
ATOM      3  C   UNL     1       3.636   3.299  17.115  0.00  0.00    +0.000 A 
ATOM      4  C   UNL     1       2.573   2.885  17.927  0.00  0.00    +0.000 A 
ATOM      5  C   UNL     1       2.035   3.753  18.872  0.00  0.00    +0.000 A 
ATOM      6  C   UNL     1       2.563   5.033  19.007  0.00  0.00    +0.000 A 
ATOM      7 CL   UNL     1       1.893   6.113  20.165  0.00  0.00    +0.000 Cl
ATOM      8  C   UNL     1       3.634   5.448  18.208  0.00  0.00    +0.000 A 
ENDBRANCH   1   2
BRANCH   1   9
ATOM      9  C   UNL     1       6.452   5.766  17.229  0.00  0.00    +0.000 A 
ATOM     10  C   UNL     1       6.970   5.154  18.375  0.00  0.00    +0.000 A 
ATOM     11  C   UNL     1       7.909   5.833  19.145  0.00  0.00    +0.000 A 
ATOM     12  C   UNL     1       8.323   7.099  18.757  0.00  0.00    +0.000 A 
ATOM     13  C   UNL     1       7.789   7.634  17.600  0.00  0.00    +0.000 A 
ATOM     14  N   UNL     1       6.880   6.998  16.830  0.00  0.00    +0.000 NA
ENDBRANCH   1   9
BRANCH   1  15
ATOM     15  O   UNL     1       4.925   6.008  15.393  0.00  0.00    +0.000 OA
ATOM     16  H   UNL     1       5.668   6.184  14.797  0.00  0.00    +0.000 HD
ENDBRANCH   1  15
BRANCH   1  17
ATOM     17  C   UNL     1       6.036   3.871  15.605  0.00  0.00    +0.000 C 
BRANCH  17  18
ATOM     18  C   UNL     1       6.711   4.244  14.281  0.00  0.00    +0.000 C 
BRANCH  18  19
ATOM     19  C   UNL     1       6.043   3.532  13.104  0.00  0.00    +0.000 C 
BRANCH  19  20
ATOM     20  C   UNL     1       6.952   3.563  11.878  0.00  0.00    +0.000 C 
BRANCH  20  21
ATOM     21  C   UNL     1       7.169   2.164  11.307  0.00  0.00    +0.000 C 
BRANCH  21  23
ATOM     22  C   UNL     1       6.107  -0.115  11.206  0.00  0.00    +0.000 C 
ATOM     23  C   UNL     1       5.857   1.383  11.275  0.00  0.00    +0.000 C 
ENDBRANCH  21  23
ENDBRANCH  20  21
ENDBRANCH  19  20
ENDBRANCH  18  19
ENDBRANCH  17  18
ENDBRANCH   1  17
TORSDOF 9
ENDMDL
MODEL 6
REMARK VINA RESULT:      -7.2      1.115      1.383
REMARK  Name = 
REMARK  10 active torsions:
REMARK  status: ('A' for Active; 'I' for Inactive)
REMARK    1  A    between atoms: C_1  and  C_2
REMARK    2  A    between atoms: C_2  and  C_3
REMARK    3  A    between atoms: C_3  and  C_4
REMARK    4  A    between atoms: C_4  and  C_5
REMARK    5  A    between atoms: C_5  and  C_6
REMARK    6  A    between atoms: C_6  and  C_7
REMARK    7  A    between atoms: C_7  and  C_8
REMARK    8  A    between atoms: C_8  and  O_9
REMARK    9  A    between atoms: C_8  and  C_10
REMARK   10  A    between atoms: C_8  and  C_17
REMARK                            x       y       z     vdW  Elec       q    Type
REMARK                         _______ _______ _______ _____ _____    ______ ____
ROOT
ATOM      1  C   UNL     1       5.372   5.851  16.299  0.00  0.00    +0.000 C 
ENDROOT
BRANCH   1   2
ATOM      2  C   UNL     1       4.152   5.443  17.145  0.00  0.00    +0.000 A 
ATOM      3  C   UNL     1       3.418   6.379  17.899  0.00  0.00    +0.000 A 
ATOM      4  C   UNL     1       2.298   5.991  18.645  0.00  0.00    +0.000 A 
ATOM      5  C   UNL     1       1.899   4.658  18.665  0.00  0.00    +0.000 A 
ATOM      6  C   UNL     1       2.617   3.716  17.936  0.00  0.00    +0.000 A 
ATOM      7 CL   UNL     1       2.134   2.066  17.969  0.00  0.00    +0.000 Cl
ATOM      8  C   UNL     1       3.728   4.099  17.178  0.00  0.00    +0.000 A 
ENDBRANCH   1   2
BRANCH   1   9
ATOM      9  C   UNL     1       6.497   6.444  17.178  0.00  0.00    +0.000 A 
ATOM     10  C   UNL     1       7.033   5.706  18.238  0.00  0.00    +0.000 A 
ATOM     11  C   UNL     1       8.018   6.279  19.037  0.00  0.00    +0.000 A 
ATOM     12  C   UNL     1       8.456   7.566  18.762  0.00  0.00    +0.000 A 
ATOM     13  C   UNL     1       7.901   8.229  17.684  0.00  0.00    +0.000 A 
ATOM     14  N   UNL     1       6.947   7.698  16.888  0.00  0.00    +0.000 NA
ENDBRANCH   1   9
BRANCH   1  15
ATOM     15  O   UNL     1       4.999   6.873  15.351  0.00  0.00    +0.000 OA
ATOM     16  H   UNL     1       5.257   6.560  14.471  0.00  0.00    +0.000 HD
ENDBRANCH   1  15
BRANCH   1  17
ATOM     17  C   UNL     1       5.940   4.649  15.482  0.00  0.00    +0.000 C 
BRANCH  17  18
ATOM     18  C   UNL     1       7.322   4.872  14.859  0.00  0.00    +0.000 C 
BRANCH  18  19
ATOM     19  C   UNL     1       7.256   4.793  13.333  0.00  0.00    +0.000 C 
BRANCH  19  20
ATOM     20  C   UNL     1       6.137   3.851  12.897  0.00  0.00    +0.000 C 
BRANCH  20  21
ATOM     21  C   UNL     1       6.554   3.004  11.698  0.00  0.00    +0.000 C 
BRANCH  21  23
ATOM     22  C   UNL     1       6.308   0.569  11.109  0.00  0.00    +0.000 C 
ATOM     23  C   UNL     1       5.578   1.848  11.486  0.00  0.00    +0.000 C 
ENDBRANCH  21  23
ENDBRANCH  20  21
ENDBRANCH  19  20
ENDBRANCH  18  19
ENDBRANCH  17  18
ENDBRANCH   1  17
TORSDOF 9
ENDMDL
MODEL 7
REMARK VINA RESULT:      -7.2      3.868      5.353
REMARK  Name = 
REMARK  10 active torsions:
REMARK  status: ('A' for Active; 'I' for Inactive)
REMARK    1  A    between atoms: C_1  and  C_2
REMARK    2  A    between atoms: C_2  and  C_3
REMARK    3  A    between atoms: C_3  and  C_4
REMARK    4  A    between atoms: C_4  and  C_5
REMARK    5  A    between atoms: C_5  and  C_6
REMARK    6  A    between atoms: C_6  and  C_7
REMARK    7  A    between atoms: C_7  and  C_8
REMARK    8  A    between atoms: C_8  and  O_9
REMARK    9  A    between atoms: C_8  and  C_10
REMARK   10  A    between atoms: C_8  and  C_17
REMARK                            x       y       z     vdW  Elec       q    Type
REMARK                         _______ _______ _______ _____ _____    ______ ____
ROOT
ATOM      1  C   UNL     1       4.279   5.369  18.117  0.00  0.00    +0.000 C 
ENDROOT
BRANCH   1   2
ATOM      2  C   UNL     1       3.262   6.334  18.754  0.00  0.00    +0.000 A 
ATOM      3  C   UNL     1       2.697   6.096  20.022  0.00  0.00    +0.000 A 
ATOM      4  C   UNL     1       1.791   6.997  20.593  0.00  0.00    +0.000 A 
ATOM      5  C   UNL     1       1.419   8.147  19.903  0.00  0.00    +0.000 A 
ATOM      6  C   UNL     1       1.957   8.395  18.644  0.00  0.00    +0.000 A 
ATOM      7 CL   UNL     1       1.490   9.809  17.783  0.00  0.00    +0.000 Cl
ATOM      8  C   UNL     1       2.874   7.506  18.074  0.00  0.00    +0.000 A 
ENDBRANCH   1   2
BRANCH   1   9
ATOM      9  C   UNL     1       5.731   5.836  18.361  0.00  0.00    +0.000 A 
ATOM     10  C   UNL     1       6.331   6.767  17.507  0.00  0.00    +0.000 A 
ATOM     11  C   UNL     1       7.653   7.141  17.728  0.00  0.00    +0.000 A 
ATOM     12  C   UNL     1       8.348   6.594  18.796  0.00  0.00    +0.000 A 
ATOM     13  C   UNL     1       7.686   5.698  19.616  0.00  0.00    +0.000 A 
ATOM     14  N   UNL     1       6.404   5.319  19.429  0.00  0.00    +0.000 NA
ENDBRANCH   1   9
BRANCH   1  15
ATOM     15  O   UNL     1       4.089   5.322  16.687  0.00  0.00    +0.000 OA
ATOM     16  H   UNL     1       3.369   4.699  16.511  0.00  0.00    +0.000 HD
ENDBRANCH   1  15
BRANCH   1  17
ATOM     17  C   UNL     1       4.112   3.913  18.653  0.00  0.00    +0.000 C 
BRANCH  17  18
ATOM     18  C   UNL     1       3.727   2.866  17.602  0.00  0.00    +0.000 C 
BRANCH  18  19
ATOM     19  C   UNL     1       2.398   2.196  17.957  0.00  0.00    +0.000 C 
BRANCH  19  20
ATOM     20  C   UNL     1       1.320   3.248  18.199  0.00  0.00    +0.000 C 
BRANCH  20  21
ATOM     21  C   UNL     1       0.670   3.078  19.570  0.00  0.00    +0.000 C 
BRANCH  21  23
ATOM     22  C   UNL     1       1.828   3.044  21.804  0.00  0.00    +0.000 C 
ATOM     23  C   UNL     1       1.583   2.290  20.508  0.00  0.00    +0.000 C 
ENDBRANCH  21  23
ENDBRANCH  20  21
ENDBRANCH  19  20
ENDBRANCH  18  19
ENDBRANCH  17  18
ENDBRANCH   1  17
TORSDOF 9
ENDMDL
MODEL 8
REMARK VINA RESULT:      -7.2      2.794      4.835
REMARK  Name = 
REMARK  10 active torsions:
REMARK  status: ('A' for Active; 'I' for Inactive)
REMARK    1  A    between atoms: C_1  and  C_2
REMARK    2  A    between atoms: C_2  and  C_3
REMARK    3  A    between atoms: C_3  and  C_4
REMARK    4  A    between atoms: C_4  and  C_5
REMARK    5  A    between atoms: C_5  and  C_6
REMARK    6  A    between atoms: C_6  and  C_7
REMARK    7  A    between atoms: C_7  and  C_8
REMARK    8  A    between atoms: C_8  and  O_9
REMARK    9  A    between atoms: C_8  and  C_10
REMARK   10  A    between atoms: C_8  and  C_17
REMARK                            x       y       z     vdW  Elec       q    Type
REMARK                         _______ _______ _______ _____ _____    ______ ____
ROOT
ATOM      1  C   UNL     1       5.483   4.610  16.525  0.00  0.00    +0.000 C 
ENDROOT
BRANCH   1   2
ATOM      2  C   UNL     1       6.462   5.379  17.432  0.00  0.00    +0.000 A 
ATOM      3  C   UNL     1       7.077   4.779  18.548  0.00  0.00    +0.000 A 
ATOM      4  C   UNL     1       7.981   5.488  19.348  0.00  0.00    +0.000 A 
ATOM      5  C   UNL     1       8.276   6.817  19.058  0.00  0.00    +0.000 A 
ATOM      6  C   UNL     1       7.671   7.433  17.967  0.00  0.00    +0.000 A 
ATOM      7 CL   UNL     1       8.024   9.078  17.614  0.00  0.00    +0.000 Cl
ATOM      8  C   UNL     1       6.778   6.724  17.156  0.00  0.00    +0.000 A 
ENDBRANCH   1   2
BRANCH   1   9
ATOM      9  C   UNL     1       4.087   4.488  17.176  0.00  0.00    +0.000 A 
ATOM     10  C   UNL     1       3.436   5.619  17.677  0.00  0.00    +0.000 A 
ATOM     11  C   UNL     1       2.196   5.474  18.293  0.00  0.00    +0.000 A 
ATOM     12  C   UNL     1       1.625   4.214  18.389  0.00  0.00    +0.000 A 
ATOM     13  C   UNL     1       2.312   3.143  17.850  0.00  0.00    +0.000 A 
ATOM     14  N   UNL     1       3.514   3.252  17.243  0.00  0.00    +0.000 NA
ENDBRANCH   1   9
BRANCH   1  15
ATOM     15  O   UNL     1       5.963   3.267  16.306  0.00  0.00    +0.000 OA
ATOM     16  H   UNL     1       6.825   3.335  15.869  0.00  0.00    +0.000 HD
ENDBRANCH   1  15
BRANCH   1  17
ATOM     17  C   UNL     1       5.339   5.283  15.125  0.00  0.00    +0.000 C 
BRANCH  17  18
ATOM     18  C   UNL     1       6.227   4.700  14.021  0.00  0.00    +0.000 C 
BRANCH  18  19
ATOM     19  C   UNL     1       5.407   3.845  13.052  0.00  0.00    +0.000 C 
BRANCH  19  20
ATOM     20  C   UNL     1       6.331   3.055  12.128  0.00  0.00    +0.000 C 
BRANCH  20  21
ATOM     21  C   UNL     1       5.580   1.938  11.409  0.00  0.00    +0.000 C 
BRANCH  21  23
ATOM     22  C   UNL     1       6.108  -0.522  11.371  0.00  0.00    +0.000 C 
ATOM     23  C   UNL     1       6.548   0.862  10.922  0.00  0.00    +0.000 C 
ENDBRANCH  21  23
ENDBRANCH  20  21
ENDBRANCH  19  20
ENDBRANCH  18  19
ENDBRANCH  17  18
ENDBRANCH   1  17
TORSDOF 9
ENDMDL
MODEL 9
REMARK VINA RESULT:      -7.2      3.020      4.970
REMARK  Name = 
REMARK  10 active torsions:
REMARK  status: ('A' for Active; 'I' for Inactive)
REMARK    1  A    between atoms: C_1  and  C_2
REMARK    2  A    between atoms: C_2  and  C_3
REMARK    3  A    between atoms: C_3  and  C_4
REMARK    4  A    between atoms: C_4  and  C_5
REMARK    5  A    between atoms: C_5  and  C_6
REMARK    6  A    between atoms: C_6  and  C_7
REMARK    7  A    between atoms: C_7  and  C_8
REMARK    8  A    between atoms: C_8  and  O_9
REMARK    9  A    between atoms: C_8  and  C_10
REMARK   10  A    between atoms: C_8  and  C_17
REMARK                            x       y       z     vdW  Elec       q    Type
REMARK                         _______ _______ _______ _____ _____    ______ ____
ROOT
ATOM      1  C   UNL     1       3.753   5.865  18.573  0.00  0.00    +0.000 C 
ENDROOT
BRANCH   1   2
ATOM      2  C   UNL     1       2.846   7.090  18.794  0.00  0.00    +0.000 A 
ATOM      3  C   UNL     1       2.606   8.036  17.779  0.00  0.00    +0.000 A 
ATOM      4  C   UNL     1       1.760   9.131  17.992  0.00  0.00    +0.000 A 
ATOM      5  C   UNL     1       1.149   9.311  19.230  0.00  0.00    +0.000 A 
ATOM      6  C   UNL     1       1.381   8.394  20.249  0.00  0.00    +0.000 A 
ATOM      7 CL   UNL     1       0.637   8.620  21.783  0.00  0.00    +0.000 Cl
ATOM      8  C   UNL     1       2.214   7.290  20.037  0.00  0.00    +0.000 A 
ENDBRANCH   1   2
BRANCH   1   9
ATOM      9  C   UNL     1       2.962   4.545  18.704  0.00  0.00    +0.000 A 
ATOM     10  C   UNL     1       1.741   4.380  18.043  0.00  0.00    +0.000 A 
ATOM     11  C   UNL     1       1.030   3.195  18.210  0.00  0.00    +0.000 A 
ATOM     12  C   UNL     1       1.550   2.196  19.019  0.00  0.00    +0.000 A 
ATOM     13  C   UNL     1       2.775   2.415  19.622  0.00  0.00    +0.000 A 
ATOM     14  N   UNL     1       3.489   3.552  19.477  0.00  0.00    +0.000 NA
ENDBRANCH   1   9
BRANCH   1  15
ATOM     15  O   UNL     1       4.792   5.832  19.574  0.00  0.00    +0.000 OA
ATOM     16  H   UNL     1       4.714   6.642  20.100  0.00  0.00    +0.000 HD
ENDBRANCH   1  15
BRANCH   1  17
ATOM     17  C   UNL     1       4.455   5.906  17.181  0.00  0.00    +0.000 C 
BRANCH  17  18
ATOM     18  C   UNL     1       4.839   4.542  16.598  0.00  0.00    +0.000 C 
BRANCH  18  19
ATOM     19  C   UNL     1       6.360   4.383  16.530  0.00  0.00    +0.000 C 
BRANCH  19  20
ATOM     20  C   UNL     1       6.845   4.526  15.090  0.00  0.00    +0.000 C 
BRANCH  20  21
ATOM     21  C   UNL     1       5.728   4.234  14.091  0.00  0.00    +0.000 C 
BRANCH  21  23
ATOM     22  C   UNL     1       5.183   3.115  11.905  0.00  0.00    +0.000 C 
ATOM     23  C   UNL     1       6.292   3.616  12.814  0.00  0.00    +0.000 C 
ENDBRANCH  21  23
ENDBRANCH  20  21
ENDBRANCH  19  20
ENDBRANCH  18  19
ENDBRANCH  17  18
ENDBRANCH   1  17
TORSDOF 9
ENDMDL
