MODEL 1
REMARK VINA RESULT:      -7.0      0.000      0.000
REMARK  Name = 
REMARK  5 active torsions:
REMARK  status: ('A' for Active; 'I' for Inactive)
REMARK    1  A    between atoms: C_1  and  C_2
REMARK    2  A    between atoms: C_2  and  C_3
REMARK    3  A    between atoms: C_3  and  N_4
REMARK    4  A    between atoms: N_4  and  C_5
REMARK    5  A    between atoms: C_5  and  C_6
REMARK                            x       y       z     vdW  Elec       q    Type
REMARK                         _______ _______ _______ _____ _____    ______ ____
ROOT
ATOM      1  C   UNL     1       6.154   4.362  17.747  0.00  0.00    +0.000 C 
ATOM      2  O   UNL     1       6.332   4.616  18.936  0.00  0.00    +0.000 OA
ATOM      3  N   UNL     1       4.998   3.824  17.198  0.00  0.00    +0.000 N 
ATOM      4  C   UNL     1       3.922   3.521  18.002  0.00  0.00    +0.000 A 
ATOM      5  N   UNL     1       3.437   2.283  17.949  0.00  0.00    +0.000 NA
ATOM      6  S   UNL     1       2.274   2.129  19.127  0.00  0.00    +0.000 S 
ATOM      7  C   UNL     1       2.224   3.787  19.571  0.00  0.00    +0.000 A 
ATOM      8  C   UNL     1       1.385   4.442  20.488  0.00  0.00    +0.000 A 
ATOM      9  C   UNL     1       1.490   5.831  20.613  0.00  0.00    +0.000 A 
ATOM     10  C   UNL     1       2.406   6.542  19.850  0.00  0.00    +0.000 A 
ATOM     11  C   UNL     1       3.263   5.873  18.971  0.00  0.00    +0.000 A 
ATOM     12  C   UNL     1       3.195   4.463  18.831  0.00  0.00    +0.000 A 
ATOM     13  H   UNL     1       5.129   3.210  16.410  0.00  0.00    +0.000 HD
ENDROOT
BRANCH   1  14
ATOM     14  C   UNL     1       7.233   4.635  16.700  0.00  0.00    +0.000 C 
BRANCH  14  15
ATOM     15  N   UNL     1       6.700   5.467  15.607  0.00  0.00    +0.000 NA
ATOM     16  H   UNL     1       5.682   5.481  15.670  0.00  0.00    +0.000 HD
BRANCH  15  17
ATOM     17  C   UNL     1       7.083   4.920  14.298  0.00  0.00    +0.000 C 
BRANCH  17  19
ATOM     18  C   UNL     1       6.253   3.514  12.390  0.00  0.00    +0.000 C 
ATOM     19  C   UNL     1       6.049   3.896  13.848  0.00  0.00    +0.000 C 
ENDBRANCH  17  19
ENDBRANCH  15  17
ENDBRANCH  14  15
ENDBRANCH   1  14
TORSDOF 4
ENDMDL
MODEL 2
REMARK VINA RESULT:      -6.9      1.498      1.696
REMARK  Name = 
REMARK  5 active torsions:
REMARK  status: ('A' for Active; 'I' for Inactive)
REMARK    1  A    between atoms: C_1  and  C_2
REMARK    2  A    between atoms: C_2  and  C_3
REMARK    3  A    between atoms: C_3  and  N_4
REMARK    4  A    between atoms: N_4  and  C_5
REMARK    5  A    between atoms: C_5  and  C_6
REMARK                            x       y       z     vdW  Elec       q    Type
REMARK                         _______ _______ _______ _____ _____    ______ ____
ROOT
ATOM      1  C   UNL     1       6.694   4.666  18.762  0.00  0.00    +0.000 C 
ATOM      2  O   UNL     1       6.690   5.421  19.731  0.00  0.00    +0.000 OA
ATOM      3  N   UNL     1       5.696   3.756  18.440  0.00  0.00    +0.000 N 
ATOM      4  C   UNL     1       4.579   3.639  19.237  0.00  0.00    +0.000 A 
ATOM      5  N   UNL     1       4.272   2.430  19.701  0.00  0.00    +0.000 NA
ATOM      6  S   UNL     1       3.005   2.586  20.764  0.00  0.00    +0.000 S 
ATOM      7  C   UNL     1       2.682   4.242  20.442  0.00  0.00    +0.000 A 
ATOM      8  C   UNL     1       1.658   5.066  20.938  0.00  0.00    +0.000 A 
ATOM      9  C   UNL     1       1.562   6.373  20.453  0.00  0.00    +0.000 A 
ATOM     10  C   UNL     1       2.462   6.845  19.507  0.00  0.00    +0.000 A 
ATOM     11  C   UNL     1       3.500   6.027  19.053  0.00  0.00    +0.000 A 
ATOM     12  C   UNL     1       3.637   4.701  19.535  0.00  0.00    +0.000 A 
ATOM     13  H   UNL     1       6.002   2.901  18.005  0.00  0.00    +0.000 HD
ENDROOT
BRANCH   1  14
ATOM     14  C   UNL     1       7.848   4.655  17.759  0.00  0.00    +0.000 C 
BRANCH  14  15
ATOM     15  N   UNL     1       7.427   4.041  16.488  0.00  0.00    +0.000 NA
ATOM     16  H   UNL     1       8.166   3.419  16.160  0.00  0.00    +0.000 HD
BRANCH  15  17
ATOM     17  C   UNL     1       7.188   5.068  15.464  0.00  0.00    +0.000 C 
BRANCH  17  19
ATOM     18  C   UNL     1       5.130   6.460  15.829  0.00  0.00    +0.000 C 
ATOM     19  C   UNL     1       5.693   5.194  15.203  0.00  0.00    +0.000 C 
ENDBRANCH  17  19
ENDBRANCH  15  17
ENDBRANCH  14  15
ENDBRANCH   1  14
TORSDOF 4
ENDMDL
MODEL 3
REMARK VINA RESULT:      -6.9      1.798      2.832
REMARK  Name = 
REMARK  5 active torsions:
REMARK  status: ('A' for Active; 'I' for Inactive)
REMARK    1  A    between atoms: C_1  and  C_2
REMARK    2  A    between atoms: C_2  and  C_3
REMARK    3  A    between atoms: C_3  and  N_4
REMARK    4  A    between atoms: N_4  and  C_5
REMARK    5  A    between atoms: C_5  and  C_6
REMARK                            x       y       z     vdW  Elec       q    Type
REMARK                         _______ _______ _______ _____ _____    ______ ____
ROOT
ATOM      1  C   UNL     1       6.257   4.411  18.041  0.00  0.00    +0.000 C 
ATOM      2  O   UNL     1       6.320   4.520  19.263  0.00  0.00    +0.000 OA
ATOM      3  N   UNL     1       5.162   3.944  17.325  0.00  0.00    +0.000 N 
ATOM      4  C   UNL     1       4.019   3.548  17.983  0.00  0.00    +0.000 A 
ATOM      5  N   UNL     1       3.554   2.326  17.737  0.00  0.00    +0.000 NA
ATOM      6  S   UNL     1       2.288   2.033  18.773  0.00  0.00    +0.000 S 
ATOM      7  C   UNL     1       2.180   3.626  19.406  0.00  0.00    +0.000 A 
ATOM      8  C   UNL     1       1.253   4.167  20.312  0.00  0.00    +0.000 A 
ATOM      9  C   UNL     1       1.332   5.530  20.612  0.00  0.00    +0.000 A 
ATOM     10  C   UNL     1       2.307   6.326  20.028  0.00  0.00    +0.000 A 
ATOM     11  C   UNL     1       3.249   5.767  19.160  0.00  0.00    +0.000 A 
ATOM     12  C   UNL     1       3.208   4.385  18.847  0.00  0.00    +0.000 A 
ATOM     13  H   UNL     1       5.372   3.429  16.485  0.00  0.00    +0.000 HD
ENDROOT
BRANCH   1  14
ATOM     14  C   UNL     1       7.426   4.807  17.139  0.00  0.00    +0.000 C 
BRANCH  14  15
ATOM     15  N   UNL     1       7.363   6.240  16.804  0.00  0.00    +0.000 NA
ATOM     16  H   UNL     1       8.003   6.428  16.031  0.00  0.00    +0.000 HD
BRANCH  15  17
ATOM     17  C   UNL     1       7.759   7.065  17.953  0.00  0.00    +0.000 C 
BRANCH  17  19
ATOM     18  C   UNL     1       8.626   9.378  18.405  0.00  0.00    +0.000 C 
ATOM     19  C   UNL     1       7.658   8.540  17.585  0.00  0.00    +0.000 C 
ENDBRANCH  17  19
ENDBRANCH  15  17
ENDBRANCH  14  15
ENDBRANCH   1  14
TORSDOF 4
ENDMDL
MODEL 4
REMARK VINA RESULT:      -6.7      1.102      1.292
REMARK  Name = 
REMARK  5 active torsions:
REMARK  status: ('A' for Active; 'I' for Inactive)
REMARK    1  A    between atoms: C_1  and  C_2
REMARK    2  A    between atoms: C_2  and  C_3
REMARK    3  A    between atoms: C_3  and  N_4
REMARK    4  A    between atoms: N_4  and  C_5
REMARK    5  A    between atoms: C_5  and  C_6
REMARK                            x       y       z     vdW  Elec       q    Type
REMARK                         _______ _______ _______ _____ _____    ______ ____
ROOT
ATOM      1  C   UNL     1       5.415   4.580  16.503  0.00  0.00    +0.000 C 
ATOM      2  O   UNL     1       5.915   4.844  17.594  0.00  0.00    +0.000 OA
ATOM      3  N   UNL     1       4.148   4.048  16.301  0.00  0.00    +0.000 N 
ATOM      4  C   UNL     1       3.333   3.767  17.375  0.00  0.00    +0.000 A 
ATOM      5  N   UNL     1       2.843   2.534  17.475  0.00  0.00    +0.000 NA
ATOM      6  S   UNL     1       2.048   2.407  18.929  0.00  0.00    +0.000 S 
ATOM      7  C   UNL     1       2.136   4.070  19.346  0.00  0.00    +0.000 A 
ATOM      8  C   UNL     1       1.587   4.745  20.449  0.00  0.00    +0.000 A 
ATOM      9  C   UNL     1       1.733   6.133  20.521  0.00  0.00    +0.000 A 
ATOM     10  C   UNL     1       2.409   6.825  19.525  0.00  0.00    +0.000 A 
ATOM     11  C   UNL     1       2.985   6.137  18.454  0.00  0.00    +0.000 A 
ATOM     12  C   UNL     1       2.870   4.727  18.359  0.00  0.00    +0.000 A 
ATOM     13  H   UNL     1       4.053   3.424  15.516  0.00  0.00    +0.000 HD
ENDROOT
BRANCH   1  14
ATOM     14  C   UNL     1       6.166   4.829  15.195  0.00  0.00    +0.000 C 
BRANCH  14  15
ATOM     15  N   UNL     1       6.173   3.615  14.359  0.00  0.00    +0.000 NA
ATOM     16  H   UNL     1       6.844   2.951  14.746  0.00  0.00    +0.000 HD
BRANCH  15  17
ATOM     17  C   UNL     1       6.566   3.932  12.979  0.00  0.00    +0.000 C 
BRANCH  17  19
ATOM     18  C   UNL     1       4.464   3.351  11.735  0.00  0.00    +0.000 C 
ATOM     19  C   UNL     1       5.904   2.952  12.020  0.00  0.00    +0.000 C 
ENDBRANCH  17  19
ENDBRANCH  15  17
ENDBRANCH  14  15
ENDBRANCH   1  14
TORSDOF 4
ENDMDL
MODEL 5
REMARK VINA RESULT:      -6.6      2.455      3.385
REMARK  Name = 
REMARK  5 active torsions:
REMARK  status: ('A' for Active; 'I' for Inactive)
REMARK    1  A    between atoms: C_1  and  C_2
REMARK    2  A    between atoms: C_2  and  C_3
REMARK    3  A    between atoms: C_3  and  N_4
REMARK    4  A    between atoms: N_4  and  C_5
REMARK    5  A    between atoms: C_5  and  C_6
REMARK                            x       y       z     vdW  Elec       q    Type
REMARK                         _______ _______ _______ _____ _____    ______ ____
ROOT
ATOM      1  C   UNL     1       6.448   4.744  14.789  0.00  0.00    +0.000 C 
ATOM      2  O   UNL     1       5.780   5.776  14.792  0.00  0.00    +0.000 OA
ATOM      3  N   UNL     1       6.839   4.029  15.913  0.00  0.00    +0.000 N 
ATOM      4  C   UNL     1       6.483   4.463  17.171  0.00  0.00    +0.000 A 
ATOM      5  N   UNL     1       7.453   4.640  18.064  0.00  0.00    +0.000 NA
ATOM      6  S   UNL     1       6.790   5.326  19.425  0.00  0.00    +0.000 S 
ATOM      7  C   UNL     1       5.149   5.176  18.939  0.00  0.00    +0.000 A 
ATOM      8  C   UNL     1       3.976   5.488  19.646  0.00  0.00    +0.000 A 
ATOM      9  C   UNL     1       2.744   5.195  19.054  0.00  0.00    +0.000 A 
ATOM     10  C   UNL     1       2.685   4.613  17.795  0.00  0.00    +0.000 A 
ATOM     11  C   UNL     1       3.859   4.345  17.086  0.00  0.00    +0.000 A 
ATOM     12  C   UNL     1       5.125   4.645  17.650  0.00  0.00    +0.000 A 
ATOM     13  H   UNL     1       7.736   3.573  15.856  0.00  0.00    +0.000 HD
ENDROOT
BRANCH   1  14
ATOM     14  C   UNL     1       6.932   4.107  13.487  0.00  0.00    +0.000 C 
BRANCH  14  15
ATOM     15  N   UNL     1       5.956   3.118  12.997  0.00  0.00    +0.000 NA
ATOM     16  H   UNL     1       6.394   2.196  12.991  0.00  0.00    +0.000 HD
BRANCH  15  17
ATOM     17  C   UNL     1       5.522   3.441  11.631  0.00  0.00    +0.000 C 
BRANCH  17  19
ATOM     18  C   UNL     1       3.476   3.737  10.206  0.00  0.00    +0.000 C 
ATOM     19  C   UNL     1       4.043   3.114  11.472  0.00  0.00    +0.000 C 
ENDBRANCH  17  19
ENDBRANCH  15  17
ENDBRANCH  14  15
ENDBRANCH   1  14
TORSDOF 4
ENDMDL
MODEL 6
REMARK VINA RESULT:      -6.6      2.386      3.309
REMARK  Name = 
REMARK  5 active torsions:
REMARK  status: ('A' for Active; 'I' for Inactive)
REMARK    1  A    between atoms: C_1  and  C_2
REMARK    2  A    between atoms: C_2  and  C_3
REMARK    3  A    between atoms: C_3  and  N_4
REMARK    4  A    between atoms: N_4  and  C_5
REMARK    5  A    between atoms: C_5  and  C_6
REMARK                            x       y       z     vdW  Elec       q    Type
REMARK                         _______ _______ _______ _____ _____    ______ ____
ROOT
ATOM      1  C   UNL     1       6.404   5.058  14.808  0.00  0.00    +0.000 C 
ATOM      2  O   UNL     1       5.690   6.055  14.880  0.00  0.00    +0.000 OA
ATOM      3  N   UNL     1       6.832   4.290  15.883  0.00  0.00    +0.000 N 
ATOM      4  C   UNL     1       6.464   4.625  17.167  0.00  0.00    +0.000 A 
ATOM      5  N   UNL     1       7.431   4.787  18.067  0.00  0.00    +0.000 NA
ATOM      6  S   UNL     1       6.745   5.353  19.471  0.00  0.00    +0.000 S 
ATOM      7  C   UNL     1       5.110   5.161  18.981  0.00  0.00    +0.000 A 
ATOM      8  C   UNL     1       3.928   5.373  19.710  0.00  0.00    +0.000 A 
ATOM      9  C   UNL     1       2.707   5.063  19.103  0.00  0.00    +0.000 A 
ATOM     10  C   UNL     1       2.667   4.562  17.810  0.00  0.00    +0.000 A 
ATOM     11  C   UNL     1       3.848   4.394  17.082  0.00  0.00    +0.000 A 
ATOM     12  C   UNL     1       5.103   4.714  17.660  0.00  0.00    +0.000 A 
ATOM     13  H   UNL     1       7.748   3.879  15.793  0.00  0.00    +0.000 HD
ENDROOT
BRANCH   1  14
ATOM     14  C   UNL     1       6.908   4.528  13.466  0.00  0.00    +0.000 C 
BRANCH  14  15
ATOM     15  N   UNL     1       6.390   3.172  13.213  0.00  0.00    +0.000 NA
ATOM     16  H   UNL     1       7.172   2.554  12.997  0.00  0.00    +0.000 HD
BRANCH  15  17
ATOM     17  C   UNL     1       5.461   3.170  12.074  0.00  0.00    +0.000 C 
BRANCH  17  19
ATOM     18  C   UNL     1       7.084   1.540  11.067  0.00  0.00    +0.000 C 
ATOM     19  C   UNL     1       5.617   1.875  11.288  0.00  0.00    +0.000 C 
ENDBRANCH  17  19
ENDBRANCH  15  17
ENDBRANCH  14  15
ENDBRANCH   1  14
TORSDOF 4
ENDMDL
MODEL 7
REMARK VINA RESULT:      -6.5      4.071      5.407
REMARK  Name = 
REMARK  5 active torsions:
REMARK  status: ('A' for Active; 'I' for Inactive)
REMARK    1  A    between atoms: C_1  and  C_2
REMARK    2  A    between atoms: C_2  and  C_3
REMARK    3  A    between atoms: C_3  and  N_4
REMARK    4  A    between atoms: N_4  and  C_5
REMARK    5  A    between atoms: C_5  and  C_6
REMARK                            x       y       z     vdW  Elec       q    Type
REMARK                         _______ _______ _______ _____ _____    ______ ____
ROOT
ATOM      1  C   UNL     1       7.684   7.563  17.858  0.00  0.00    +0.000 C 
ATOM      2  O   UNL     1       7.949   6.708  18.700  0.00  0.00    +0.000 OA
ATOM      3  N   UNL     1       6.900   7.370  16.729  0.00  0.00    +0.000 N 
ATOM      4  C   UNL     1       6.345   6.136  16.470  0.00  0.00    +0.000 A 
ATOM      5  N   UNL     1       6.587   5.584  15.283  0.00  0.00    +0.000 NA
ATOM      6  S   UNL     1       5.962   4.044  15.289  0.00  0.00    +0.000 S 
ATOM      7  C   UNL     1       5.142   4.172  16.793  0.00  0.00    +0.000 A 
ATOM      8  C   UNL     1       4.301   3.246  17.433  0.00  0.00    +0.000 A 
ATOM      9  C   UNL     1       3.682   3.624  18.628  0.00  0.00    +0.000 A 
ATOM     10  C   UNL     1       3.899   4.885  19.168  0.00  0.00    +0.000 A 
ATOM     11  C   UNL     1       4.769   5.781  18.542  0.00  0.00    +0.000 A 
ATOM     12  C   UNL     1       5.426   5.424  17.337  0.00  0.00    +0.000 A 
ATOM     13  H   UNL     1       7.164   7.900  15.913  0.00  0.00    +0.000 HD
ENDROOT
BRANCH   1  14
ATOM     14  C   UNL     1       8.205   8.995  17.977  0.00  0.00    +0.000 C 
BRANCH  14  15
ATOM     15  N   UNL     1       9.082   9.134  19.153  0.00  0.00    +0.000 NA
ATOM     16  H   UNL     1       8.636   8.684  19.953  0.00  0.00    +0.000 HD
BRANCH  15  17
ATOM     17  C   UNL     1       9.307  10.550  19.475  0.00  0.00    +0.000 C 
BRANCH  17  19
ATOM     18  C   UNL     1      10.959  11.595  17.898  0.00  0.00    +0.000 C 
ATOM     19  C   UNL     1       9.487  11.345  18.188  0.00  0.00    +0.000 C 
ENDBRANCH  17  19
ENDBRANCH  15  17
ENDBRANCH  14  15
ENDBRANCH   1  14
TORSDOF 4
ENDMDL
MODEL 8
REMARK VINA RESULT:      -6.5      2.693      5.704
REMARK  Name = 
REMARK  5 active torsions:
REMARK  status: ('A' for Active; 'I' for Inactive)
REMARK    1  A    between atoms: C_1  and  C_2
REMARK    2  A    between atoms: C_2  and  C_3
REMARK    3  A    between atoms: C_3  and  N_4
REMARK    4  A    between atoms: N_4  and  C_5
REMARK    5  A    between atoms: C_5  and  C_6
REMARK                            x       y       z     vdW  Elec       q    Type
REMARK                         _______ _______ _______ _____ _____    ______ ____
ROOT
ATOM      1  C   UNL     1       4.147   2.948  19.956  0.00  0.00    +0.000 C 
ATOM      2  O   UNL     1       4.728   2.027  19.388  0.00  0.00    +0.000 OA
ATOM      3  N   UNL     1       4.484   4.292  19.873  0.00  0.00    +0.000 N 
ATOM      4  C   UNL     1       5.557   4.694  19.108  0.00  0.00    +0.000 A 
ATOM      5  N   UNL     1       6.498   5.428  19.696  0.00  0.00    +0.000 NA
ATOM      6  S   UNL     1       7.750   5.628  18.621  0.00  0.00    +0.000 S 
ATOM      7  C   UNL     1       6.953   4.942  17.264  0.00  0.00    +0.000 A 
ATOM      8  C   UNL     1       7.388   4.835  15.932  0.00  0.00    +0.000 A 
ATOM      9  C   UNL     1       6.509   4.300  14.985  0.00  0.00    +0.000 A 
ATOM     10  C   UNL     1       5.239   3.882  15.357  0.00  0.00    +0.000 A 
ATOM     11  C   UNL     1       4.834   3.956  16.692  0.00  0.00    +0.000 A 
ATOM     12  C   UNL     1       5.706   4.478  17.682  0.00  0.00    +0.000 A 
ATOM     13  H   UNL     1       4.323   4.839  20.704  0.00  0.00    +0.000 HD
ENDROOT
BRANCH   1  14
ATOM     14  C   UNL     1       2.928   2.699  20.845  0.00  0.00    +0.000 C 
BRANCH  14  15
ATOM     15  N   UNL     1       1.793   2.207  20.047  0.00  0.00    +0.000 NA
ATOM     16  H   UNL     1       2.153   1.694  19.242  0.00  0.00    +0.000 HD
BRANCH  15  17
ATOM     17  C   UNL     1       0.969   3.323  19.563  0.00  0.00    +0.000 C 
BRANCH  17  19
ATOM     18  C   UNL     1       1.699   5.041  17.883  0.00  0.00    +0.000 C 
ATOM     19  C   UNL     1       1.282   3.594  18.097  0.00  0.00    +0.000 C 
ENDBRANCH  17  19
ENDBRANCH  15  17
ENDBRANCH  14  15
ENDBRANCH   1  14
TORSDOF 4
ENDMDL
MODEL 9
REMARK VINA RESULT:      -6.5      2.772      5.692
REMARK  Name = 
REMARK  5 active torsions:
REMARK  status: ('A' for Active; 'I' for Inactive)
REMARK    1  A    between atoms: C_1  and  C_2
REMARK    2  A    between atoms: C_2  and  C_3
REMARK    3  A    between atoms: C_3  and  N_4
REMARK    4  A    between atoms: N_4  and  C_5
REMARK    5  A    between atoms: C_5  and  C_6
REMARK                            x       y       z     vdW  Elec       q    Type
REMARK                         _______ _______ _______ _____ _____    ______ ____
ROOT
ATOM      1  C   UNL     1       4.342   3.373  18.984  0.00  0.00    +0.000 C 
ATOM      2  O   UNL     1       4.171   4.355  19.701  0.00  0.00    +0.000 OA
ATOM      3  N   UNL     1       4.924   3.381  17.724  0.00  0.00    +0.000 N 
ATOM      4  C   UNL     1       5.366   4.563  17.170  0.00  0.00    +0.000 A 
ATOM      5  N   UNL     1       4.909   4.892  15.964  0.00  0.00    +0.000 NA
ATOM      6  S   UNL     1       5.447   6.422  15.604  0.00  0.00    +0.000 S 
ATOM      7  C   UNL     1       6.502   6.581  16.950  0.00  0.00    +0.000 A 
ATOM      8  C   UNL     1       7.385   7.624  17.275  0.00  0.00    +0.000 A 
ATOM      9  C   UNL     1       8.206   7.476  18.397  0.00  0.00    +0.000 A 
ATOM     10  C   UNL     1       8.144   6.326  19.171  0.00  0.00    +0.000 A 
ATOM     11  C   UNL     1       7.233   5.314  18.860  0.00  0.00    +0.000 A 
ATOM     12  C   UNL     1       6.373   5.438  17.739  0.00  0.00    +0.000 A 
ATOM     13  H   UNL     1       4.561   2.710  17.065  0.00  0.00    +0.000 HD
ENDROOT
BRANCH   1  14
ATOM     14  C   UNL     1       3.921   1.972  19.430  0.00  0.00    +0.000 C 
BRANCH  14  15
ATOM     15  N   UNL     1       2.874   1.436  18.542  0.00  0.00    +0.000 NA
ATOM     16  H   UNL     1       3.207   1.473  17.579  0.00  0.00    +0.000 HD
BRANCH  15  17
ATOM     17  C   UNL     1       1.642   2.229  18.646  0.00  0.00    +0.000 C 
BRANCH  17  19
ATOM     18  C   UNL     1       0.806   3.882  20.341  0.00  0.00    +0.000 C 
ATOM     19  C   UNL     1       1.306   2.464  20.113  0.00  0.00    +0.000 C 
ENDBRANCH  17  19
ENDBRANCH  15  17
ENDBRANCH  14  15
ENDBRANCH   1  14
TORSDOF 4
ENDMDL
