MODEL 1
REMARK VINA RESULT:      -7.5      0.000      0.000
REMARK  Name = 
REMARK  10 active torsions:
REMARK  status: ('A' for Active; 'I' for Inactive)
REMARK    1  A    between atoms: CB_1  and  CA_2
REMARK    2  A    between atoms: CA_2  and  N_3
REMARK    3  A    between atoms: CA_2  and  C_15
REMARK    4  A    between atoms: C_4  and  C_6
REMARK    5  A    between atoms: C_6  and  C_7
REMARK    6  A    between atoms: N_17  and  CA_18
REMARK    7  A    between atoms: CA_18  and  C_19
REMARK    8  A    between atoms: CA_18  and  CB_21
REMARK    9  A    between atoms: C_19  and  O_20
REMARK   10  A    between atoms: CB_21  and  CG_22
REMARK                            x       y       z     vdW  Elec       q    Type
REMARK                         _______ _______ _______ _____ _____    ______ ____
ROOT
ATOM      1  CB  ALA A   1       7.605   5.292  17.993  0.00  0.00    +0.000 C 
ATOM      2  CA  ALA A   1       6.812   4.330  17.108  0.00  0.00    +0.000 C 
ENDROOT
BRANCH   2   3
ATOM      3  N   ALA A   1       7.287   4.271  15.730  0.00  0.00    +0.000 N 
ATOM      4  C   UNK A   0       6.885   5.184  14.776  0.00  0.00    +0.000 C 
ATOM      5  O   UNK A   0       6.110   6.106  15.015  0.00  0.00    +0.000 OA
ATOM      6  H   ALA A   1       7.698   3.397  15.422  0.00  0.00    +0.000 HD
BRANCH   4   7
ATOM      7  C   UNK A   0       7.449   4.953  13.392  0.00  0.00    +0.000 C 
BRANCH   7   8
ATOM      8  C   UNK A   0       6.674   3.927  12.607  0.00  0.00    +0.000 A 
ATOM      9  C   UNK A   0       5.274   3.991  12.519  0.00  0.00    +0.000 A 
ATOM     10  C   UNK A   0       4.574   3.042  11.783  0.00  0.00    +0.000 A 
ATOM     11  F   UNK A   0       3.236   3.112  11.723  0.00  0.00    +0.000 F 
ATOM     12  C   UNK A   0       5.234   2.023  11.111  0.00  0.00    +0.000 A 
ATOM     13  C   UNK A   0       6.619   1.969  11.185  0.00  0.00    +0.000 A 
ATOM     14  F   UNK A   0       7.276   0.995  10.539  0.00  0.00    +0.000 F 
ATOM     15  C   UNK A   0       7.343   2.903  11.921  0.00  0.00    +0.000 A 
ENDBRANCH   7   8
ENDBRANCH   4   7
ENDBRANCH   2   3
BRANCH   2  16
ATOM     16  C   ALA A   1       5.287   4.565  17.174  0.00  0.00    +0.000 C 
ATOM     17  O   ALA A   1       4.484   3.752  16.720  0.00  0.00    +0.000 OA
ATOM     18  N   PHE A   2       4.914   5.761  17.740  0.00  0.00    +0.000 N 
ATOM     19  H   PHE A   2       5.598   6.523  17.687  0.00  0.00    +0.000 HD
BRANCH  18  20
ATOM     20  CA  PHE A   2       3.521   6.130  17.949  0.00  0.00    +0.000 C 
BRANCH  20  21
ATOM     21  C   PHE A   2       3.301   7.651  17.845  0.00  0.00    +0.000 C 
BRANCH  21  22
ATOM     22  O   PHE A   2       1.916   7.984  17.913  0.00  0.00    +0.000 OA
ATOM     23  H   PHE A   2       1.864   8.884  18.283  0.00  0.00    +0.000 HD
ENDBRANCH  21  22
ENDBRANCH  20  21
BRANCH  20  24
ATOM     24  CB  PHE A   2       3.044   5.529  19.286  0.00  0.00    +0.000 C 
BRANCH  24  25
ATOM     25  CG  PHE A   2       1.597   4.982  19.264  0.00  0.00    +0.000 C 
ATOM     26  CD1 PHE A   2       1.338   3.992  18.115  0.00  0.00    +0.000 C 
ATOM     27  CE1 PHE A   2       2.121   2.694  18.289  0.00  0.00    +0.000 C 
ATOM     28  CZ  PHE A   2       1.765   2.020  19.610  0.00  0.00    +0.000 C 
ATOM     29  CE2 PHE A   2       1.931   2.957  20.805  0.00  0.00    +0.000 C 
ATOM     30  CD2 PHE A   2       1.231   4.302  20.597  0.00  0.00    +0.000 C 
ENDBRANCH  24  25
ENDBRANCH  20  24
ENDBRANCH  18  20
ENDBRANCH   2  16
TORSDOF 9
ENDMDL
MODEL 2
REMARK VINA RESULT:      -7.4      1.745      2.610
REMARK  Name = 
REMARK  10 active torsions:
REMARK  status: ('A' for Active; 'I' for Inactive)
REMARK    1  A    between atoms: CB_1  and  CA_2
REMARK    2  A    between atoms: CA_2  and  N_3
REMARK    3  A    between atoms: CA_2  and  C_15
REMARK    4  A    between atoms: C_4  and  C_6
REMARK    5  A    between atoms: C_6  and  C_7
REMARK    6  A    between atoms: N_17  and  CA_18
REMARK    7  A    between atoms: CA_18  and  C_19
REMARK    8  A    between atoms: CA_18  and  CB_21
REMARK    9  A    between atoms: C_19  and  O_20
REMARK   10  A    between atoms: CB_21  and  CG_22
REMARK                            x       y       z     vdW  Elec       q    Type
REMARK                         _______ _______ _______ _____ _____    ______ ____
ROOT
ATOM      1  CB  ALA A   1       7.765   6.428  18.433  0.00  0.00    +0.000 C 
ATOM      2  CA  ALA A   1       7.007   5.280  17.767  0.00  0.00    +0.000 C 
ENDROOT
BRANCH   2   3
ATOM      3  N   ALA A   1       6.459   5.618  16.458  0.00  0.00    +0.000 N 
ATOM      4  C   UNK A   0       6.410   4.704  15.425  0.00  0.00    +0.000 C 
ATOM      5  O   UNK A   0       6.815   3.550  15.532  0.00  0.00    +0.000 OA
ATOM      6  H   ALA A   1       6.368   6.603  16.238  0.00  0.00    +0.000 HD
BRANCH   4   7
ATOM      7  C   UNK A   0       5.843   5.234  14.128  0.00  0.00    +0.000 C 
BRANCH   7   8
ATOM      8  C   UNK A   0       5.711   4.172  13.068  0.00  0.00    +0.000 A 
ATOM      9  C   UNK A   0       4.464   3.878  12.492  0.00  0.00    +0.000 A 
ATOM     10  C   UNK A   0       4.360   2.902  11.508  0.00  0.00    +0.000 A 
ATOM     11  F   UNK A   0       3.158   2.625  10.981  0.00  0.00    +0.000 F 
ATOM     12  C   UNK A   0       5.476   2.207  11.063  0.00  0.00    +0.000 A 
ATOM     13  C   UNK A   0       6.710   2.509  11.621  0.00  0.00    +0.000 A 
ATOM     14  F   UNK A   0       7.801   1.853  11.202  0.00  0.00    +0.000 F 
ATOM     15  C   UNK A   0       6.840   3.478  12.612  0.00  0.00    +0.000 A 
ENDBRANCH   7   8
ENDBRANCH   4   7
ENDBRANCH   2   3
BRANCH   2  16
ATOM     16  C   ALA A   1       5.938   4.648  18.686  0.00  0.00    +0.000 C 
ATOM     17  O   ALA A   1       5.797   5.001  19.856  0.00  0.00    +0.000 OA
ATOM     18  N   PHE A   2       5.199   3.646  18.104  0.00  0.00    +0.000 N 
ATOM     19  H   PHE A   2       5.645   3.141  17.331  0.00  0.00    +0.000 HD
BRANCH  18  20
ATOM     20  CA  PHE A   2       4.103   2.978  18.792  0.00  0.00    +0.000 C 
BRANCH  20  21
ATOM     21  C   PHE A   2       4.581   1.755  19.594  0.00  0.00    +0.000 C 
BRANCH  21  22
ATOM     22  O   PHE A   2       4.870   2.098  20.948  0.00  0.00    +0.000 OA
ATOM     23  H   PHE A   2       5.599   2.743  20.923  0.00  0.00    +0.000 HD
ENDBRANCH  21  22
ENDBRANCH  20  21
BRANCH  20  24
ATOM     24  CB  PHE A   2       3.000   2.649  17.765  0.00  0.00    +0.000 C 
BRANCH  24  25
ATOM     25  CG  PHE A   2       1.706   3.481  17.926  0.00  0.00    +0.000 C 
ATOM     26  CD1 PHE A   2       0.636   2.782  18.784  0.00  0.00    +0.000 C 
ATOM     27  CE1 PHE A   2       1.065   2.653  20.243  0.00  0.00    +0.000 C 
ATOM     28  CZ  PHE A   2       1.361   4.023  20.843  0.00  0.00    +0.000 C 
ATOM     29  CE2 PHE A   2       2.370   4.817  20.015  0.00  0.00    +0.000 C 
ATOM     30  CD2 PHE A   2       1.998   4.868  18.531  0.00  0.00    +0.000 C 
ENDBRANCH  24  25
ENDBRANCH  20  24
ENDBRANCH  18  20
ENDBRANCH   2  16
TORSDOF 9
ENDMDL
MODEL 3
REMARK VINA RESULT:      -7.4      5.538      7.502
REMARK  Name = 
REMARK  10 active torsions:
REMARK  status: ('A' for Active; 'I' for Inactive)
REMARK    1  A    between atoms: CB_1  and  CA_2
REMARK    2  A    between atoms: CA_2  and  N_3
REMARK    3  A    between atoms: CA_2  and  C_15
REMARK    4  A    between atoms: C_4  and  C_6
REMARK    5  A    between atoms: C_6  and  C_7
REMARK    6  A    between atoms: N_17  and  CA_18
REMARK    7  A    between atoms: CA_18  and  C_19
REMARK    8  A    between atoms: CA_18  and  CB_21
REMARK    9  A    between atoms: C_19  and  O_20
REMARK   10  A    between atoms: CB_21  and  CG_22
REMARK                            x       y       z     vdW  Elec       q    Type
REMARK                         _______ _______ _______ _____ _____    ______ ____
ROOT
ATOM      1  CB  ALA A   1       7.750   5.878  18.955  0.00  0.00    +0.000 C 
ATOM      2  CA  ALA A   1       7.301   6.356  17.573  0.00  0.00    +0.000 C 
ENDROOT
BRANCH   2   3
ATOM      3  N   ALA A   1       7.380   7.803  17.398  0.00  0.00    +0.000 N 
ATOM      4  C   UNK A   0       8.235   8.586  18.145  0.00  0.00    +0.000 C 
ATOM      5  O   UNK A   0       8.989   8.129  19.000  0.00  0.00    +0.000 OA
ATOM      6  H   ALA A   1       6.608   8.250  16.917  0.00  0.00    +0.000 HD
BRANCH   4   7
ATOM      7  C   UNK A   0       8.161  10.068  17.856  0.00  0.00    +0.000 C 
BRANCH   7   8
ATOM      8  C   UNK A   0       9.275  10.848  18.504  0.00  0.00    +0.000 A 
ATOM      9  C   UNK A   0      10.315  11.396  17.734  0.00  0.00    +0.000 A 
ATOM     10  C   UNK A   0      11.332  12.121  18.346  0.00  0.00    +0.000 A 
ATOM     11  F   UNK A   0      12.324  12.622  17.596  0.00  0.00    +0.000 F 
ATOM     12  C   UNK A   0      11.339  12.333  19.717  0.00  0.00    +0.000 A 
ATOM     13  C   UNK A   0      10.303  11.807  20.475  0.00  0.00    +0.000 A 
ATOM     14  F   UNK A   0      10.289  12.004  21.801  0.00  0.00    +0.000 F 
ATOM     15  C   UNK A   0       9.277  11.071  19.888  0.00  0.00    +0.000 A 
ENDBRANCH   7   8
ENDBRANCH   4   7
ENDBRANCH   2   3
BRANCH   2  16
ATOM     16  C   ALA A   1       5.917   5.808  17.164  0.00  0.00    +0.000 C 
ATOM     17  O   ALA A   1       5.785   4.994  16.251  0.00  0.00    +0.000 OA
ATOM     18  N   PHE A   2       4.860   6.331  17.869  0.00  0.00    +0.000 N 
ATOM     19  H   PHE A   2       4.997   7.264  18.272  0.00  0.00    +0.000 HD
BRANCH  18  20
ATOM     20  CA  PHE A   2       3.487   5.887  17.670  0.00  0.00    +0.000 C 
BRANCH  20  21
ATOM     21  C   PHE A   2       2.477   7.040  17.821  0.00  0.00    +0.000 C 
BRANCH  21  22
ATOM     22  O   PHE A   2       2.637   7.715  19.067  0.00  0.00    +0.000 OA
ATOM     23  H   PHE A   2       1.820   7.561  19.575  0.00  0.00    +0.000 HD
ENDBRANCH  21  22
ENDBRANCH  20  21
BRANCH  20  24
ATOM     24  CB  PHE A   2       3.208   4.697  18.610  0.00  0.00    +0.000 C 
BRANCH  24  25
ATOM     25  CG  PHE A   2       1.722   4.522  18.999  0.00  0.00    +0.000 C 
ATOM     26  CD1 PHE A   2       1.186   3.103  18.736  0.00  0.00    +0.000 C 
ATOM     27  CE1 PHE A   2       1.836   2.067  19.649  0.00  0.00    +0.000 C 
ATOM     28  CZ  PHE A   2       1.603   2.417  21.116  0.00  0.00    +0.000 C 
ATOM     29  CE2 PHE A   2       2.048   3.839  21.452  0.00  0.00    +0.000 C 
ATOM     30  CD2 PHE A   2       1.481   4.876  20.480  0.00  0.00    +0.000 C 
ENDBRANCH  24  25
ENDBRANCH  20  24
ENDBRANCH  18  20
ENDBRANCH   2  16
TORSDOF 9
ENDMDL
MODEL 4
REMARK VINA RESULT:      -7.3      4.748      7.006
REMARK  Name = 
REMARK  10 active torsions:
REMARK  status: ('A' for Active; 'I' for Inactive)
REMARK    1  A    between atoms: CB_1  and  CA_2
REMARK    2  A    between atoms: CA_2  and  N_3
REMARK    3  A    between atoms: CA_2  and  C_15
REMARK    4  A    between atoms: C_4  and  C_6
REMARK    5  A    between atoms: C_6  and  C_7
REMARK    6  A    between atoms: N_17  and  CA_18
REMARK    7  A    between atoms: CA_18  and  C_19
REMARK    8  A    between atoms: CA_18  and  CB_21
REMARK    9  A    between atoms: C_19  and  O_20
REMARK   10  A    between atoms: CB_21  and  CG_22
REMARK                            x       y       z     vdW  Elec       q    Type
REMARK                         _______ _______ _______ _____ _____    ______ ____
ROOT
ATOM      1  CB  ALA A   1       2.374   6.029  20.501  0.00  0.00    +0.000 C 
ATOM      2  CA  ALA A   1       2.375   6.540  19.059  0.00  0.00    +0.000 C 
ENDROOT
BRANCH   2   3
ATOM      3  N   ALA A   1       3.572   6.178  18.308  0.00  0.00    +0.000 N 
ATOM      4  C   UNK A   0       3.626   5.050  17.515  0.00  0.00    +0.000 C 
ATOM      5  O   UNK A   0       2.680   4.279  17.381  0.00  0.00    +0.000 OA
ATOM      6  H   ALA A   1       4.442   6.615  18.590  0.00  0.00    +0.000 HD
BRANCH   4   7
ATOM      7  C   UNK A   0       4.955   4.809  16.836  0.00  0.00    +0.000 C 
BRANCH   7   8
ATOM      8  C   UNK A   0       6.080   5.601  17.451  0.00  0.00    +0.000 A 
ATOM      9  C   UNK A   0       6.357   6.911  17.026  0.00  0.00    +0.000 A 
ATOM     10  C   UNK A   0       7.392   7.632  17.610  0.00  0.00    +0.000 A 
ATOM     11  F   UNK A   0       7.652   8.875  17.180  0.00  0.00    +0.000 F 
ATOM     12  C   UNK A   0       8.164   7.087  18.627  0.00  0.00    +0.000 A 
ATOM     13  C   UNK A   0       7.880   5.799  19.057  0.00  0.00    +0.000 A 
ATOM     14  F   UNK A   0       8.610   5.256  20.041  0.00  0.00    +0.000 F 
ATOM     15  C   UNK A   0       6.853   5.054  18.485  0.00  0.00    +0.000 A 
ENDBRANCH   7   8
ENDBRANCH   4   7
ENDBRANCH   2   3
BRANCH   2  16
ATOM     16  C   ALA A   1       2.071   8.051  18.953  0.00  0.00    +0.000 C 
ATOM     17  O   ALA A   1       2.554   8.750  18.064  0.00  0.00    +0.000 OA
ATOM     18  N   PHE A   2       1.260   8.545  19.947  0.00  0.00    +0.000 N 
ATOM     19  H   PHE A   2       1.266   8.034  20.837  0.00  0.00    +0.000 HD
BRANCH  18  20
ATOM     20  CA  PHE A   2       0.811   9.930  19.978  0.00  0.00    +0.000 C 
BRANCH  20  21
ATOM     21  C   PHE A   2       1.075  10.595  21.342  0.00  0.00    +0.000 C 
BRANCH  21  22
ATOM     22  O   PHE A   2       1.254  12.004  21.210  0.00  0.00    +0.000 OA
ATOM     23  H   PHE A   2       0.523  12.426  21.696  0.00  0.00    +0.000 HD
ENDBRANCH  21  22
ENDBRANCH  20  21
BRANCH  20  24
ATOM     24  CB  PHE A   2      -0.667   9.982  19.542  0.00  0.00    +0.000 C 
BRANCH  24  25
ATOM     25  CG  PHE A   2      -0.916  10.721  18.207  0.00  0.00    +0.000 C 
ATOM     26  CD1 PHE A   2      -1.695   9.881  17.180  0.00  0.00    +0.000 C 
ATOM     27  CE1 PHE A   2      -3.132   9.621  17.625  0.00  0.00    +0.000 C 
ATOM     28  CZ  PHE A   2      -3.874  10.934  17.851  0.00  0.00    +0.000 C 
ATOM     29  CE2 PHE A   2      -3.134  11.863  18.812  0.00  0.00    +0.000 C 
ATOM     30  CD2 PHE A   2      -1.664  12.050  18.430  0.00  0.00    +0.000 C 
ENDBRANCH  24  25
ENDBRANCH  20  24
ENDBRANCH  18  20
ENDBRANCH   2  16
TORSDOF 9
ENDMDL
MODEL 5
REMARK VINA RESULT:      -7.3      5.448      8.861
REMARK  Name = 
REMARK  10 active torsions:
REMARK  status: ('A' for Active; 'I' for Inactive)
REMARK    1  A    between atoms: CB_1  and  CA_2
REMARK    2  A    between atoms: CA_2  and  N_3
REMARK    3  A    between atoms: CA_2  and  C_15
REMARK    4  A    between atoms: C_4  and  C_6
REMARK    5  A    between atoms: C_6  and  C_7
REMARK    6  A    between atoms: N_17  and  CA_18
REMARK    7  A    between atoms: CA_18  and  C_19
REMARK    8  A    between atoms: CA_18  and  CB_21
REMARK    9  A    between atoms: C_19  and  O_20
REMARK   10  A    between atoms: CB_21  and  CG_22
REMARK                            x       y       z     vdW  Elec       q    Type
REMARK                         _______ _______ _______ _____ _____    ______ ____
ROOT
ATOM      1  CB  ALA A   1       0.164   8.555  21.595  0.00  0.00    +0.000 C 
ATOM      2  CA  ALA A   1       0.628   9.184  20.281  0.00  0.00    +0.000 C 
ENDROOT
BRANCH   2   3
ATOM      3  N   ALA A   1       1.800   8.537  19.702  0.00  0.00    +0.000 N 
ATOM      4  C   UNK A   0       1.982   8.435  18.338  0.00  0.00    +0.000 C 
ATOM      5  O   UNK A   0       1.183   8.882  17.519  0.00  0.00    +0.000 OA
ATOM      6  H   ALA A   1       2.336   7.927  20.309  0.00  0.00    +0.000 HD
BRANCH   4   7
ATOM      7  C   UNK A   0       3.234   7.703  17.912  0.00  0.00    +0.000 C 
BRANCH   7   8
ATOM      8  C   UNK A   0       3.193   6.232  18.238  0.00  0.00    +0.000 A 
ATOM      9  C   UNK A   0       2.044   5.468  17.978  0.00  0.00    +0.000 A 
ATOM     10  C   UNK A   0       2.024   4.110  18.275  0.00  0.00    +0.000 A 
ATOM     11  F   UNK A   0       0.912   3.400  18.034  0.00  0.00    +0.000 F 
ATOM     12  C   UNK A   0       3.133   3.477  18.819  0.00  0.00    +0.000 A 
ATOM     13  C   UNK A   0       4.274   4.229  19.061  0.00  0.00    +0.000 A 
ATOM     14  F   UNK A   0       5.357   3.636  19.581  0.00  0.00    +0.000 F 
ATOM     15  C   UNK A   0       4.316   5.591  18.778  0.00  0.00    +0.000 A 
ENDBRANCH   7   8
ENDBRANCH   4   7
ENDBRANCH   2   3
BRANCH   2  16
ATOM     16  C   ALA A   1       0.811  10.715  20.375  0.00  0.00    +0.000 C 
ATOM     17  O   ALA A   1       1.188  11.261  21.411  0.00  0.00    +0.000 OA
ATOM     18  N   PHE A   2       0.482  11.404  19.232  0.00  0.00    +0.000 N 
ATOM     19  H   PHE A   2      -0.200  10.957  18.611  0.00  0.00    +0.000 HD
BRANCH  18  20
ATOM     20  CA  PHE A   2       0.651  12.845  19.109  0.00  0.00    +0.000 C 
BRANCH  20  21
ATOM     21  C   PHE A   2      -0.595  13.527  18.515  0.00  0.00    +0.000 C 
BRANCH  21  22
ATOM     22  O   PHE A   2      -1.107  12.798  17.401  0.00  0.00    +0.000 OA
ATOM     23  H   PHE A   2      -2.018  12.540  17.631  0.00  0.00    +0.000 HD
ENDBRANCH  21  22
ENDBRANCH  20  21
BRANCH  20  24
ATOM     24  CB  PHE A   2       1.944  13.127  18.317  0.00  0.00    +0.000 C 
BRANCH  24  25
ATOM     25  CG  PHE A   2       3.023  13.903  19.108  0.00  0.00    +0.000 C 
ATOM     26  CD1 PHE A   2       4.157  14.447  18.220  0.00  0.00    +0.000 C 
ATOM     27  CE1 PHE A   2       3.668  15.539  17.271  0.00  0.00    +0.000 C 
ATOM     28  CZ  PHE A   2       3.055  16.697  18.051  0.00  0.00    +0.000 C 
ATOM     29  CE2 PHE A   2       1.959  16.238  19.011  0.00  0.00    +0.000 C 
ATOM     30  CD2 PHE A   2       2.409  15.075  19.899  0.00  0.00    +0.000 C 
ENDBRANCH  24  25
ENDBRANCH  20  24
ENDBRANCH  18  20
ENDBRANCH   2  16
TORSDOF 9
ENDMDL
MODEL 6
REMARK VINA RESULT:      -7.2      5.286      9.215
REMARK  Name = 
REMARK  10 active torsions:
REMARK  status: ('A' for Active; 'I' for Inactive)
REMARK    1  A    between atoms: CB_1  and  CA_2
REMARK    2  A    between atoms: CA_2  and  N_3
REMARK    3  A    between atoms: CA_2  and  C_15
REMARK    4  A    between atoms: C_4  and  C_6
REMARK    5  A    between atoms: C_6  and  C_7
REMARK    6  A    between atoms: N_17  and  CA_18
REMARK    7  A    between atoms: CA_18  and  C_19
REMARK    8  A    between atoms: CA_18  and  CB_21
REMARK    9  A    between atoms: C_19  and  O_20
REMARK   10  A    between atoms: CB_21  and  CG_22
REMARK                            x       y       z     vdW  Elec       q    Type
REMARK                         _______ _______ _______ _____ _____    ______ ____
ROOT
ATOM      1  CB  ALA A   1       0.853   8.034  21.228  0.00  0.00    +0.000 C 
ATOM      2  CA  ALA A   1       1.752   8.489  20.078  0.00  0.00    +0.000 C 
ENDROOT
BRANCH   2   3
ATOM      3  N   ALA A   1       1.167   9.542  19.255  0.00  0.00    +0.000 N 
ATOM      4  C   UNK A   0       0.841  10.780  19.770  0.00  0.00    +0.000 C 
ATOM      5  O   UNK A   0       1.023  11.086  20.945  0.00  0.00    +0.000 OA
ATOM      6  H   ALA A   1       0.754   9.260  18.373  0.00  0.00    +0.000 HD
BRANCH   4   7
ATOM      7  C   UNK A   0       0.211  11.737  18.784  0.00  0.00    +0.000 C 
BRANCH   7   8
ATOM      8  C   UNK A   0      -1.225  11.403  18.478  0.00  0.00    +0.000 A 
ATOM      9  C   UNK A   0      -2.275  12.037  19.164  0.00  0.00    +0.000 A 
ATOM     10  C   UNK A   0      -3.596  11.725  18.863  0.00  0.00    +0.000 A 
ATOM     11  F   UNK A   0      -4.585  12.328  19.539  0.00  0.00    +0.000 F 
ATOM     12  C   UNK A   0      -3.911  10.798  17.879  0.00  0.00    +0.000 A 
ATOM     13  C   UNK A   0      -2.874  10.185  17.191  0.00  0.00    +0.000 A 
ATOM     14  F   UNK A   0      -3.156   9.291  16.233  0.00  0.00    +0.000 F 
ATOM     15  C   UNK A   0      -1.542  10.475  17.477  0.00  0.00    +0.000 A 
ENDBRANCH   7   8
ENDBRANCH   4   7
ENDBRANCH   2   3
BRANCH   2  16
ATOM     16  C   ALA A   1       2.273   7.317  19.217  0.00  0.00    +0.000 C 
ATOM     17  O   ALA A   1       2.107   7.281  17.999  0.00  0.00    +0.000 OA
ATOM     18  N   PHE A   2       2.893   6.316  19.926  0.00  0.00    +0.000 N 
ATOM     19  H   PHE A   2       2.614   6.211  20.907  0.00  0.00    +0.000 HD
BRANCH  18  20
ATOM     20  CA  PHE A   2       3.506   5.162  19.282  0.00  0.00    +0.000 C 
BRANCH  20  21
ATOM     21  C   PHE A   2       3.111   3.839  19.964  0.00  0.00    +0.000 C 
BRANCH  21  22
ATOM     22  O   PHE A   2       2.554   2.916  19.030  0.00  0.00    +0.000 OA
ATOM     23  H   PHE A   2       1.676   3.262  18.786  0.00  0.00    +0.000 HD
ENDBRANCH  21  22
ENDBRANCH  20  21
BRANCH  20  24
ATOM     24  CB  PHE A   2       5.030   5.387  19.208  0.00  0.00    +0.000 C 
BRANCH  24  25
ATOM     25  CG  PHE A   2       5.503   6.164  17.958  0.00  0.00    +0.000 C 
ATOM     26  CD1 PHE A   2       7.026   6.106  17.744  0.00  0.00    +0.000 C 
ATOM     27  CE1 PHE A   2       7.502   4.700  17.392  0.00  0.00    +0.000 C 
ATOM     28  CZ  PHE A   2       6.808   4.194  16.132  0.00  0.00    +0.000 C 
ATOM     29  CE2 PHE A   2       5.286   4.277  16.231  0.00  0.00    +0.000 C 
ATOM     30  CD2 PHE A   2       4.804   5.658  16.681  0.00  0.00    +0.000 C 
ENDBRANCH  24  25
ENDBRANCH  20  24
ENDBRANCH  18  20
ENDBRANCH   2  16
TORSDOF 9
ENDMDL
MODEL 7
REMARK VINA RESULT:      -7.1      6.208     10.381
REMARK  Name = 
REMARK  10 active torsions:
REMARK  status: ('A' for Active; 'I' for Inactive)
REMARK    1  A    between atoms: CB_1  and  CA_2
REMARK    2  A    between atoms: CA_2  and  N_3
REMARK    3  A    between atoms: CA_2  and  C_15
REMARK    4  A    between atoms: C_4  and  C_6
REMARK    5  A    between atoms: C_6  and  C_7
REMARK    6  A    between atoms: N_17  and  CA_18
REMARK    7  A    between atoms: CA_18  and  C_19
REMARK    8  A    between atoms: CA_18  and  CB_21
REMARK    9  A    between atoms: C_19  and  O_20
REMARK   10  A    between atoms: CB_21  and  CG_22
REMARK                            x       y       z     vdW  Elec       q    Type
REMARK                         _______ _______ _______ _____ _____    ______ ____
ROOT
ATOM      1  CB  ALA A   1       1.368   8.048  21.096  0.00  0.00    +0.000 C 
ATOM      2  CA  ALA A   1       1.620   8.817  19.798  0.00  0.00    +0.000 C 
ENDROOT
BRANCH   2   3
ATOM      3  N   ALA A   1       0.484   9.622  19.361  0.00  0.00    +0.000 N 
ATOM      4  C   UNK A   0       0.616  10.953  19.023  0.00  0.00    +0.000 C 
ATOM      5  O   UNK A   0       1.688  11.550  19.058  0.00  0.00    +0.000 OA
ATOM      6  H   ALA A   1      -0.441   9.264  19.572  0.00  0.00    +0.000 HD
BRANCH   4   7
ATOM      7  C   UNK A   0      -0.670  11.642  18.627  0.00  0.00    +0.000 C 
BRANCH   7   8
ATOM      8  C   UNK A   0      -1.529  12.006  19.810  0.00  0.00    +0.000 A 
ATOM      9  C   UNK A   0      -0.985  12.071  21.104  0.00  0.00    +0.000 A 
ATOM     10  C   UNK A   0      -1.789  12.417  22.184  0.00  0.00    +0.000 A 
ATOM     11  F   UNK A   0      -1.255  12.459  23.414  0.00  0.00    +0.000 F 
ATOM     12  C   UNK A   0      -3.133  12.717  22.014  0.00  0.00    +0.000 A 
ATOM     13  C   UNK A   0      -3.666  12.668  20.734  0.00  0.00    +0.000 A 
ATOM     14  F   UNK A   0      -4.961  12.959  20.547  0.00  0.00    +0.000 F 
ATOM     15  C   UNK A   0      -2.885  12.318  19.636  0.00  0.00    +0.000 A 
ENDBRANCH   7   8
ENDBRANCH   4   7
ENDBRANCH   2   3
BRANCH   2  16
ATOM     16  C   ALA A   1       2.154   7.921  18.659  0.00  0.00    +0.000 C 
ATOM     17  O   ALA A   1       2.225   8.320  17.497  0.00  0.00    +0.000 OA
ATOM     18  N   PHE A   2       2.498   6.646  19.043  0.00  0.00    +0.000 N 
ATOM     19  H   PHE A   2       2.022   6.276  19.873  0.00  0.00    +0.000 HD
BRANCH  18  20
ATOM     20  CA  PHE A   2       3.081   5.679  18.124  0.00  0.00    +0.000 C 
BRANCH  20  21
ATOM     21  C   PHE A   2       2.348   4.326  18.164  0.00  0.00    +0.000 C 
BRANCH  21  22
ATOM     22  O   PHE A   2       1.193   4.332  17.327  0.00  0.00    +0.000 OA
ATOM     23  H   PHE A   2       1.272   5.111  16.747  0.00  0.00    +0.000 HD
ENDBRANCH  21  22
ENDBRANCH  20  21
BRANCH  20  24
ATOM     24  CB  PHE A   2       4.592   5.571  18.411  0.00  0.00    +0.000 C 
BRANCH  24  25
ATOM     25  CG  PHE A   2       5.482   6.448  17.499  0.00  0.00    +0.000 C 
ATOM     26  CD1 PHE A   2       6.985   6.157  17.653  0.00  0.00    +0.000 C 
ATOM     27  CE1 PHE A   2       7.355   4.765  17.145  0.00  0.00    +0.000 C 
ATOM     28  CZ  PHE A   2       6.969   4.605  15.678  0.00  0.00    +0.000 C 
ATOM     29  CE2 PHE A   2       5.501   4.939  15.422  0.00  0.00    +0.000 C 
ATOM     30  CD2 PHE A   2       5.096   6.290  16.015  0.00  0.00    +0.000 C 
ENDBRANCH  24  25
ENDBRANCH  20  24
ENDBRANCH  18  20
ENDBRANCH   2  16
TORSDOF 9
ENDMDL
MODEL 8
REMARK VINA RESULT:      -7.1      5.764      7.856
REMARK  Name = 
REMARK  10 active torsions:
REMARK  status: ('A' for Active; 'I' for Inactive)
REMARK    1  A    between atoms: CB_1  and  CA_2
REMARK    2  A    between atoms: CA_2  and  N_3
REMARK    3  A    between atoms: CA_2  and  C_15
REMARK    4  A    between atoms: C_4  and  C_6
REMARK    5  A    between atoms: C_6  and  C_7
REMARK    6  A    between atoms: N_17  and  CA_18
REMARK    7  A    between atoms: CA_18  and  C_19
REMARK    8  A    between atoms: CA_18  and  CB_21
REMARK    9  A    between atoms: C_19  and  O_20
REMARK   10  A    between atoms: CB_21  and  CG_22
REMARK                            x       y       z     vdW  Elec       q    Type
REMARK                         _______ _______ _______ _____ _____    ______ ____
ROOT
ATOM      1  CB  ALA A   1       7.716   6.184  18.937  0.00  0.00    +0.000 C 
ATOM      2  CA  ALA A   1       7.580   6.645  17.485  0.00  0.00    +0.000 C 
ENDROOT
BRANCH   2   3
ATOM      3  N   ALA A   1       7.601   8.095  17.325  0.00  0.00    +0.000 N 
ATOM      4  C   UNK A   0       8.310   8.917  18.177  0.00  0.00    +0.000 C 
ATOM      5  O   UNK A   0       8.972   8.493  19.120  0.00  0.00    +0.000 OA
ATOM      6  H   ALA A   1       6.874   8.506  16.750  0.00  0.00    +0.000 HD
BRANCH   4   7
ATOM      7  C   UNK A   0       8.193  10.395  17.885  0.00  0.00    +0.000 C 
BRANCH   7   8
ATOM      8  C   UNK A   0       9.319  11.202  18.478  0.00  0.00    +0.000 A 
ATOM      9  C   UNK A   0       9.395  11.424  19.864  0.00  0.00    +0.000 A 
ATOM     10  C   UNK A   0      10.445  12.162  20.397  0.00  0.00    +0.000 A 
ATOM     11  F   UNK A   0      10.492  12.376  21.720  0.00  0.00    +0.000 F 
ATOM     12  C   UNK A   0      11.443  12.683  19.586  0.00  0.00    +0.000 A 
ATOM     13  C   UNK A   0      11.377  12.450  18.220  0.00  0.00    +0.000 A 
ATOM     14  F   UNK A   0      12.333  12.940  17.419  0.00  0.00    +0.000 F 
ATOM     15  C   UNK A   0      10.332  11.719  17.660  0.00  0.00    +0.000 A 
ENDBRANCH   7   8
ENDBRANCH   4   7
ENDBRANCH   2   3
BRANCH   2  16
ATOM     16  C   ALA A   1       6.374   6.010  16.759  0.00  0.00    +0.000 C 
ATOM     17  O   ALA A   1       5.668   6.655  15.986  0.00  0.00    +0.000 OA
ATOM     18  N   PHE A   2       6.139   4.694  17.080  0.00  0.00    +0.000 N 
ATOM     19  H   PHE A   2       6.468   4.383  18.000  0.00  0.00    +0.000 HD
BRANCH  18  20
ATOM     20  CA  PHE A   2       5.087   3.908  16.449  0.00  0.00    +0.000 C 
BRANCH  20  21
ATOM     21  C   PHE A   2       5.163   3.967  14.912  0.00  0.00    +0.000 C 
BRANCH  21  22
ATOM     22  O   PHE A   2       6.514   3.948  14.454  0.00  0.00    +0.000 OA
ATOM     23  H   PHE A   2       6.588   4.639  13.772  0.00  0.00    +0.000 HD
ENDBRANCH  21  22
ENDBRANCH  20  21
BRANCH  20  24
ATOM     24  CB  PHE A   2       3.725   4.356  17.016  0.00  0.00    +0.000 C 
BRANCH  24  25
ATOM     25  CG  PHE A   2       2.730   3.201  17.279  0.00  0.00    +0.000 C 
ATOM     26  CD1 PHE A   2       3.339   2.046  18.094  0.00  0.00    +0.000 C 
ATOM     27  CE1 PHE A   2       3.664   2.463  19.525  0.00  0.00    +0.000 C 
ATOM     28  CZ  PHE A   2       2.413   2.964  20.240  0.00  0.00    +0.000 C 
ATOM     29  CE2 PHE A   2       1.705   4.074  19.465  0.00  0.00    +0.000 C 
ATOM     30  CD2 PHE A   2       1.463   3.702  18.000  0.00  0.00    +0.000 C 
ENDBRANCH  24  25
ENDBRANCH  20  24
ENDBRANCH  18  20
ENDBRANCH   2  16
TORSDOF 9
ENDMDL
MODEL 9
REMARK VINA RESULT:      -7.1      5.086      7.402
REMARK  Name = 
REMARK  10 active torsions:
REMARK  status: ('A' for Active; 'I' for Inactive)
REMARK    1  A    between atoms: CB_1  and  CA_2
REMARK    2  A    between atoms: CA_2  and  N_3
REMARK    3  A    between atoms: CA_2  and  C_15
REMARK    4  A    between atoms: C_4  and  C_6
REMARK    5  A    between atoms: C_6  and  C_7
REMARK    6  A    between atoms: N_17  and  CA_18
REMARK    7  A    between atoms: CA_18  and  C_19
REMARK    8  A    between atoms: CA_18  and  CB_21
REMARK    9  A    between atoms: C_19  and  O_20
REMARK   10  A    between atoms: CB_21  and  CG_22
REMARK                            x       y       z     vdW  Elec       q    Type
REMARK                         _______ _______ _______ _____ _____    ______ ____
ROOT
ATOM      1  CB  ALA A   1       2.310   6.734  20.235  0.00  0.00    +0.000 C 
ATOM      2  CA  ALA A   1       2.227   7.096  18.752  0.00  0.00    +0.000 C 
ENDROOT
BRANCH   2   3
ATOM      3  N   ALA A   1       3.426   6.751  17.995  0.00  0.00    +0.000 N 
ATOM      4  C   UNK A   0       3.604   5.504  17.431  0.00  0.00    +0.000 C 
ATOM      5  O   UNK A   0       2.773   4.604  17.520  0.00  0.00    +0.000 OA
ATOM      6  H   ALA A   1       4.237   7.346  18.121  0.00  0.00    +0.000 HD
BRANCH   4   7
ATOM      7  C   UNK A   0       4.919   5.309  16.712  0.00  0.00    +0.000 C 
BRANCH   7   8
ATOM      8  C   UNK A   0       6.083   5.928  17.441  0.00  0.00    +0.000 A 
ATOM      9  C   UNK A   0       6.675   5.279  18.538  0.00  0.00    +0.000 A 
ATOM     10  C   UNK A   0       7.755   5.858  19.194  0.00  0.00    +0.000 A 
ATOM     11  F   UNK A   0       8.296   5.231  20.249  0.00  0.00    +0.000 F 
ATOM     12  C   UNK A   0       8.281   7.073  18.780  0.00  0.00    +0.000 A 
ATOM     13  C   UNK A   0       7.707   7.706  17.686  0.00  0.00    +0.000 A 
ATOM     14  F   UNK A   0       8.203   8.878  17.267  0.00  0.00    +0.000 F 
ATOM     15  C   UNK A   0       6.621   7.151  17.016  0.00  0.00    +0.000 A 
ENDBRANCH   7   8
ENDBRANCH   4   7
ENDBRANCH   2   3
BRANCH   2  16
ATOM     16  C   ALA A   1       1.803   8.561  18.510  0.00  0.00    +0.000 C 
ATOM     17  O   ALA A   1       2.099   9.161  17.478  0.00  0.00    +0.000 OA
ATOM     18  N   PHE A   2       1.112   9.138  19.549  0.00  0.00    +0.000 N 
ATOM     19  H   PHE A   2       1.285   8.750  20.483  0.00  0.00    +0.000 HD
BRANCH  18  20
ATOM     20  CA  PHE A   2       0.574  10.489  19.479  0.00  0.00    +0.000 C 
BRANCH  20  21
ATOM     21  C   PHE A   2       0.793  11.270  20.789  0.00  0.00    +0.000 C 
BRANCH  21  22
ATOM     22  O   PHE A   2       1.288  10.423  21.825  0.00  0.00    +0.000 OA
ATOM     23  H   PHE A   2       0.512  10.001  22.234  0.00  0.00    +0.000 HD
ENDBRANCH  21  22
ENDBRANCH  20  21
BRANCH  20  24
ATOM     24  CB  PHE A   2      -0.905  10.412  19.049  0.00  0.00    +0.000 C 
BRANCH  24  25
ATOM     25  CG  PHE A   2      -1.396  11.624  18.223  0.00  0.00    +0.000 C 
ATOM     26  CD1 PHE A   2      -2.341  11.235  17.073  0.00  0.00    +0.000 C 
ATOM     27  CE1 PHE A   2      -3.672  10.690  17.583  0.00  0.00    +0.000 C 
ATOM     28  CZ  PHE A   2      -4.372  11.715  18.470  0.00  0.00    +0.000 C 
ATOM     29  CE2 PHE A   2      -3.478  12.207  19.607  0.00  0.00    +0.000 C 
ATOM     30  CD2 PHE A   2      -2.103  12.664  19.115  0.00  0.00    +0.000 C 
ENDBRANCH  24  25
ENDBRANCH  20  24
ENDBRANCH  18  20
ENDBRANCH   2  16
TORSDOF 9
ENDMDL
