MODEL 1
REMARK VINA RESULT:      -8.7      0.000      0.000
REMARK  Name = 
REMARK  5 active torsions:
REMARK  status: ('A' for Active; 'I' for Inactive)
REMARK    1  A    between atoms: C_1  and  C_2
REMARK    2  A    between atoms: C_5  and  C_6
REMARK    3  A    between atoms: C_13  and  C_14
REMARK    4  A    between atoms: C_17  and  C_18
REMARK    5  A    between atoms: N_24  and  C_25
REMARK                            x       y       z     vdW  Elec       q    Type
REMARK                         _______ _______ _______ _____ _____    ______ ____
ROOT
ATOM      1  C   UNL     1       1.666  13.538  20.464  0.00  0.00    +0.000 A 
ATOM      2  C   UNL     1       2.553  13.611  19.410  0.00  0.00    +0.000 A 
ATOM      3  S   UNL     1       2.205  12.377  18.271  0.00  0.00    +0.000 S 
ATOM      4  C   UNL     1       0.988  11.764  19.322  0.00  0.00    +0.000 A 
ATOM      5  N   UNL     1       0.811  12.461  20.424  0.00  0.00    +0.000 NA
ENDROOT
BRANCH   4   6
ATOM      6  C   UNL     1       0.161  10.550  18.962  0.00  0.00    +0.000 C 
ATOM      7  C   UNL     1      -0.044   9.650  20.195  0.00  0.00    +0.000 C 
ATOM      8  C   UNL     1       1.252   8.949  20.592  0.00  0.00    +0.000 C 
ATOM      9  N   UNL     1       1.798   8.189  19.465  0.00  0.00    +0.000 N 
ATOM     10  C   UNL     1       2.114   6.862  19.703  0.00  0.00    +0.000 C 
ATOM     11  O   UNL     1       1.894   6.361  20.808  0.00  0.00    +0.000 OA
ATOM     12  N   UNL     1       2.663   6.162  18.654  0.00  0.00    +0.000 N 
ATOM     13  C   UNL     1       2.035   8.973  18.253  0.00  0.00    +0.000 C 
ATOM     14  C   UNL     1       0.768   9.713  17.824  0.00  0.00    +0.000 C 
ATOM     15  H   UNL     1       3.133   6.697  17.946  0.00  0.00    +0.000 HD
BRANCH  12  16
ATOM     16  C   UNL     1       2.944   4.777  18.669  0.00  0.00    +0.000 A 
ATOM     17  C   UNL     1       4.052   4.231  19.331  0.00  0.00    +0.000 A 
ATOM     18  C   UNL     1       4.340   2.870  19.244  0.00  0.00    +0.000 A 
ATOM     19  C   UNL     1       3.500   2.041  18.518  0.00  0.00    +0.000 A 
ATOM     20  F   UNL     1       3.789   0.737  18.408  0.00  0.00    +0.000 F 
ATOM     21  C   UNL     1       2.364   2.548  17.899  0.00  0.00    +0.000 A 
ATOM     22  C   UNL     1       2.079   3.915  17.980  0.00  0.00    +0.000 A 
ENDBRANCH  12  16
ENDBRANCH   4   6
BRANCH   1  28
ATOM     23  C   UNL     1       3.937  15.403  21.961  0.00  0.00    +0.000 C 
ATOM     24  C   UNL     1       2.485  15.238  22.162  0.00  0.00    +0.000 A 
ATOM     25  O   UNL     1       1.924  15.981  23.151  0.00  0.00    +0.000 OA
ATOM     26  N   UNL     1       0.580  15.685  23.250  0.00  0.00    +0.000 NA
ATOM     27  C   UNL     1       0.328  14.733  22.332  0.00  0.00    +0.000 A 
ATOM     28  C   UNL     1       1.507  14.473  21.572  0.00  0.00    +0.000 A 
BRANCH  27  29
ATOM     29  C   UNL     1      -1.001  14.117  22.254  0.00  0.00    +0.000 A 
ATOM     30  C   UNL     1      -1.350  13.071  23.122  0.00  0.00    +0.000 A 
ATOM     31  C   UNL     1      -2.625  12.500  23.066  0.00  0.00    +0.000 A 
ATOM     32  C   UNL     1      -3.555  12.981  22.154  0.00  0.00    +0.000 A 
ATOM     33  F   UNL     1      -4.782  12.448  22.115  0.00  0.00    +0.000 F 
ATOM     34  C   UNL     1      -3.228  14.003  21.275  0.00  0.00    +0.000 A 
ATOM     35  C   UNL     1      -1.944  14.547  21.303  0.00  0.00    +0.000 A 
ENDBRANCH  27  29
ENDBRANCH   1  28
TORSDOF 4
ENDMDL
MODEL 2
REMARK VINA RESULT:      -8.6      6.015      9.670
REMARK  Name = 
REMARK  5 active torsions:
REMARK  status: ('A' for Active; 'I' for Inactive)
REMARK    1  A    between atoms: C_1  and  C_2
REMARK    2  A    between atoms: C_5  and  C_6
REMARK    3  A    between atoms: C_13  and  C_14
REMARK    4  A    between atoms: C_17  and  C_18
REMARK    5  A    between atoms: N_24  and  C_25
REMARK                            x       y       z     vdW  Elec       q    Type
REMARK                         _______ _______ _______ _____ _____    ______ ____
ROOT
ATOM      1  C   UNL     1       8.856  16.139  19.392  0.00  0.00    +0.000 A 
ATOM      2  C   UNL     1       9.005  15.905  20.744  0.00  0.00    +0.000 A 
ATOM      3  S   UNL     1       7.488  16.058  21.530  0.00  0.00    +0.000 S 
ATOM      4  C   UNL     1       6.777  16.544  20.041  0.00  0.00    +0.000 A 
ATOM      5  N   UNL     1       7.598  16.542  19.012  0.00  0.00    +0.000 NA
ENDROOT
BRANCH   4   6
ATOM      6  C   UNL     1       5.307  16.890  19.934  0.00  0.00    +0.000 C 
ATOM      7  C   UNL     1       4.531  16.330  21.140  0.00  0.00    +0.000 C 
ATOM      8  C   UNL     1       4.425  14.809  21.074  0.00  0.00    +0.000 C 
ATOM      9  N   UNL     1       3.821  14.384  19.810  0.00  0.00    +0.000 N 
ATOM     10  C   UNL     1       2.748  13.513  19.893  0.00  0.00    +0.000 C 
ATOM     11  O   UNL     1       2.318  13.163  20.994  0.00  0.00    +0.000 OA
ATOM     12  N   UNL     1       2.207  13.085  18.703  0.00  0.00    +0.000 N 
ATOM     13  C   UNL     1       4.505  14.864  18.609  0.00  0.00    +0.000 C 
ATOM     14  C   UNL     1       4.655  16.385  18.637  0.00  0.00    +0.000 C 
ATOM     15  H   UNL     1       2.805  13.108  17.896  0.00  0.00    +0.000 HD
BRANCH  12  16
ATOM     16  C   UNL     1       1.045  12.289  18.585  0.00  0.00    +0.000 A 
ATOM     17  C   UNL     1      -0.243  12.830  18.478  0.00  0.00    +0.000 A 
ATOM     18  C   UNL     1      -1.367  12.007  18.454  0.00  0.00    +0.000 A 
ATOM     19  C   UNL     1      -1.206  10.631  18.505  0.00  0.00    +0.000 A 
ATOM     20  F   UNL     1      -2.285   9.838  18.511  0.00  0.00    +0.000 F 
ATOM     21  C   UNL     1       0.064  10.067  18.554  0.00  0.00    +0.000 A 
ATOM     22  C   UNL     1       1.192  10.894  18.586  0.00  0.00    +0.000 A 
ENDBRANCH  12  16
ENDBRANCH   4   6
BRANCH   1  28
ATOM     23  C   UNL     1      10.206  18.414  17.422  0.00  0.00    +0.000 C 
ATOM     24  C   UNL     1      10.390  16.955  17.541  0.00  0.00    +0.000 A 
ATOM     25  O   UNL     1      11.284  16.388  16.690  0.00  0.00    +0.000 OA
ATOM     26  N   UNL     1      11.312  15.022  16.887  0.00  0.00    +0.000 NA
ATOM     27  C   UNL     1      10.407  14.754  17.847  0.00  0.00    +0.000 A 
ATOM     28  C   UNL     1       9.849  15.973  18.337  0.00  0.00    +0.000 A 
BRANCH  27  29
ATOM     29  C   UNL     1      10.113  13.366  18.216  0.00  0.00    +0.000 A 
ATOM     30  C   UNL     1      10.926  12.690  19.139  0.00  0.00    +0.000 A 
ATOM     31  C   UNL     1      10.632  11.375  19.512  0.00  0.00    +0.000 A 
ATOM     32  C   UNL     1       9.520  10.739  18.976  0.00  0.00    +0.000 A 
ATOM     33  F   UNL     1       9.227   9.488  19.349  0.00  0.00    +0.000 F 
ATOM     34  C   UNL     1       8.710  11.382  18.050  0.00  0.00    +0.000 A 
ATOM     35  C   UNL     1       9.025  12.680  17.647  0.00  0.00    +0.000 A 
ENDBRANCH  27  29
ENDBRANCH   1  28
TORSDOF 4
ENDMDL
MODEL 3
REMARK VINA RESULT:      -8.6      3.573      5.286
REMARK  Name = 
REMARK  5 active torsions:
REMARK  status: ('A' for Active; 'I' for Inactive)
REMARK    1  A    between atoms: C_1  and  C_2
REMARK    2  A    between atoms: C_5  and  C_6
REMARK    3  A    between atoms: C_13  and  C_14
REMARK    4  A    between atoms: C_17  and  C_18
REMARK    5  A    between atoms: N_24  and  C_25
REMARK                            x       y       z     vdW  Elec       q    Type
REMARK                         _______ _______ _______ _____ _____    ______ ____
ROOT
ATOM      1  C   UNL     1      -2.743  13.226  20.489  0.00  0.00    +0.000 A 
ATOM      2  C   UNL     1      -2.410  14.514  20.122  0.00  0.00    +0.000 A 
ATOM      3  S   UNL     1      -0.705  14.698  20.129  0.00  0.00    +0.000 S 
ATOM      4  C   UNL     1      -0.545  13.096  20.736  0.00  0.00    +0.000 A 
ATOM      5  N   UNL     1      -1.680  12.444  20.876  0.00  0.00    +0.000 NA
ENDROOT
BRANCH   4   6
ATOM      6  C   UNL     1       0.808  12.485  21.029  0.00  0.00    +0.000 C 
ATOM      7  C   UNL     1       1.739  12.623  19.810  0.00  0.00    +0.000 C 
ATOM      8  C   UNL     1       1.302  11.705  18.672  0.00  0.00    +0.000 C 
ATOM      9  N   UNL     1       1.224  10.315  19.126  0.00  0.00    +0.000 N 
ATOM     10  C   UNL     1       1.898   9.372  18.367  0.00  0.00    +0.000 C 
ATOM     11  O   UNL     1       2.559   9.723  17.388  0.00  0.00    +0.000 OA
ATOM     12  N   UNL     1       1.790   8.063  18.774  0.00  0.00    +0.000 N 
ATOM     13  C   UNL     1       0.348  10.092  20.276  0.00  0.00    +0.000 C 
ATOM     14  C   UNL     1       0.733  11.006  21.440  0.00  0.00    +0.000 C 
ATOM     15  H   UNL     1       0.983   7.820  19.320  0.00  0.00    +0.000 HD
BRANCH  12  16
ATOM     16  C   UNL     1       2.493   6.980  18.199  0.00  0.00    +0.000 A 
ATOM     17  C   UNL     1       2.016   5.662  18.222  0.00  0.00    +0.000 A 
ATOM     18  C   UNL     1       2.784   4.612  17.722  0.00  0.00    +0.000 A 
ATOM     19  C   UNL     1       4.024   4.881  17.165  0.00  0.00    +0.000 A 
ATOM     20  F   UNL     1       4.778   3.871  16.709  0.00  0.00    +0.000 F 
ATOM     21  C   UNL     1       4.496   6.185  17.078  0.00  0.00    +0.000 A 
ATOM     22  C   UNL     1       3.728   7.238  17.587  0.00  0.00    +0.000 A 
ENDBRANCH  12  16
ENDBRANCH   4   6
BRANCH   1  28
ATOM     23  C   UNL     1      -5.021  13.107  22.871  0.00  0.00    +0.000 C 
ATOM     24  C   UNL     1      -4.983  12.580  21.493  0.00  0.00    +0.000 A 
ATOM     25  O   UNL     1      -6.083  11.901  21.076  0.00  0.00    +0.000 OA
ATOM     26  N   UNL     1      -5.882  11.432  19.794  0.00  0.00    +0.000 NA
ATOM     27  C   UNL     1      -4.638  11.804  19.440  0.00  0.00    +0.000 A 
ATOM     28  C   UNL     1      -4.060  12.599  20.475  0.00  0.00    +0.000 A 
BRANCH  27  29
ATOM     29  C   UNL     1      -4.071  11.362  18.162  0.00  0.00    +0.000 A 
ATOM     30  C   UNL     1      -4.742  11.629  16.959  0.00  0.00    +0.000 A 
ATOM     31  C   UNL     1      -4.191  11.231  15.737  0.00  0.00    +0.000 A 
ATOM     32  C   UNL     1      -2.964  10.580  15.715  0.00  0.00    +0.000 A 
ATOM     33  F   UNL     1      -2.427  10.217  14.544  0.00  0.00    +0.000 F 
ATOM     34  C   UNL     1      -2.290  10.290  16.892  0.00  0.00    +0.000 A 
ATOM     35  C   UNL     1      -2.858  10.652  18.114  0.00  0.00    +0.000 A 
ENDBRANCH  27  29
ENDBRANCH   1  28
TORSDOF 4
ENDMDL
MODEL 4
REMARK VINA RESULT:      -8.6      0.175      1.181
REMARK  Name = 
REMARK  5 active torsions:
REMARK  status: ('A' for Active; 'I' for Inactive)
REMARK    1  A    between atoms: C_1  and  C_2
REMARK    2  A    between atoms: C_5  and  C_6
REMARK    3  A    between atoms: C_13  and  C_14
REMARK    4  A    between atoms: C_17  and  C_18
REMARK    5  A    between atoms: N_24  and  C_25
REMARK                            x       y       z     vdW  Elec       q    Type
REMARK                         _______ _______ _______ _____ _____    ______ ____
ROOT
ATOM      1  C   UNL     1       1.590  13.550  20.589  0.00  0.00    +0.000 A 
ATOM      2  C   UNL     1       2.517  13.591  19.568  0.00  0.00    +0.000 A 
ATOM      3  S   UNL     1       2.192  12.342  18.438  0.00  0.00    +0.000 S 
ATOM      4  C   UNL     1       0.928  11.767  19.453  0.00  0.00    +0.000 A 
ATOM      5  N   UNL     1       0.721  12.486  20.536  0.00  0.00    +0.000 NA
ENDROOT
BRANCH   4   6
ATOM      6  C   UNL     1       0.095  10.558  19.083  0.00  0.00    +0.000 C 
ATOM      7  C   UNL     1      -0.034   9.603  20.284  0.00  0.00    +0.000 C 
ATOM      8  C   UNL     1       1.288   8.902  20.580  0.00  0.00    +0.000 C 
ATOM      9  N   UNL     1       1.782   8.200  19.394  0.00  0.00    +0.000 N 
ATOM     10  C   UNL     1       2.123   6.868  19.555  0.00  0.00    +0.000 C 
ATOM     11  O   UNL     1       1.968   6.316  20.647  0.00  0.00    +0.000 OA
ATOM     12  N   UNL     1       2.624   6.222  18.449  0.00  0.00    +0.000 N 
ATOM     13  C   UNL     1       1.946   9.039  18.207  0.00  0.00    +0.000 C 
ATOM     14  C   UNL     1       0.650   9.781  17.879  0.00  0.00    +0.000 C 
ATOM     15  H   UNL     1       3.050   6.793  17.741  0.00  0.00    +0.000 HD
BRANCH  12  16
ATOM     16  C   UNL     1       2.920   4.841  18.387  0.00  0.00    +0.000 A 
ATOM     17  C   UNL     1       2.047   3.897  17.831  0.00  0.00    +0.000 A 
ATOM     18  C   UNL     1       2.341   2.536  17.872  0.00  0.00    +0.000 A 
ATOM     19  C   UNL     1       3.530   2.112  18.444  0.00  0.00    +0.000 A 
ATOM     20  F   UNL     1       3.804   0.803  18.510  0.00  0.00    +0.000 F 
ATOM     21  C   UNL     1       4.440   3.032  18.952  0.00  0.00    +0.000 A 
ATOM     22  C   UNL     1       4.141   4.398  18.917  0.00  0.00    +0.000 A 
ENDBRANCH  12  16
ENDBRANCH   4   6
BRANCH   1  28
ATOM     23  C   UNL     1       3.819  15.469  22.081  0.00  0.00    +0.000 C 
ATOM     24  C   UNL     1       2.365  15.294  22.263  0.00  0.00    +0.000 A 
ATOM     25  O   UNL     1       1.782  16.052  23.227  0.00  0.00    +0.000 OA
ATOM     26  N   UNL     1       0.439  15.745  23.311  0.00  0.00    +0.000 NA
ATOM     27  C   UNL     1       0.211  14.772  22.410  0.00  0.00    +0.000 A 
ATOM     28  C   UNL     1       1.404  14.507  21.674  0.00  0.00    +0.000 A 
BRANCH  27  29
ATOM     29  C   UNL     1      -1.110  14.141  22.324  0.00  0.00    +0.000 A 
ATOM     30  C   UNL     1      -2.052  14.592  21.388  0.00  0.00    +0.000 A 
ATOM     31  C   UNL     1      -3.303  13.975  21.286  0.00  0.00    +0.000 A 
ATOM     32  C   UNL     1      -3.608  12.899  22.111  0.00  0.00    +0.000 A 
ATOM     33  F   UNL     1      -4.798  12.296  21.999  0.00  0.00    +0.000 F 
ATOM     34  C   UNL     1      -2.700  12.446  23.056  0.00  0.00    +0.000 A 
ATOM     35  C   UNL     1      -1.466  13.086  23.184  0.00  0.00    +0.000 A 
ENDBRANCH  27  29
ENDBRANCH   1  28
TORSDOF 4
ENDMDL
MODEL 5
REMARK VINA RESULT:      -8.4      3.900      6.056
REMARK  Name = 
REMARK  5 active torsions:
REMARK  status: ('A' for Active; 'I' for Inactive)
REMARK    1  A    between atoms: C_1  and  C_2
REMARK    2  A    between atoms: C_5  and  C_6
REMARK    3  A    between atoms: C_13  and  C_14
REMARK    4  A    between atoms: C_17  and  C_18
REMARK    5  A    between atoms: N_24  and  C_25
REMARK                            x       y       z     vdW  Elec       q    Type
REMARK                         _______ _______ _______ _____ _____    ______ ____
ROOT
ATOM      1  C   UNL     1      -4.357  13.429  21.468  0.00  0.00    +0.000 A 
ATOM      2  C   UNL     1      -4.158  14.793  21.408  0.00  0.00    +0.000 A 
ATOM      3  S   UNL     1      -2.521  15.158  21.764  0.00  0.00    +0.000 S 
ATOM      4  C   UNL     1      -2.232  13.495  22.093  0.00  0.00    +0.000 A 
ATOM      5  N   UNL     1      -3.268  12.707  21.900  0.00  0.00    +0.000 NA
ENDROOT
BRANCH   4   6
ATOM      6  C   UNL     1      -0.870  12.990  22.518  0.00  0.00    +0.000 C 
ATOM      7  C   UNL     1       0.206  13.417  21.502  0.00  0.00    +0.000 C 
ATOM      8  C   UNL     1       0.065  12.651  20.190  0.00  0.00    +0.000 C 
ATOM      9  N   UNL     1       0.100  11.206  20.425  0.00  0.00    +0.000 N 
ATOM     10  C   UNL     1       0.995  10.473  19.665  0.00  0.00    +0.000 C 
ATOM     11  O   UNL     1       1.743  11.041  18.868  0.00  0.00    +0.000 OA
ATOM     12  N   UNL     1       0.998   9.111  19.860  0.00  0.00    +0.000 N 
ATOM     13  C   UNL     1      -0.901  10.713  21.372  0.00  0.00    +0.000 C 
ATOM     14  C   UNL     1      -0.814  11.465  22.700  0.00  0.00    +0.000 C 
ATOM     15  H   UNL     1       0.156   8.701  20.225  0.00  0.00    +0.000 HD
BRANCH  12  16
ATOM     16  C   UNL     1       1.912   8.213  19.264  0.00  0.00    +0.000 A 
ATOM     17  C   UNL     1       2.499   8.441  18.012  0.00  0.00    +0.000 A 
ATOM     18  C   UNL     1       3.326   7.486  17.422  0.00  0.00    +0.000 A 
ATOM     19  C   UNL     1       3.595   6.307  18.099  0.00  0.00    +0.000 A 
ATOM     20  F   UNL     1       4.366   5.375  17.524  0.00  0.00    +0.000 F 
ATOM     21  C   UNL     1       3.071   6.081  19.367  0.00  0.00    +0.000 A 
ATOM     22  C   UNL     1       2.236   7.037  19.955  0.00  0.00    +0.000 A 
ENDBRANCH  12  16
ENDBRANCH   4   6
BRANCH   1  28
ATOM     23  C   UNL     1      -7.072  12.818  23.239  0.00  0.00    +0.000 C 
ATOM     24  C   UNL     1      -6.665  12.452  21.868  0.00  0.00    +0.000 A 
ATOM     25  O   UNL     1      -7.553  11.714  21.153  0.00  0.00    +0.000 OA
ATOM     26  N   UNL     1      -7.017  11.411  19.918  0.00  0.00    +0.000 NA
ATOM     27  C   UNL     1      -5.781  11.944  19.894  0.00  0.00    +0.000 A 
ATOM     28  C   UNL     1      -5.549  12.676  21.097  0.00  0.00    +0.000 A 
BRANCH  27  29
ATOM     29  C   UNL     1      -4.896  11.705  18.750  0.00  0.00    +0.000 A 
ATOM     30  C   UNL     1      -5.432  11.465  17.476  0.00  0.00    +0.000 A 
ATOM     31  C   UNL     1      -4.590  11.262  16.379  0.00  0.00    +0.000 A 
ATOM     32  C   UNL     1      -3.212  11.312  16.551  0.00  0.00    +0.000 A 
ATOM     33  F   UNL     1      -2.406  11.138  15.497  0.00  0.00    +0.000 F 
ATOM     34  C   UNL     1      -2.658  11.531  17.804  0.00  0.00    +0.000 A 
ATOM     35  C   UNL     1      -3.498  11.695  18.906  0.00  0.00    +0.000 A 
ENDBRANCH  27  29
ENDBRANCH   1  28
TORSDOF 4
ENDMDL
MODEL 6
REMARK VINA RESULT:      -8.2      2.801      3.374
REMARK  Name = 
REMARK  5 active torsions:
REMARK  status: ('A' for Active; 'I' for Inactive)
REMARK    1  A    between atoms: C_1  and  C_2
REMARK    2  A    between atoms: C_5  and  C_6
REMARK    3  A    between atoms: C_13  and  C_14
REMARK    4  A    between atoms: C_17  and  C_18
REMARK    5  A    between atoms: N_24  and  C_25
REMARK                            x       y       z     vdW  Elec       q    Type
REMARK                         _______ _______ _______ _____ _____    ______ ____
ROOT
ATOM      1  C   UNL     1       1.793  14.134  19.267  0.00  0.00    +0.000 A 
ATOM      2  C   UNL     1       1.962  13.873  20.611  0.00  0.00    +0.000 A 
ATOM      3  S   UNL     1       1.287  12.344  20.995  0.00  0.00    +0.000 S 
ATOM      4  C   UNL     1       0.713  12.203  19.380  0.00  0.00    +0.000 A 
ATOM      5  N   UNL     1       1.046  13.200  18.588  0.00  0.00    +0.000 NA
ENDROOT
BRANCH   4   6
ATOM      6  C   UNL     1      -0.065  10.992  18.912  0.00  0.00    +0.000 C 
ATOM      7  C   UNL     1      -0.299  10.016  20.080  0.00  0.00    +0.000 C 
ATOM      8  C   UNL     1       0.997   9.323  20.492  0.00  0.00    +0.000 C 
ATOM      9  N   UNL     1       1.611   8.646  19.349  0.00  0.00    +0.000 N 
ATOM     10  C   UNL     1       1.951   7.315  19.522  0.00  0.00    +0.000 C 
ATOM     11  O   UNL     1       1.697   6.743  20.585  0.00  0.00    +0.000 OA
ATOM     12  N   UNL     1       2.564   6.692  18.460  0.00  0.00    +0.000 N 
ATOM     13  C   UNL     1       1.880   9.506  18.197  0.00  0.00    +0.000 C 
ATOM     14  C   UNL     1       0.613  10.240  17.756  0.00  0.00    +0.000 C 
ATOM     15  H   UNL     1       3.051   7.279  17.806  0.00  0.00    +0.000 HD
BRANCH  12  16
ATOM     16  C   UNL     1       2.881   5.316  18.406  0.00  0.00    +0.000 A 
ATOM     17  C   UNL     1       4.078   4.789  18.909  0.00  0.00    +0.000 A 
ATOM     18  C   UNL     1       4.389   3.439  18.754  0.00  0.00    +0.000 A 
ATOM     19  C   UNL     1       3.485   2.600  18.120  0.00  0.00    +0.000 A 
ATOM     20  F   UNL     1       3.792   1.309  17.944  0.00  0.00    +0.000 F 
ATOM     21  C   UNL     1       2.266   3.087  17.663  0.00  0.00    +0.000 A 
ATOM     22  C   UNL     1       1.958   4.443  17.812  0.00  0.00    +0.000 A 
ENDBRANCH  12  16
ENDBRANCH   4   6
BRANCH   1  28
ATOM     23  C   UNL     1       4.857  14.577  18.130  0.00  0.00    +0.000 C 
ATOM     24  C   UNL     1       3.625  15.383  18.030  0.00  0.00    +0.000 A 
ATOM     25  O   UNL     1       3.721  16.551  17.344  0.00  0.00    +0.000 OA
ATOM     26  N   UNL     1       2.510  17.211  17.378  0.00  0.00    +0.000 NA
ATOM     27  C   UNL     1       1.679  16.452  18.116  0.00  0.00    +0.000 A 
ATOM     28  C   UNL     1       2.337  15.243  18.491  0.00  0.00    +0.000 A 
BRANCH  27  29
ATOM     29  C   UNL     1       0.332  16.932  18.437  0.00  0.00    +0.000 A 
ATOM     30  C   UNL     1      -0.307  16.515  19.615  0.00  0.00    +0.000 A 
ATOM     31  C   UNL     1      -1.582  16.991  19.937  0.00  0.00    +0.000 A 
ATOM     32  C   UNL     1      -2.213  17.894  19.090  0.00  0.00    +0.000 A 
ATOM     33  F   UNL     1      -3.425  18.365  19.408  0.00  0.00    +0.000 F 
ATOM     34  C   UNL     1      -1.609  18.308  17.912  0.00  0.00    +0.000 A 
ATOM     35  C   UNL     1      -0.353  17.802  17.571  0.00  0.00    +0.000 A 
ENDBRANCH  27  29
ENDBRANCH   1  28
TORSDOF 4
ENDMDL
MODEL 7
REMARK VINA RESULT:      -8.1      1.505      1.558
REMARK  Name = 
REMARK  5 active torsions:
REMARK  status: ('A' for Active; 'I' for Inactive)
REMARK    1  A    between atoms: C_1  and  C_2
REMARK    2  A    between atoms: C_5  and  C_6
REMARK    3  A    between atoms: C_13  and  C_14
REMARK    4  A    between atoms: C_17  and  C_18
REMARK    5  A    between atoms: N_24  and  C_25
REMARK                            x       y       z     vdW  Elec       q    Type
REMARK                         _______ _______ _______ _____ _____    ______ ____
ROOT
ATOM      1  C   UNL     1       0.650  14.120  20.459  0.00  0.00    +0.000 A 
ATOM      2  C   UNL     1       0.537  14.529  19.146  0.00  0.00    +0.000 A 
ATOM      3  S   UNL     1      -0.272  13.326  18.230  0.00  0.00    +0.000 S 
ATOM      4  C   UNL     1      -0.299  12.304  19.614  0.00  0.00    +0.000 A 
ATOM      5  N   UNL     1       0.211  12.839  20.703  0.00  0.00    +0.000 NA
ENDROOT
BRANCH   4   6
ATOM      6  C   UNL     1      -0.914  10.922  19.574  0.00  0.00    +0.000 C 
ATOM      7  C   UNL     1      -0.412  10.073  20.758  0.00  0.00    +0.000 C 
ATOM      8  C   UNL     1       1.054   9.689  20.583  0.00  0.00    +0.000 C 
ATOM      9  N   UNL     1       1.262   8.999  19.308  0.00  0.00    +0.000 N 
ATOM     10  C   UNL     1       1.928   7.785  19.358  0.00  0.00    +0.000 C 
ATOM     11  O   UNL     1       2.278   7.314  20.441  0.00  0.00    +0.000 OA
ATOM     12  N   UNL     1       2.157   7.159  18.155  0.00  0.00    +0.000 N 
ATOM     13  C   UNL     1       0.823   9.743  18.128  0.00  0.00    +0.000 C 
ATOM     14  C   UNL     1      -0.638  10.169  18.263  0.00  0.00    +0.000 C 
ATOM     15  H   UNL     1       2.180   7.739  17.335  0.00  0.00    +0.000 HD
BRANCH  12  16
ATOM     16  C   UNL     1       2.716   5.869  18.012  0.00  0.00    +0.000 A 
ATOM     17  C   UNL     1       4.096   5.643  17.909  0.00  0.00    +0.000 A 
ATOM     18  C   UNL     1       4.598   4.363  17.679  0.00  0.00    +0.000 A 
ATOM     19  C   UNL     1       3.720   3.294  17.582  0.00  0.00    +0.000 A 
ATOM     20  F   UNL     1       4.197   2.067  17.333  0.00  0.00    +0.000 F 
ATOM     21  C   UNL     1       2.352   3.483  17.737  0.00  0.00    +0.000 A 
ATOM     22  C   UNL     1       1.848   4.769  17.961  0.00  0.00    +0.000 A 
ENDBRANCH  12  16
ENDBRANCH   4   6
BRANCH   1  28
ATOM     23  C   UNL     1       3.746  14.900  21.287  0.00  0.00    +0.000 C 
ATOM     24  C   UNL     1       2.439  15.194  21.905  0.00  0.00    +0.000 A 
ATOM     25  O   UNL     1       2.463  15.931  23.046  0.00  0.00    +0.000 OA
ATOM     26  N   UNL     1       1.179  16.083  23.528  0.00  0.00    +0.000 NA
ATOM     27  C   UNL     1       0.371  15.409  22.689  0.00  0.00    +0.000 A 
ATOM     28  C   UNL     1       1.134  14.887  21.601  0.00  0.00    +0.000 A 
BRANCH  27  29
ATOM     29  C   UNL     1      -1.059  15.282  22.985  0.00  0.00    +0.000 A 
ATOM     30  C   UNL     1      -1.491  14.543  24.097  0.00  0.00    +0.000 A 
ATOM     31  C   UNL     1      -2.853  14.442  24.396  0.00  0.00    +0.000 A 
ATOM     32  C   UNL     1      -3.784  15.090  23.593  0.00  0.00    +0.000 A 
ATOM     33  F   UNL     1      -5.086  15.010  23.891  0.00  0.00    +0.000 F 
ATOM     34  C   UNL     1      -3.382  15.812  22.478  0.00  0.00    +0.000 A 
ATOM     35  C   UNL     1      -2.026  15.880  22.157  0.00  0.00    +0.000 A 
ENDBRANCH  27  29
ENDBRANCH   1  28
TORSDOF 4
ENDMDL
MODEL 8
REMARK VINA RESULT:      -8.1      3.312      4.638
REMARK  Name = 
REMARK  5 active torsions:
REMARK  status: ('A' for Active; 'I' for Inactive)
REMARK    1  A    between atoms: C_1  and  C_2
REMARK    2  A    between atoms: C_5  and  C_6
REMARK    3  A    between atoms: C_13  and  C_14
REMARK    4  A    between atoms: C_17  and  C_18
REMARK    5  A    between atoms: N_24  and  C_25
REMARK                            x       y       z     vdW  Elec       q    Type
REMARK                         _______ _______ _______ _____ _____    ______ ____
ROOT
ATOM      1  C   UNL     1      -2.835  13.260  21.487  0.00  0.00    +0.000 A 
ATOM      2  C   UNL     1      -2.893  12.333  22.507  0.00  0.00    +0.000 A 
ATOM      3  S   UNL     1      -1.350  11.619  22.731  0.00  0.00    +0.000 S 
ATOM      4  C   UNL     1      -0.756  12.502  21.379  0.00  0.00    +0.000 A 
ATOM      5  N   UNL     1      -1.630  13.316  20.827  0.00  0.00    +0.000 NA
ENDROOT
BRANCH   4   6
ATOM      6  C   UNL     1       0.678  12.376  20.912  0.00  0.00    +0.000 C 
ATOM      7  C   UNL     1       0.743  12.338  19.374  0.00  0.00    +0.000 C 
ATOM      8  C   UNL     1       0.197  11.022  18.827  0.00  0.00    +0.000 C 
ATOM      9  N   UNL     1       0.901   9.882  19.417  0.00  0.00    +0.000 N 
ATOM     10  C   UNL     1       1.415   8.944  18.538  0.00  0.00    +0.000 C 
ATOM     11  O   UNL     1       1.307   9.110  17.322  0.00  0.00    +0.000 OA
ATOM     12  N   UNL     1       2.041   7.854  19.096  0.00  0.00    +0.000 N 
ATOM     13  C   UNL     1       0.877   9.834  20.879  0.00  0.00    +0.000 C 
ATOM     14  C   UNL     1       1.398  11.141  21.477  0.00  0.00    +0.000 C 
ATOM     15  H   UNL     1       1.779   7.608  20.035  0.00  0.00    +0.000 HD
BRANCH  12  16
ATOM     16  C   UNL     1       2.723   6.854  18.366  0.00  0.00    +0.000 A 
ATOM     17  C   UNL     1       2.231   5.551  18.215  0.00  0.00    +0.000 A 
ATOM     18  C   UNL     1       2.980   4.572  17.563  0.00  0.00    +0.000 A 
ATOM     19  C   UNL     1       4.215   4.904  17.028  0.00  0.00    +0.000 A 
ATOM     20  F   UNL     1       4.950   3.960  16.425  0.00  0.00    +0.000 F 
ATOM     21  C   UNL     1       4.700   6.203  17.114  0.00  0.00    +0.000 A 
ATOM     22  C   UNL     1       3.952   7.182  17.776  0.00  0.00    +0.000 A 
ENDBRANCH  12  16
ENDBRANCH   4   6
BRANCH   1  28
ATOM     23  C   UNL     1      -3.052  16.509  22.016  0.00  0.00    +0.000 C 
ATOM     24  C   UNL     1      -3.916  15.550  21.302  0.00  0.00    +0.000 A 
ATOM     25  O   UNL     1      -5.039  16.058  20.731  0.00  0.00    +0.000 OA
ATOM     26  N   UNL     1      -5.764  15.041  20.145  0.00  0.00    +0.000 NA
ATOM     27  C   UNL     1      -5.091  13.901  20.386  0.00  0.00    +0.000 A 
ATOM     28  C   UNL     1      -3.869  14.197  21.063  0.00  0.00    +0.000 A 
BRANCH  27  29
ATOM     29  C   UNL     1      -5.658  12.610  19.985  0.00  0.00    +0.000 A 
ATOM     30  C   UNL     1      -6.668  12.010  20.753  0.00  0.00    +0.000 A 
ATOM     31  C   UNL     1      -7.229  10.791  20.358  0.00  0.00    +0.000 A 
ATOM     32  C   UNL     1      -6.792  10.179  19.191  0.00  0.00    +0.000 A 
ATOM     33  F   UNL     1      -7.343   9.023  18.802  0.00  0.00    +0.000 F 
ATOM     34  C   UNL     1      -5.783  10.744  18.424  0.00  0.00    +0.000 A 
ATOM     35  C   UNL     1      -5.196  11.941  18.838  0.00  0.00    +0.000 A 
ENDBRANCH  27  29
ENDBRANCH   1  28
TORSDOF 4
ENDMDL
MODEL 9
REMARK VINA RESULT:      -8.1      3.107     10.728
REMARK  Name = 
REMARK  5 active torsions:
REMARK  status: ('A' for Active; 'I' for Inactive)
REMARK    1  A    between atoms: C_1  and  C_2
REMARK    2  A    between atoms: C_5  and  C_6
REMARK    3  A    between atoms: C_13  and  C_14
REMARK    4  A    between atoms: C_17  and  C_18
REMARK    5  A    between atoms: N_24  and  C_25
REMARK                            x       y       z     vdW  Elec       q    Type
REMARK                         _______ _______ _______ _____ _____    ______ ____
ROOT
ATOM      1  C   UNL     1       2.597   6.494  18.738  0.00  0.00    +0.000 A 
ATOM      2  C   UNL     1       2.354   6.632  20.089  0.00  0.00    +0.000 A 
ATOM      3  S   UNL     1       1.578   8.132  20.389  0.00  0.00    +0.000 S 
ATOM      4  C   UNL     1       1.736   8.536  18.724  0.00  0.00    +0.000 A 
ATOM      5  N   UNL     1       2.282   7.597  17.980  0.00  0.00    +0.000 NA
ENDROOT
BRANCH   4   6
ATOM      6  C   UNL     1       1.232   9.851  18.171  0.00  0.00    +0.000 C 
ATOM      7  C   UNL     1       1.787  11.030  18.991  0.00  0.00    +0.000 C 
ATOM      8  C   UNL     1       1.149  11.093  20.375  0.00  0.00    +0.000 C 
ATOM      9  N   UNL     1      -0.310  11.157  20.274  0.00  0.00    +0.000 N 
ATOM     10  C   UNL     1      -0.940  12.172  20.973  0.00  0.00    +0.000 C 
ATOM     11  O   UNL     1      -0.274  12.993  21.608  0.00  0.00    +0.000 OA
ATOM     12  N   UNL     1      -2.313  12.206  20.907  0.00  0.00    +0.000 N 
ATOM     13  C   UNL     1      -0.922  10.063  19.519  0.00  0.00    +0.000 C 
ATOM     14  C   UNL     1      -0.302   9.946  18.127  0.00  0.00    +0.000 C 
ATOM     15  H   UNL     1      -2.781  11.342  20.697  0.00  0.00    +0.000 HD
BRANCH  12  16
ATOM     16  C   UNL     1      -3.122  13.226  21.458  0.00  0.00    +0.000 A 
ATOM     17  C   UNL     1      -3.331  14.459  20.826  0.00  0.00    +0.000 A 
ATOM     18  C   UNL     1      -4.063  15.469  21.447  0.00  0.00    +0.000 A 
ATOM     19  C   UNL     1      -4.619  15.238  22.695  0.00  0.00    +0.000 A 
ATOM     20  F   UNL     1      -5.299  16.216  23.308  0.00  0.00    +0.000 F 
ATOM     21  C   UNL     1      -4.475  14.005  23.319  0.00  0.00    +0.000 A 
ATOM     22  C   UNL     1      -3.734  12.994  22.698  0.00  0.00    +0.000 A 
ENDBRANCH  12  16
ENDBRANCH   4   6
BRANCH   1  28
ATOM     23  C   UNL     1       0.992   3.766  17.811  0.00  0.00    +0.000 C 
ATOM     24  C   UNL     1       2.392   4.206  17.657  0.00  0.00    +0.000 A 
ATOM     25  O   UNL     1       3.227   3.351  17.011  0.00  0.00    +0.000 OA
ATOM     26  N   UNL     1       4.502   3.876  16.987  0.00  0.00    +0.000 NA
ATOM     27  C   UNL     1       4.449   5.047  17.648  0.00  0.00    +0.000 A 
ATOM     28  C   UNL     1       3.102   5.323  18.030  0.00  0.00    +0.000 A 
BRANCH  27  29
ATOM     29  C   UNL     1       5.675   5.810  17.897  0.00  0.00    +0.000 A 
ATOM     30  C   UNL     1       5.955   6.965  17.151  0.00  0.00    +0.000 A 
ATOM     31  C   UNL     1       7.112   7.710  17.403  0.00  0.00    +0.000 A 
ATOM     32  C   UNL     1       7.981   7.309  18.410  0.00  0.00    +0.000 A 
ATOM     33  F   UNL     1       9.077   8.034  18.666  0.00  0.00    +0.000 F 
ATOM     34  C   UNL     1       7.734   6.162  19.150  0.00  0.00    +0.000 A 
ATOM     35  C   UNL     1       6.601   5.398  18.872  0.00  0.00    +0.000 A 
ENDBRANCH  27  29
ENDBRANCH   1  28
TORSDOF 4
ENDMDL
