MODEL 1
REMARK VINA RESULT:      -8.0      0.000      0.000
REMARK  Name = 
REMARK  4 active torsions:
REMARK  status: ('A' for Active; 'I' for Inactive)
REMARK    1  A    between atoms: C_2  and  C_4
REMARK    2  A    between atoms: N_18  and  C_19
REMARK    3  A    between atoms: C_19  and  C_20
REMARK    4  A    between atoms: C_20  and  O_21
REMARK                            x       y       z     vdW  Elec       q    Type
REMARK                         _______ _______ _______ _____ _____    ______ ____
ROOT
ATOM      1  C   UNL     1       5.603   5.252  15.693  0.00  0.00    +0.000 A 
ATOM      2  C   UNL     1       5.429   6.621  15.853  0.00  0.00    +0.000 A 
ATOM      3  C   UNL     1       4.533   7.097  16.812  0.00  0.00    +0.000 A 
ATOM      4  C   UNL     1       3.780   6.221  17.616  0.00  0.00    +0.000 A 
ATOM      5  C   UNL     1       3.925   4.822  17.438  0.00  0.00    +0.000 A 
ATOM      6  C   UNL     1       4.841   4.366  16.464  0.00  0.00    +0.000 A 
ATOM      7  C   UNL     1       3.132   3.891  18.270  0.00  0.00    +0.000 A 
ATOM      8  C   UNL     1       3.174   2.486  18.130  0.00  0.00    +0.000 A 
ATOM      9  C   UNL     1       2.406   1.642  18.942  0.00  0.00    +0.000 A 
ATOM     10  C   UNL     1       1.571   2.175  19.913  0.00  0.00    +0.000 A 
ATOM     11  C   UNL     1       1.507   3.554  20.070  0.00  0.00    +0.000 A 
ATOM     12  C   UNL     1       2.280   4.403  19.256  0.00  0.00    +0.000 A 
ATOM     13  C   UNL     1       2.168   5.866  19.462  0.00  0.00    +0.000 A 
ATOM     14  O   UNL     1       1.449   6.287  20.369  0.00  0.00    +0.000 OA
ATOM     15  N   UNL     1       2.876   6.718  18.609  0.00  0.00    +0.000 N 
ENDROOT
BRANCH   1  17
ATOM     16  N   UNL     1       6.228   3.545  14.078  0.00  0.00    +0.000 N 
ATOM     17  C   UNL     1       6.582   4.697  14.723  0.00  0.00    +0.000 C 
ATOM     18  O   UNL     1       7.634   5.270  14.472  0.00  0.00    +0.000 OA
ATOM     19  H   UNL     1       6.843   3.238  13.335  0.00  0.00    +0.000 HD
ATOM     20  H   UNL     1       5.281   3.194  14.073  0.00  0.00    +0.000 HD
ENDBRANCH   1  17
BRANCH  15  21
ATOM     21  C   UNL     1       2.635   8.157  18.787  0.00  0.00    +0.000 C 
BRANCH  21  22
ATOM     22  C   UNL     1       1.592   8.736  17.824  0.00  0.00    +0.000 C 
BRANCH  22  23
ATOM     23  O   UNL     1       1.946  10.043  17.380  0.00  0.00    +0.000 OA
ATOM     24  H   UNL     1       2.153   9.963  16.431  0.00  0.00    +0.000 HD
ENDBRANCH  22  23
ENDBRANCH  21  22
ENDBRANCH  15  21
TORSDOF 4
ENDMDL
MODEL 2
REMARK VINA RESULT:      -7.6      2.941      3.530
REMARK  Name = 
REMARK  4 active torsions:
REMARK  status: ('A' for Active; 'I' for Inactive)
REMARK    1  A    between atoms: C_2  and  C_4
REMARK    2  A    between atoms: N_18  and  C_19
REMARK    3  A    between atoms: C_19  and  C_20
REMARK    4  A    between atoms: C_20  and  O_21
REMARK                            x       y       z     vdW  Elec       q    Type
REMARK                         _______ _______ _______ _____ _____    ______ ____
ROOT
ATOM      1  C   UNL     1       5.908   3.902  13.710  0.00  0.00    +0.000 A 
ATOM      2  C   UNL     1       7.039   4.663  13.980  0.00  0.00    +0.000 A 
ATOM      3  C   UNL     1       7.240   5.171  15.264  0.00  0.00    +0.000 A 
ATOM      4  C   UNL     1       6.312   4.946  16.299  0.00  0.00    +0.000 A 
ATOM      5  C   UNL     1       5.139   4.199  16.027  0.00  0.00    +0.000 A 
ATOM      6  C   UNL     1       4.961   3.693  14.719  0.00  0.00    +0.000 A 
ATOM      7  C   UNL     1       4.152   3.965  17.102  0.00  0.00    +0.000 A 
ATOM      8  C   UNL     1       2.934   3.276  16.912  0.00  0.00    +0.000 A 
ATOM      9  C   UNL     1       2.029   3.075  17.962  0.00  0.00    +0.000 A 
ATOM     10  C   UNL     1       2.310   3.561  19.231  0.00  0.00    +0.000 A 
ATOM     11  C   UNL     1       3.499   4.247  19.445  0.00  0.00    +0.000 A 
ATOM     12  C   UNL     1       4.411   4.446  18.392  0.00  0.00    +0.000 A 
ATOM     13  C   UNL     1       5.661   5.191  18.676  0.00  0.00    +0.000 A 
ATOM     14  O   UNL     1       5.886   5.559  19.829  0.00  0.00    +0.000 OA
ATOM     15  N   UNL     1       6.536   5.457  17.619  0.00  0.00    +0.000 N 
ENDROOT
BRANCH   1  17
ATOM     16  N   UNL     1       6.677   2.516  11.866  0.00  0.00    +0.000 N 
ATOM     17  C   UNL     1       5.675   3.296  12.373  0.00  0.00    +0.000 C 
ATOM     18  O   UNL     1       4.619   3.444  11.775  0.00  0.00    +0.000 OA
ATOM     19  H   UNL     1       6.467   2.011  11.014  0.00  0.00    +0.000 HD
ATOM     20  H   UNL     1       7.439   2.173  12.434  0.00  0.00    +0.000 HD
ENDBRANCH   1  17
BRANCH  15  21
ATOM     21  C   UNL     1       7.700   6.296  17.939  0.00  0.00    +0.000 C 
BRANCH  21  22
ATOM     22  C   UNL     1       7.513   7.776  17.583  0.00  0.00    +0.000 C 
BRANCH  22  23
ATOM     23  O   UNL     1       8.410   8.614  18.308  0.00  0.00    +0.000 OA
ATOM     24  H   UNL     1       8.448   9.457  17.822  0.00  0.00    +0.000 HD
ENDBRANCH  22  23
ENDBRANCH  21  22
ENDBRANCH  15  21
TORSDOF 4
ENDMDL
MODEL 3
REMARK VINA RESULT:      -7.5      2.553      5.604
REMARK  Name = 
REMARK  4 active torsions:
REMARK  status: ('A' for Active; 'I' for Inactive)
REMARK    1  A    between atoms: C_2  and  C_4
REMARK    2  A    between atoms: N_18  and  C_19
REMARK    3  A    between atoms: C_19  and  C_20
REMARK    4  A    between atoms: C_20  and  O_21
REMARK                            x       y       z     vdW  Elec       q    Type
REMARK                         _______ _______ _______ _____ _____    ______ ____
ROOT
ATOM      1  C   UNL     1       1.925   8.989  18.629  0.00  0.00    +0.000 A 
ATOM      2  C   UNL     1       1.400   8.441  19.793  0.00  0.00    +0.000 A 
ATOM      3  C   UNL     1       1.779   7.156  20.185  0.00  0.00    +0.000 A 
ATOM      4  C   UNL     1       2.674   6.386  19.418  0.00  0.00    +0.000 A 
ATOM      5  C   UNL     1       3.191   6.922  18.212  0.00  0.00    +0.000 A 
ATOM      6  C   UNL     1       2.794   8.226  17.839  0.00  0.00    +0.000 A 
ATOM      7  C   UNL     1       4.123   6.119  17.392  0.00  0.00    +0.000 A 
ATOM      8  C   UNL     1       4.649   6.550  16.154  0.00  0.00    +0.000 A 
ATOM      9  C   UNL     1       5.532   5.756  15.412  0.00  0.00    +0.000 A 
ATOM     10  C   UNL     1       5.912   4.506  15.881  0.00  0.00    +0.000 A 
ATOM     11  C   UNL     1       5.406   4.055  17.094  0.00  0.00    +0.000 A 
ATOM     12  C   UNL     1       4.520   4.853  17.842  0.00  0.00    +0.000 A 
ATOM     13  C   UNL     1       4.006   4.320  19.125  0.00  0.00    +0.000 A 
ATOM     14  O   UNL     1       4.411   3.226  19.520  0.00  0.00    +0.000 OA
ATOM     15  N   UNL     1       3.070   5.075  19.837  0.00  0.00    +0.000 N 
ENDROOT
BRANCH   1  17
ATOM     16  N   UNL     1       0.267  10.701  18.147  0.00  0.00    +0.000 N 
ATOM     17  C   UNL     1       1.593  10.372  18.198  0.00  0.00    +0.000 C 
ATOM     18  O   UNL     1       2.464  11.195  17.949  0.00  0.00    +0.000 OA
ATOM     19  H   UNL     1       0.051  11.674  17.970  0.00  0.00    +0.000 HD
ATOM     20  H   UNL     1      -0.449  10.138  18.583  0.00  0.00    +0.000 HD
ENDBRANCH   1  17
BRANCH  15  21
ATOM     21  C   UNL     1       2.511   4.444  21.041  0.00  0.00    +0.000 C 
BRANCH  21  22
ATOM     22  C   UNL     1       1.242   3.624  20.779  0.00  0.00    +0.000 C 
BRANCH  22  23
ATOM     23  O   UNL     1       1.544   2.314  20.304  0.00  0.00    +0.000 OA
ATOM     24  H   UNL     1       0.771   2.028  19.785  0.00  0.00    +0.000 HD
ENDBRANCH  22  23
ENDBRANCH  21  22
ENDBRANCH  15  21
TORSDOF 4
ENDMDL
MODEL 4
REMARK VINA RESULT:      -7.4      2.793      3.658
REMARK  Name = 
REMARK  4 active torsions:
REMARK  status: ('A' for Active; 'I' for Inactive)
REMARK    1  A    between atoms: C_2  and  C_4
REMARK    2  A    between atoms: N_18  and  C_19
REMARK    3  A    between atoms: C_19  and  C_20
REMARK    4  A    between atoms: C_20  and  O_21
REMARK                            x       y       z     vdW  Elec       q    Type
REMARK                         _______ _______ _______ _____ _____    ______ ____
ROOT
ATOM      1  C   UNL     1       5.868   4.007  13.961  0.00  0.00    +0.000 A 
ATOM      2  C   UNL     1       7.003   4.704  14.357  0.00  0.00    +0.000 A 
ATOM      3  C   UNL     1       7.107   5.169  15.669  0.00  0.00    +0.000 A 
ATOM      4  C   UNL     1       6.077   4.963  16.607  0.00  0.00    +0.000 A 
ATOM      5  C   UNL     1       4.901   4.281  16.206  0.00  0.00    +0.000 A 
ATOM      6  C   UNL     1       4.822   3.819  14.873  0.00  0.00    +0.000 A 
ATOM      7  C   UNL     1       3.808   4.069  17.178  0.00  0.00    +0.000 A 
ATOM      8  C   UNL     1       2.583   3.445  16.856  0.00  0.00    +0.000 A 
ATOM      9  C   UNL     1       1.575   3.262  17.812  0.00  0.00    +0.000 A 
ATOM     10  C   UNL     1       1.760   3.701  19.115  0.00  0.00    +0.000 A 
ATOM     11  C   UNL     1       2.954   4.322  19.459  0.00  0.00    +0.000 A 
ATOM     12  C   UNL     1       3.968   4.504  18.500  0.00  0.00    +0.000 A 
ATOM     13  C   UNL     1       5.219   5.179  18.920  0.00  0.00    +0.000 A 
ATOM     14  O   UNL     1       5.353   5.506  20.100  0.00  0.00    +0.000 OA
ATOM     15  N   UNL     1       6.201   5.428  17.956  0.00  0.00    +0.000 N 
ENDROOT
BRANCH   1  17
ATOM     16  N   UNL     1       6.845   2.864  12.050  0.00  0.00    +0.000 N 
ATOM     17  C   UNL     1       5.733   3.448  12.591  0.00  0.00    +0.000 C 
ATOM     18  O   UNL     1       4.666   3.461  11.993  0.00  0.00    +0.000 OA
ATOM     19  H   UNL     1       6.717   2.381  11.170  0.00  0.00    +0.000 HD
ATOM     20  H   UNL     1       7.652   2.614  12.605  0.00  0.00    +0.000 HD
ENDBRANCH   1  17
BRANCH  15  21
ATOM     21  C   UNL     1       7.367   6.202  18.407  0.00  0.00    +0.000 C 
BRANCH  21  22
ATOM     22  C   UNL     1       8.376   5.384  19.222  0.00  0.00    +0.000 C 
BRANCH  22  23
ATOM     23  O   UNL     1       8.147   5.504  20.624  0.00  0.00    +0.000 OA
ATOM     24  H   UNL     1       8.984   5.260  21.059  0.00  0.00    +0.000 HD
ENDBRANCH  22  23
ENDBRANCH  21  22
ENDBRANCH  15  21
TORSDOF 4
ENDMDL
MODEL 5
REMARK VINA RESULT:      -7.3      1.821      4.193
REMARK  Name = 
REMARK  4 active torsions:
REMARK  status: ('A' for Active; 'I' for Inactive)
REMARK    1  A    between atoms: C_2  and  C_4
REMARK    2  A    between atoms: N_18  and  C_19
REMARK    3  A    between atoms: C_19  and  C_20
REMARK    4  A    between atoms: C_20  and  O_21
REMARK                            x       y       z     vdW  Elec       q    Type
REMARK                         _______ _______ _______ _____ _____    ______ ____
ROOT
ATOM      1  C   UNL     1       5.306   4.808  16.188  0.00  0.00    +0.000 A 
ATOM      2  C   UNL     1       5.289   3.668  16.981  0.00  0.00    +0.000 A 
ATOM      3  C   UNL     1       4.516   3.646  18.144  0.00  0.00    +0.000 A 
ATOM      4  C   UNL     1       3.760   4.763  18.547  0.00  0.00    +0.000 A 
ATOM      5  C   UNL     1       3.796   5.943  17.763  0.00  0.00    +0.000 A 
ATOM      6  C   UNL     1       4.584   5.938  16.589  0.00  0.00    +0.000 A 
ATOM      7  C   UNL     1       3.015   7.126  18.181  0.00  0.00    +0.000 A 
ATOM      8  C   UNL     1       3.028   8.358  17.491  0.00  0.00    +0.000 A 
ATOM      9  C   UNL     1       2.269   9.453  17.924  0.00  0.00    +0.000 A 
ATOM     10  C   UNL     1       1.479   9.352  19.060  0.00  0.00    +0.000 A 
ATOM     11  C   UNL     1       1.451   8.153  19.761  0.00  0.00    +0.000 A 
ATOM     12  C   UNL     1       2.211   7.051  19.326  0.00  0.00    +0.000 A 
ATOM     13  C   UNL     1       2.148   5.798  20.116  0.00  0.00    +0.000 A 
ATOM     14  O   UNL     1       1.395   5.744  21.089  0.00  0.00    +0.000 OA
ATOM     15  N   UNL     1       2.956   4.724  19.732  0.00  0.00    +0.000 N 
ENDROOT
BRANCH   1  17
ATOM     16  N   UNL     1       7.289   5.484  14.953  0.00  0.00    +0.000 N 
ATOM     17  C   UNL     1       6.071   4.863  14.915  0.00  0.00    +0.000 C 
ATOM     18  O   UNL     1       5.658   4.332  13.893  0.00  0.00    +0.000 OA
ATOM     19  H   UNL     1       7.856   5.414  14.117  0.00  0.00    +0.000 HD
ATOM     20  H   UNL     1       7.761   5.701  15.819  0.00  0.00    +0.000 HD
ENDBRANCH   1  17
BRANCH  15  21
ATOM     21  C   UNL     1       2.937   3.552  20.619  0.00  0.00    +0.000 C 
BRANCH  21  22
ATOM     22  C   UNL     1       1.866   2.517  20.257  0.00  0.00    +0.000 C 
BRANCH  22  23
ATOM     23  O   UNL     1       0.564   2.937  20.660  0.00  0.00    +0.000 OA
ATOM     24  H   UNL     1      -0.013   2.817  19.885  0.00  0.00    +0.000 HD
ENDBRANCH  22  23
ENDBRANCH  21  22
ENDBRANCH  15  21
TORSDOF 4
ENDMDL
MODEL 6
REMARK VINA RESULT:      -7.3      2.118      5.250
REMARK  Name = 
REMARK  4 active torsions:
REMARK  status: ('A' for Active; 'I' for Inactive)
REMARK    1  A    between atoms: C_2  and  C_4
REMARK    2  A    between atoms: N_18  and  C_19
REMARK    3  A    between atoms: C_19  and  C_20
REMARK    4  A    between atoms: C_20  and  O_21
REMARK                            x       y       z     vdW  Elec       q    Type
REMARK                         _______ _______ _______ _____ _____    ______ ____
ROOT
ATOM      1  C   UNL     1       1.772   8.647  19.064  0.00  0.00    +0.000 A 
ATOM      2  C   UNL     1       2.541   8.874  17.929  0.00  0.00    +0.000 A 
ATOM      3  C   UNL     1       3.344   7.851  17.422  0.00  0.00    +0.000 A 
ATOM      4  C   UNL     1       3.410   6.589  18.044  0.00  0.00    +0.000 A 
ATOM      5  C   UNL     1       2.654   6.357  19.220  0.00  0.00    +0.000 A 
ATOM      6  C   UNL     1       1.847   7.408  19.711  0.00  0.00    +0.000 A 
ATOM      7  C   UNL     1       2.723   5.040  19.888  0.00  0.00    +0.000 A 
ATOM      8  C   UNL     1       2.045   4.734  21.088  0.00  0.00    +0.000 A 
ATOM      9  C   UNL     1       2.137   3.470  21.685  0.00  0.00    +0.000 A 
ATOM     10  C   UNL     1       2.912   2.477  21.104  0.00  0.00    +0.000 A 
ATOM     11  C   UNL     1       3.594   2.752  19.925  0.00  0.00    +0.000 A 
ATOM     12  C   UNL     1       3.500   4.020  19.323  0.00  0.00    +0.000 A 
ATOM     13  C   UNL     1       4.253   4.261  18.070  0.00  0.00    +0.000 A 
ATOM     14  O   UNL     1       4.888   3.333  17.568  0.00  0.00    +0.000 OA
ATOM     15  N   UNL     1       4.224   5.540  17.506  0.00  0.00    +0.000 N 
ENDROOT
BRANCH   1  17
ATOM     16  N   UNL     1      -0.017  10.261  18.735  0.00  0.00    +0.000 N 
ATOM     17  C   UNL     1       0.862   9.687  19.611  0.00  0.00    +0.000 C 
ATOM     18  O   UNL     1       0.861   9.980  20.798  0.00  0.00    +0.000 OA
ATOM     19  H   UNL     1      -0.712  10.879  19.135  0.00  0.00    +0.000 HD
ATOM     20  H   UNL     1      -0.213   9.868  17.825  0.00  0.00    +0.000 HD
ENDBRANCH   1  17
BRANCH  15  21
ATOM     21  C   UNL     1       5.081   5.748  16.330  0.00  0.00    +0.000 C 
BRANCH  21  22
ATOM     22  C   UNL     1       6.545   6.044  16.675  0.00  0.00    +0.000 C 
BRANCH  22  23
ATOM     23  O   UNL     1       7.374   4.898  16.501  0.00  0.00    +0.000 OA
ATOM     24  H   UNL     1       6.934   4.341  15.834  0.00  0.00    +0.000 HD
ENDBRANCH  22  23
ENDBRANCH  21  22
ENDBRANCH  15  21
TORSDOF 4
ENDMDL
MODEL 7
REMARK VINA RESULT:      -7.2      2.505      6.022
REMARK  Name = 
REMARK  4 active torsions:
REMARK  status: ('A' for Active; 'I' for Inactive)
REMARK    1  A    between atoms: C_2  and  C_4
REMARK    2  A    between atoms: N_18  and  C_19
REMARK    3  A    between atoms: C_19  and  C_20
REMARK    4  A    between atoms: C_20  and  O_21
REMARK                            x       y       z     vdW  Elec       q    Type
REMARK                         _______ _______ _______ _____ _____    ______ ____
ROOT
ATOM      1  C   UNL     1       1.605   8.162  19.811  0.00  0.00    +0.000 A 
ATOM      2  C   UNL     1       1.186   7.250  20.772  0.00  0.00    +0.000 A 
ATOM      3  C   UNL     1       1.683   5.946  20.752  0.00  0.00    +0.000 A 
ATOM      4  C   UNL     1       2.593   5.520  19.766  0.00  0.00    +0.000 A 
ATOM      5  C   UNL     1       3.004   6.433  18.762  0.00  0.00    +0.000 A 
ATOM      6  C   UNL     1       2.488   7.747  18.807  0.00  0.00    +0.000 A 
ATOM      7  C   UNL     1       3.951   5.994  17.715  0.00  0.00    +0.000 A 
ATOM      8  C   UNL     1       4.377   6.817  16.649  0.00  0.00    +0.000 A 
ATOM      9  C   UNL     1       5.279   6.360  15.680  0.00  0.00    +0.000 A 
ATOM     10  C   UNL     1       5.778   5.067  15.744  0.00  0.00    +0.000 A 
ATOM     11  C   UNL     1       5.373   4.234  16.780  0.00  0.00    +0.000 A 
ATOM     12  C   UNL     1       4.469   4.693  17.755  0.00  0.00    +0.000 A 
ATOM     13  C   UNL     1       4.065   3.761  18.834  0.00  0.00    +0.000 A 
ATOM     14  O   UNL     1       4.574   2.640  18.873  0.00  0.00    +0.000 OA
ATOM     15  N   UNL     1       3.112   4.185  19.764  0.00  0.00    +0.000 N 
ENDROOT
BRANCH   1  17
ATOM     16  N   UNL     1       0.866  10.142  18.610  0.00  0.00    +0.000 N 
ATOM     17  C   UNL     1       1.145   9.575  19.822  0.00  0.00    +0.000 C 
ATOM     18  O   UNL     1       0.973  10.188  20.866  0.00  0.00    +0.000 OA
ATOM     19  H   UNL     1       0.440  11.061  18.630  0.00  0.00    +0.000 HD
ATOM     20  H   UNL     1       0.754   9.596  17.767  0.00  0.00    +0.000 HD
ENDBRANCH   1  17
BRANCH  15  21
ATOM     21  C   UNL     1       2.667   3.178  20.739  0.00  0.00    +0.000 C 
BRANCH  21  22
ATOM     22  C   UNL     1       1.424   2.396  20.299  0.00  0.00    +0.000 C 
BRANCH  22  23
ATOM     23  O   UNL     1       1.678   1.600  19.144  0.00  0.00    +0.000 OA
ATOM     24  H   UNL     1       1.156   1.992  18.422  0.00  0.00    +0.000 HD
ENDBRANCH  22  23
ENDBRANCH  21  22
ENDBRANCH  15  21
TORSDOF 4
ENDMDL
MODEL 8
REMARK VINA RESULT:      -7.2      2.904      5.930
REMARK  Name = 
REMARK  4 active torsions:
REMARK  status: ('A' for Active; 'I' for Inactive)
REMARK    1  A    between atoms: C_2  and  C_4
REMARK    2  A    between atoms: N_18  and  C_19
REMARK    3  A    between atoms: C_19  and  C_20
REMARK    4  A    between atoms: C_20  and  O_21
REMARK                            x       y       z     vdW  Elec       q    Type
REMARK                         _______ _______ _______ _____ _____    ______ ____
ROOT
ATOM      1  C   UNL     1       2.947   3.401  18.224  0.00  0.00    +0.000 A 
ATOM      2  C   UNL     1       3.500   4.103  19.287  0.00  0.00    +0.000 A 
ATOM      3  C   UNL     1       4.652   4.866  19.089  0.00  0.00    +0.000 A 
ATOM      4  C   UNL     1       5.285   4.931  17.833  0.00  0.00    +0.000 A 
ATOM      5  C   UNL     1       4.749   4.193  16.749  0.00  0.00    +0.000 A 
ATOM      6  C   UNL     1       3.580   3.431  16.975  0.00  0.00    +0.000 A 
ATOM      7  C   UNL     1       5.411   4.244  15.428  0.00  0.00    +0.000 A 
ATOM      8  C   UNL     1       4.978   3.505  14.305  0.00  0.00    +0.000 A 
ATOM      9  C   UNL     1       5.635   3.586  13.071  0.00  0.00    +0.000 A 
ATOM     10  C   UNL     1       6.746   4.403  12.923  0.00  0.00    +0.000 A 
ATOM     11  C   UNL     1       7.197   5.138  14.012  0.00  0.00    +0.000 A 
ATOM     12  C   UNL     1       6.536   5.060  15.252  0.00  0.00    +0.000 A 
ATOM     13  C   UNL     1       7.064   5.860  16.382  0.00  0.00    +0.000 A 
ATOM     14  O   UNL     1       8.023   6.607  16.186  0.00  0.00    +0.000 OA
ATOM     15  N   UNL     1       6.457   5.730  17.635  0.00  0.00    +0.000 N 
ENDROOT
BRANCH   1  17
ATOM     16  N   UNL     1       1.810   1.359  18.893  0.00  0.00    +0.000 N 
ATOM     17  C   UNL     1       1.693   2.618  18.372  0.00  0.00    +0.000 C 
ATOM     18  O   UNL     1       0.601   3.092  18.092  0.00  0.00    +0.000 OA
ATOM     19  H   UNL     1       0.945   0.876  19.103  0.00  0.00    +0.000 HD
ATOM     20  H   UNL     1       2.646   1.040  19.362  0.00  0.00    +0.000 HD
ENDBRANCH   1  17
BRANCH  15  21
ATOM     21  C   UNL     1       7.095   6.459  18.740  0.00  0.00    +0.000 C 
BRANCH  21  22
ATOM     22  C   UNL     1       8.249   5.697  19.402  0.00  0.00    +0.000 C 
BRANCH  22  23
ATOM     23  O   UNL     1       7.992   5.435  20.779  0.00  0.00    +0.000 OA
ATOM     24  H   UNL     1       8.508   6.091  21.283  0.00  0.00    +0.000 HD
ENDBRANCH  22  23
ENDBRANCH  21  22
ENDBRANCH  15  21
TORSDOF 4
ENDMDL
MODEL 9
REMARK VINA RESULT:      -7.1      2.324      6.128
REMARK  Name = 
REMARK  4 active torsions:
REMARK  status: ('A' for Active; 'I' for Inactive)
REMARK    1  A    between atoms: C_2  and  C_4
REMARK    2  A    between atoms: N_18  and  C_19
REMARK    3  A    between atoms: C_19  and  C_20
REMARK    4  A    between atoms: C_20  and  O_21
REMARK                            x       y       z     vdW  Elec       q    Type
REMARK                         _______ _______ _______ _____ _____    ______ ____
ROOT
ATOM      1  C   UNL     1       1.761   7.368  20.338  0.00  0.00    +0.000 A 
ATOM      2  C   UNL     1       1.267   6.245  20.990  0.00  0.00    +0.000 A 
ATOM      3  C   UNL     1       1.637   4.972  20.553  0.00  0.00    +0.000 A 
ATOM      4  C   UNL     1       2.490   4.792  19.448  0.00  0.00    +0.000 A 
ATOM      5  C   UNL     1       2.974   5.929  18.754  0.00  0.00    +0.000 A 
ATOM      6  C   UNL     1       2.588   7.207  19.219  0.00  0.00    +0.000 A 
ATOM      7  C   UNL     1       3.863   5.753  17.586  0.00  0.00    +0.000 A 
ATOM      8  C   UNL     1       4.353   6.824  16.805  0.00  0.00    +0.000 A 
ATOM      9  C   UNL     1       5.195   6.610  15.707  0.00  0.00    +0.000 A 
ATOM     10  C   UNL     1       5.568   5.321  15.352  0.00  0.00    +0.000 A 
ATOM     11  C   UNL     1       5.097   4.249  16.100  0.00  0.00    +0.000 A 
ATOM     12  C   UNL     1       4.253   4.463  17.206  0.00  0.00    +0.000 A 
ATOM     13  C   UNL     1       3.775   3.283  17.963  0.00  0.00    +0.000 A 
ATOM     14  O   UNL     1       4.174   2.164  17.638  0.00  0.00    +0.000 OA
ATOM     15  N   UNL     1       2.878   3.482  19.017  0.00  0.00    +0.000 N 
ENDROOT
BRANCH   1  17
ATOM     16  N   UNL     1       1.585   8.998  22.134  0.00  0.00    +0.000 N 
ATOM     17  C   UNL     1       1.439   8.743  20.798  0.00  0.00    +0.000 C 
ATOM     18  O   UNL     1       1.109   9.623  20.015  0.00  0.00    +0.000 OA
ATOM     19  H   UNL     1       1.480   9.962  22.422  0.00  0.00    +0.000 HD
ATOM     20  H   UNL     1       2.089   8.379  22.753  0.00  0.00    +0.000 HD
ENDBRANCH   1  17
BRANCH  15  21
ATOM     21  C   UNL     1       2.350   2.268  19.655  0.00  0.00    +0.000 C 
BRANCH  21  22
ATOM     22  C   UNL     1       1.251   1.569  18.845  0.00  0.00    +0.000 C 
BRANCH  22  23
ATOM     23  O   UNL     1       0.196   2.462  18.501  0.00  0.00    +0.000 OA
ATOM     24  H   UNL     1      -0.244   2.077  17.721  0.00  0.00    +0.000 HD
ENDBRANCH  22  23
ENDBRANCH  21  22
ENDBRANCH  15  21
TORSDOF 4
ENDMDL
