MODEL 1
REMARK VINA RESULT:      -7.3      0.000      0.000
REMARK  Name = 
REMARK  2 active torsions:
REMARK  status: ('A' for Active; 'I' for Inactive)
REMARK    1  A    between atoms: C_4  and  C_5
REMARK    2  A    between atoms: C_15  and  O_16
REMARK                            x       y       z     vdW  Elec       q    Type
REMARK                         _______ _______ _______ _____ _____    ______ ____
ROOT
ATOM      1  O   UNL     1       6.649   6.525  18.211  0.00  0.00    +0.000 OA
ATOM      2  C   UNL     1       6.019   5.683  17.606  0.00  0.00    +0.000 C 
ATOM      3  C   UNL     1       4.850   4.898  18.106  0.00  0.00    +0.000 C 
ATOM      4  C   UNL     1       4.398   5.081  19.354  0.00  0.00    +0.000 C 
ATOM      5  C   UNL     1       4.383   3.979  17.002  0.00  0.00    +0.000 C 
ATOM      6  C   UNL     1       5.337   4.269  15.876  0.00  0.00    +0.000 A 
ATOM      7  C   UNL     1       5.384   3.703  14.611  0.00  0.00    +0.000 A 
ATOM      8  C   UNL     1       6.377   4.138  13.721  0.00  0.00    +0.000 A 
ATOM      9  C   UNL     1       7.297   5.125  14.110  0.00  0.00    +0.000 A 
ATOM     10  C   UNL     1       7.255   5.695  15.375  0.00  0.00    +0.000 A 
ATOM     11  C   UNL     1       6.268   5.246  16.232  0.00  0.00    +0.000 A 
ENDROOT
BRANCH   4  12
ATOM     12  C   UNL     1       3.262   4.353  19.910  0.00  0.00    +0.000 A 
ATOM     13  C   UNL     1       1.966   4.862  19.783  0.00  0.00    +0.000 A 
ATOM     14  C   UNL     1       0.886   4.175  20.341  0.00  0.00    +0.000 A 
ATOM     15  C   UNL     1       1.097   2.978  21.023  0.00  0.00    +0.000 A 
ATOM     16  C   UNL     1       2.386   2.455  21.133  0.00  0.00    +0.000 A 
ATOM     17  C   UNL     1       3.468   3.140  20.577  0.00  0.00    +0.000 A 
ENDBRANCH   4  12
BRANCH   9  18
ATOM     18  O   UNL     1       8.271   5.560  13.258  0.00  0.00    +0.000 OA
ATOM     19  H   UNL     1       7.917   6.281  12.712  0.00  0.00    +0.000 HD
ENDBRANCH   9  18
TORSDOF 2
ENDMDL
MODEL 2
REMARK VINA RESULT:      -7.3      1.954      6.705
REMARK  Name = 
REMARK  2 active torsions:
REMARK  status: ('A' for Active; 'I' for Inactive)
REMARK    1  A    between atoms: C_4  and  C_5
REMARK    2  A    between atoms: C_15  and  O_16
REMARK                            x       y       z     vdW  Elec       q    Type
REMARK                         _______ _______ _______ _____ _____    ______ ____
ROOT
ATOM      1  O   UNL     1       6.490   4.459  18.977  0.00  0.00    +0.000 OA
ATOM      2  C   UNL     1       5.540   4.358  18.229  0.00  0.00    +0.000 C 
ATOM      3  C   UNL     1       5.567   4.338  16.735  0.00  0.00    +0.000 C 
ATOM      4  C   UNL     1       6.730   4.450  16.079  0.00  0.00    +0.000 C 
ATOM      5  C   UNL     1       4.151   4.182  16.232  0.00  0.00    +0.000 C 
ATOM      6  C   UNL     1       3.334   4.130  17.495  0.00  0.00    +0.000 A 
ATOM      7  C   UNL     1       1.960   4.003  17.635  0.00  0.00    +0.000 A 
ATOM      8  C   UNL     1       1.420   3.979  18.929  0.00  0.00    +0.000 A 
ATOM      9  C   UNL     1       2.258   4.080  20.051  0.00  0.00    +0.000 A 
ATOM     10  C   UNL     1       3.634   4.207  19.916  0.00  0.00    +0.000 A 
ATOM     11  C   UNL     1       4.139   4.230  18.630  0.00  0.00    +0.000 A 
ENDROOT
BRANCH   4  12
ATOM     12  C   UNL     1       6.834   4.437  14.623  0.00  0.00    +0.000 A 
ATOM     13  C   UNL     1       6.093   3.521  13.871  0.00  0.00    +0.000 A 
ATOM     14  C   UNL     1       6.218   3.493  12.481  0.00  0.00    +0.000 A 
ATOM     15  C   UNL     1       7.078   4.383  11.839  0.00  0.00    +0.000 A 
ATOM     16  C   UNL     1       7.802   5.313  12.585  0.00  0.00    +0.000 A 
ATOM     17  C   UNL     1       7.681   5.342  13.975  0.00  0.00    +0.000 A 
ENDBRANCH   4  12
BRANCH   9  18
ATOM     18  O   UNL     1       1.751   4.059  21.317  0.00  0.00    +0.000 OA
ATOM     19  H   UNL     1       2.313   4.602  21.894  0.00  0.00    +0.000 HD
ENDBRANCH   9  18
TORSDOF 2
ENDMDL
MODEL 3
REMARK VINA RESULT:      -7.3      0.227      1.149
REMARK  Name = 
REMARK  2 active torsions:
REMARK  status: ('A' for Active; 'I' for Inactive)
REMARK    1  A    between atoms: C_4  and  C_5
REMARK    2  A    between atoms: C_15  and  O_16
REMARK                            x       y       z     vdW  Elec       q    Type
REMARK                         _______ _______ _______ _____ _____    ______ ____
ROOT
ATOM      1  O   UNL     1       6.893   6.162  18.379  0.00  0.00    +0.000 OA
ATOM      2  C   UNL     1       6.165   5.461  17.707  0.00  0.00    +0.000 C 
ATOM      3  C   UNL     1       4.916   4.772  18.152  0.00  0.00    +0.000 C 
ATOM      4  C   UNL     1       4.497   4.886  19.420  0.00  0.00    +0.000 C 
ATOM      5  C   UNL     1       4.337   4.024  16.974  0.00  0.00    +0.000 C 
ATOM      6  C   UNL     1       5.311   4.309  15.864  0.00  0.00    +0.000 A 
ATOM      7  C   UNL     1       5.283   3.866  14.550  0.00  0.00    +0.000 A 
ATOM      8  C   UNL     1       6.314   4.267  13.688  0.00  0.00    +0.000 A 
ATOM      9  C   UNL     1       7.346   5.098  14.152  0.00  0.00    +0.000 A 
ATOM     10  C   UNL     1       7.379   5.544  15.466  0.00  0.00    +0.000 A 
ATOM     11  C   UNL     1       6.352   5.132  16.294  0.00  0.00    +0.000 A 
ENDROOT
BRANCH   4  12
ATOM     12  C   UNL     1       3.287   4.244  19.925  0.00  0.00    +0.000 A 
ATOM     13  C   UNL     1       3.329   2.926  20.390  0.00  0.00    +0.000 A 
ATOM     14  C   UNL     1       2.163   2.307  20.845  0.00  0.00    +0.000 A 
ATOM     15  C   UNL     1       0.956   3.004  20.842  0.00  0.00    +0.000 A 
ATOM     16  C   UNL     1       0.915   4.326  20.400  0.00  0.00    +0.000 A 
ATOM     17  C   UNL     1       2.078   4.946  19.942  0.00  0.00    +0.000 A 
ENDBRANCH   4  12
BRANCH   9  18
ATOM     18  O   UNL     1       8.358   5.497  13.329  0.00  0.00    +0.000 OA
ATOM     19  H   UNL     1       9.193   5.110  13.640  0.00  0.00    +0.000 HD
ENDBRANCH   9  18
TORSDOF 2
ENDMDL
MODEL 4
REMARK VINA RESULT:      -7.3      2.540      6.800
REMARK  Name = 
REMARK  2 active torsions:
REMARK  status: ('A' for Active; 'I' for Inactive)
REMARK    1  A    between atoms: C_4  and  C_5
REMARK    2  A    between atoms: C_15  and  O_16
REMARK                            x       y       z     vdW  Elec       q    Type
REMARK                         _______ _______ _______ _____ _____    ______ ____
ROOT
ATOM      1  O   UNL     1       4.443   3.162  18.318  0.00  0.00    +0.000 OA
ATOM      2  C   UNL     1       4.364   4.247  17.779  0.00  0.00    +0.000 C 
ATOM      3  C   UNL     1       4.958   4.647  16.469  0.00  0.00    +0.000 C 
ATOM      4  C   UNL     1       5.681   3.770  15.758  0.00  0.00    +0.000 C 
ATOM      5  C   UNL     1       4.589   6.087  16.195  0.00  0.00    +0.000 C 
ATOM      6  C   UNL     1       3.781   6.477  17.403  0.00  0.00    +0.000 A 
ATOM      7  C   UNL     1       3.190   7.697  17.694  0.00  0.00    +0.000 A 
ATOM      8  C   UNL     1       2.478   7.825  18.896  0.00  0.00    +0.000 A 
ATOM      9  C   UNL     1       2.372   6.738  19.777  0.00  0.00    +0.000 A 
ATOM     10  C   UNL     1       2.961   5.514  19.491  0.00  0.00    +0.000 A 
ATOM     11  C   UNL     1       3.658   5.417  18.302  0.00  0.00    +0.000 A 
ENDROOT
BRANCH   4  12
ATOM     12  C   UNL     1       6.290   4.089  14.471  0.00  0.00    +0.000 A 
ATOM     13  C   UNL     1       7.340   5.008  14.396  0.00  0.00    +0.000 A 
ATOM     14  C   UNL     1       7.900   5.332  13.158  0.00  0.00    +0.000 A 
ATOM     15  C   UNL     1       7.417   4.734  11.995  0.00  0.00    +0.000 A 
ATOM     16  C   UNL     1       6.384   3.800  12.069  0.00  0.00    +0.000 A 
ATOM     17  C   UNL     1       5.820   3.477  13.304  0.00  0.00    +0.000 A 
ENDBRANCH   4  12
BRANCH   9  18
ATOM     18  O   UNL     1       1.685   6.843  20.952  0.00  0.00    +0.000 OA
ATOM     19  H   UNL     1       2.058   6.220  21.596  0.00  0.00    +0.000 HD
ENDBRANCH   9  18
TORSDOF 2
ENDMDL
MODEL 5
REMARK VINA RESULT:      -7.2      1.938      6.683
REMARK  Name = 
REMARK  2 active torsions:
REMARK  status: ('A' for Active; 'I' for Inactive)
REMARK    1  A    between atoms: C_4  and  C_5
REMARK    2  A    between atoms: C_15  and  O_16
REMARK                            x       y       z     vdW  Elec       q    Type
REMARK                         _______ _______ _______ _____ _____    ______ ____
ROOT
ATOM      1  O   UNL     1       6.507   4.531  18.988  0.00  0.00    +0.000 OA
ATOM      2  C   UNL     1       5.562   4.409  18.236  0.00  0.00    +0.000 C 
ATOM      3  C   UNL     1       5.598   4.365  16.743  0.00  0.00    +0.000 C 
ATOM      4  C   UNL     1       6.764   4.477  16.092  0.00  0.00    +0.000 C 
ATOM      5  C   UNL     1       4.186   4.189  16.235  0.00  0.00    +0.000 C 
ATOM      6  C   UNL     1       3.363   4.150  17.494  0.00  0.00    +0.000 A 
ATOM      7  C   UNL     1       1.989   4.013  17.629  0.00  0.00    +0.000 A 
ATOM      8  C   UNL     1       1.442   4.005  18.920  0.00  0.00    +0.000 A 
ATOM      9  C   UNL     1       2.273   4.131  20.045  0.00  0.00    +0.000 A 
ATOM     10  C   UNL     1       3.648   4.268  19.916  0.00  0.00    +0.000 A 
ATOM     11  C   UNL     1       4.160   4.275  18.632  0.00  0.00    +0.000 A 
ENDROOT
BRANCH   4  12
ATOM     12  C   UNL     1       6.876   4.441  14.637  0.00  0.00    +0.000 A 
ATOM     13  C   UNL     1       7.724   5.331  13.972  0.00  0.00    +0.000 A 
ATOM     14  C   UNL     1       7.806   5.312  12.578  0.00  0.00    +0.000 A 
ATOM     15  C   UNL     1       7.046   4.400  11.847  0.00  0.00    +0.000 A 
ATOM     16  C   UNL     1       6.216   3.495  12.508  0.00  0.00    +0.000 A 
ATOM     17  C   UNL     1       6.131   3.514  13.901  0.00  0.00    +0.000 A 
ENDBRANCH   4  12
BRANCH   9  18
ATOM     18  O   UNL     1       1.759   4.127  21.309  0.00  0.00    +0.000 OA
ATOM     19  H   UNL     1       2.262   3.500  21.854  0.00  0.00    +0.000 HD
ENDBRANCH   9  18
TORSDOF 2
ENDMDL
MODEL 6
REMARK VINA RESULT:      -7.2      2.567      6.758
REMARK  Name = 
REMARK  2 active torsions:
REMARK  status: ('A' for Active; 'I' for Inactive)
REMARK    1  A    between atoms: C_4  and  C_5
REMARK    2  A    between atoms: C_15  and  O_16
REMARK                            x       y       z     vdW  Elec       q    Type
REMARK                         _______ _______ _______ _____ _____    ______ ____
ROOT
ATOM      1  O   UNL     1       4.561   3.358  18.517  0.00  0.00    +0.000 OA
ATOM      2  C   UNL     1       4.414   4.396  17.906  0.00  0.00    +0.000 C 
ATOM      3  C   UNL     1       4.952   4.729  16.552  0.00  0.00    +0.000 C 
ATOM      4  C   UNL     1       5.696   3.837  15.883  0.00  0.00    +0.000 C 
ATOM      5  C   UNL     1       4.505   6.126  16.190  0.00  0.00    +0.000 C 
ATOM      6  C   UNL     1       3.714   6.564  17.391  0.00  0.00    +0.000 A 
ATOM      7  C   UNL     1       3.072   7.773  17.614  0.00  0.00    +0.000 A 
ATOM      8  C   UNL     1       2.389   7.954  18.826  0.00  0.00    +0.000 A 
ATOM      9  C   UNL     1       2.360   6.929  19.785  0.00  0.00    +0.000 A 
ATOM     10  C   UNL     1       3.000   5.717  19.567  0.00  0.00    +0.000 A 
ATOM     11  C   UNL     1       3.667   5.566  18.366  0.00  0.00    +0.000 A 
ENDROOT
BRANCH   4  12
ATOM     12  C   UNL     1       6.252   4.091  14.557  0.00  0.00    +0.000 A 
ATOM     13  C   UNL     1       5.741   3.428  13.438  0.00  0.00    +0.000 A 
ATOM     14  C   UNL     1       6.296   3.654  12.177  0.00  0.00    +0.000 A 
ATOM     15  C   UNL     1       7.358   4.545  12.030  0.00  0.00    +0.000 A 
ATOM     16  C   UNL     1       7.856   5.225  13.141  0.00  0.00    +0.000 A 
ATOM     17  C   UNL     1       7.304   5.000  14.403  0.00  0.00    +0.000 A 
ENDBRANCH   4  12
BRANCH   9  18
ATOM     18  O   UNL     1       1.701   7.086  20.970  0.00  0.00    +0.000 OA
ATOM     19  H   UNL     1       1.589   6.218  21.389  0.00  0.00    +0.000 HD
ENDBRANCH   9  18
TORSDOF 2
ENDMDL
MODEL 7
REMARK VINA RESULT:      -7.1      3.653      5.525
REMARK  Name = 
REMARK  2 active torsions:
REMARK  status: ('A' for Active; 'I' for Inactive)
REMARK    1  A    between atoms: C_4  and  C_5
REMARK    2  A    between atoms: C_15  and  O_16
REMARK                            x       y       z     vdW  Elec       q    Type
REMARK                         _______ _______ _______ _____ _____    ______ ____
ROOT
ATOM      1  O   UNL     1       4.565   5.844  17.175  0.00  0.00    +0.000 OA
ATOM      2  C   UNL     1       3.615   5.516  17.855  0.00  0.00    +0.000 C 
ATOM      3  C   UNL     1       2.575   6.413  18.443  0.00  0.00    +0.000 C 
ATOM      4  C   UNL     1       2.638   7.738  18.251  0.00  0.00    +0.000 C 
ATOM      5  C   UNL     1       1.582   5.562  19.200  0.00  0.00    +0.000 C 
ATOM      6  C   UNL     1       2.111   4.165  19.025  0.00  0.00    +0.000 A 
ATOM      7  C   UNL     1       1.598   2.975  19.519  0.00  0.00    +0.000 A 
ATOM      8  C   UNL     1       2.274   1.782  19.221  0.00  0.00    +0.000 A 
ATOM      9  C   UNL     1       3.440   1.802  18.439  0.00  0.00    +0.000 A 
ATOM     10  C   UNL     1       3.957   2.991  17.943  0.00  0.00    +0.000 A 
ATOM     11  C   UNL     1       3.273   4.150  18.253  0.00  0.00    +0.000 A 
ENDROOT
BRANCH   4  12
ATOM     12  C   UNL     1       1.658   8.674  18.793  0.00  0.00    +0.000 A 
ATOM     13  C   UNL     1       0.920   9.496  17.937  0.00  0.00    +0.000 A 
ATOM     14  C   UNL     1       0.004  10.411  18.462  0.00  0.00    +0.000 A 
ATOM     15  C   UNL     1      -0.180  10.502  19.841  0.00  0.00    +0.000 A 
ATOM     16  C   UNL     1       0.539   9.667  20.696  0.00  0.00    +0.000 A 
ATOM     17  C   UNL     1       1.456   8.754  20.174  0.00  0.00    +0.000 A 
ENDBRANCH   4  12
BRANCH   9  18
ATOM     18  O   UNL     1       4.111   0.652  18.140  0.00  0.00    +0.000 OA
ATOM     19  H   UNL     1       3.469  -0.056  17.970  0.00  0.00    +0.000 HD
ENDBRANCH   9  18
TORSDOF 2
ENDMDL
MODEL 8
REMARK VINA RESULT:      -7.1      3.647      5.561
REMARK  Name = 
REMARK  2 active torsions:
REMARK  status: ('A' for Active; 'I' for Inactive)
REMARK    1  A    between atoms: C_4  and  C_5
REMARK    2  A    between atoms: C_15  and  O_16
REMARK                            x       y       z     vdW  Elec       q    Type
REMARK                         _______ _______ _______ _____ _____    ______ ____
ROOT
ATOM      1  O   UNL     1       4.753   5.895  17.521  0.00  0.00    +0.000 OA
ATOM      2  C   UNL     1       3.712   5.546  18.039  0.00  0.00    +0.000 C 
ATOM      3  C   UNL     1       2.606   6.426  18.521  0.00  0.00    +0.000 C 
ATOM      4  C   UNL     1       2.706   7.758  18.413  0.00  0.00    +0.000 C 
ATOM      5  C   UNL     1       1.508   5.551  19.081  0.00  0.00    +0.000 C 
ATOM      6  C   UNL     1       2.046   4.158  18.905  0.00  0.00    +0.000 A 
ATOM      7  C   UNL     1       1.459   2.951  19.255  0.00  0.00    +0.000 A 
ATOM      8  C   UNL     1       2.161   1.765  18.991  0.00  0.00    +0.000 A 
ATOM      9  C   UNL     1       3.427   1.809  18.386  0.00  0.00    +0.000 A 
ATOM     10  C   UNL     1       4.019   3.014  18.035  0.00  0.00    +0.000 A 
ATOM     11  C   UNL     1       3.307   4.166  18.308  0.00  0.00    +0.000 A 
ENDROOT
BRANCH   4  12
ATOM     12  C   UNL     1       1.666   8.679  18.860  0.00  0.00    +0.000 A 
ATOM     13  C   UNL     1       1.368   8.802  20.221  0.00  0.00    +0.000 A 
ATOM     14  C   UNL     1       0.353   9.663  20.640  0.00  0.00    +0.000 A 
ATOM     15  C   UNL     1      -0.363  10.407  19.704  0.00  0.00    +0.000 A 
ATOM     16  C   UNL     1      -0.054  10.305  18.348  0.00  0.00    +0.000 A 
ATOM     17  C   UNL     1       0.959   9.443  17.925  0.00  0.00    +0.000 A 
ENDBRANCH   4  12
BRANCH   9  18
ATOM     18  O   UNL     1       4.126   0.667  18.123  0.00  0.00    +0.000 OA
ATOM     19  H   UNL     1       5.067   0.820  18.304  0.00  0.00    +0.000 HD
ENDBRANCH   9  18
TORSDOF 2
ENDMDL
MODEL 9
REMARK VINA RESULT:      -7.0      3.728      5.985
REMARK  Name = 
REMARK  2 active torsions:
REMARK  status: ('A' for Active; 'I' for Inactive)
REMARK    1  A    between atoms: C_4  and  C_5
REMARK    2  A    between atoms: C_15  and  O_16
REMARK                            x       y       z     vdW  Elec       q    Type
REMARK                         _______ _______ _______ _____ _____    ______ ____
ROOT
ATOM      1  O   UNL     1       4.453   6.456  17.546  0.00  0.00    +0.000 OA
ATOM      2  C   UNL     1       3.659   6.170  18.418  0.00  0.00    +0.000 C 
ATOM      3  C   UNL     1       2.537   7.014  18.928  0.00  0.00    +0.000 C 
ATOM      4  C   UNL     1       2.329   8.238  18.424  0.00  0.00    +0.000 C 
ATOM      5  C   UNL     1       1.807   6.242  20.003  0.00  0.00    +0.000 C 
ATOM      6  C   UNL     1       2.568   4.947  20.082  0.00  0.00    +0.000 A 
ATOM      7  C   UNL     1       2.343   3.858  20.912  0.00  0.00    +0.000 A 
ATOM      8  C   UNL     1       3.195   2.749  20.804  0.00  0.00    +0.000 A 
ATOM      9  C   UNL     1       4.248   2.750  19.874  0.00  0.00    +0.000 A 
ATOM     10  C   UNL     1       4.477   3.836  19.042  0.00  0.00    +0.000 A 
ATOM     11  C   UNL     1       3.624   4.916  19.170  0.00  0.00    +0.000 A 
ENDROOT
BRANCH   4  12
ATOM     12  C   UNL     1       1.254   9.118  18.871  0.00  0.00    +0.000 A 
ATOM     13  C   UNL     1       1.115   9.430  20.227  0.00  0.00    +0.000 A 
ATOM     14  C   UNL     1       0.068  10.249  20.653  0.00  0.00    +0.000 A 
ATOM     15  C   UNL     1      -0.839  10.762  19.726  0.00  0.00    +0.000 A 
ATOM     16  C   UNL     1      -0.691  10.471  18.370  0.00  0.00    +0.000 A 
ATOM     17  C   UNL     1       0.354   9.651  17.942  0.00  0.00    +0.000 A 
ENDBRANCH   4  12
BRANCH   9  18
ATOM     18  O   UNL     1       5.088   1.680  19.756  0.00  0.00    +0.000 OA
ATOM     19  H   UNL     1       5.974   1.997  19.518  0.00  0.00    +0.000 HD
ENDBRANCH   9  18
TORSDOF 2
ENDMDL
