MODEL 1
REMARK VINA RESULT:      -7.6      0.000      0.000
REMARK  Name = 
REMARK  7 active torsions:
REMARK  status: ('A' for Active; 'I' for Inactive)
REMARK    1  A    between atoms: S_1  and  C_2
REMARK    2  A    between atoms: C_5  and  C_6
REMARK    3  A    between atoms: C_6  and  O_7
REMARK    4  A    between atoms: O_7  and  C_8
REMARK    5  A    between atoms: N_15  and  C_16
REMARK    6  A    between atoms: C_16  and  C_17
REMARK    7  A    between atoms: C_22  and  C_23
REMARK                            x       y       z     vdW  Elec       q    Type
REMARK                         _______ _______ _______ _____ _____    ______ ____
ROOT
ATOM      1  C   UNL     1      -0.227  10.318  22.618  0.00  0.00    +0.000 A 
ATOM      2  N   UNL     1       0.582   9.845  23.532  0.00  0.00    +0.000 NA
ATOM      3  N   UNL     1       1.414   8.933  22.922  0.00  0.00    +0.000 NA
ATOM      4  C   UNL     1       1.097   8.871  21.641  0.00  0.00    +0.000 A 
ATOM      5  N   UNL     1       0.077   9.774  21.405  0.00  0.00    +0.000 N 
ENDROOT
BRANCH   1   6
ATOM      6  S   UNL     1      -1.517  11.432  22.880  0.00  0.00    +0.000 S 
ATOM      7  H   UNL     1      -1.928  10.942  24.055  0.00  0.00    +0.000 HD
ENDBRANCH   1   6
BRANCH   4   8
ATOM      8  C   UNL     1       1.658   7.923  20.630  0.00  0.00    +0.000 C 
BRANCH   8   9
ATOM      9  O   UNL     1       1.310   6.594  21.024  0.00  0.00    +0.000 OA
BRANCH   9  10
ATOM     10  C   UNL     1       1.736   5.583  20.201  0.00  0.00    +0.000 A 
ATOM     11  C   UNL     1       2.450   5.731  19.011  0.00  0.00    +0.000 A 
ATOM     12  C   UNL     1       2.841   4.606  18.272  0.00  0.00    +0.000 A 
ATOM     13  C   UNL     1       2.518   3.327  18.723  0.00  0.00    +0.000 A 
ATOM     14 CL   UNL     1       3.009   1.950  17.817  0.00  0.00    +0.000 Cl
ATOM     15  C   UNL     1       1.799   3.164  19.902  0.00  0.00    +0.000 A 
ATOM     16  C   UNL     1       1.411   4.289  20.639  0.00  0.00    +0.000 A 
ENDBRANCH   9  10
ENDBRANCH   8   9
ENDBRANCH   4   8
BRANCH   5  17
ATOM     17  C   UNL     1      -0.446  10.158  20.102  0.00  0.00    +0.000 C 
BRANCH  17  18
ATOM     18  C   UNL     1      -0.004  11.513  19.574  0.00  0.00    +0.000 A 
ATOM     19  C   UNL     1       1.286  12.005  19.888  0.00  0.00    +0.000 A 
ATOM     20  C   UNL     1       1.758  13.213  19.382  0.00  0.00    +0.000 A 
ATOM     21  C   UNL     1       0.939  13.961  18.555  0.00  0.00    +0.000 A 
ATOM     22  C   UNL     1      -0.341  13.516  18.236  0.00  0.00    +0.000 A 
ATOM     23  C   UNL     1      -0.847  12.286  18.712  0.00  0.00    +0.000 A 
BRANCH  23  24
ATOM     24  C   UNL     1      -2.203  11.841  18.230  0.00  0.00    +0.000 A 
ATOM     25  C   UNL     1      -3.356  12.048  19.020  0.00  0.00    +0.000 A 
ATOM     26  C   UNL     1      -4.638  11.695  18.574  0.00  0.00    +0.000 A 
ATOM     27  C   UNL     1      -4.813  11.162  17.303  0.00  0.00    +0.000 A 
ATOM     28  C   UNL     1      -3.700  10.911  16.515  0.00  0.00    +0.000 A 
ATOM     29  C   UNL     1      -2.416  11.194  17.001  0.00  0.00    +0.000 A 
ENDBRANCH  23  24
ENDBRANCH  17  18
ENDBRANCH   5  17
TORSDOF 7
ENDMDL
MODEL 2
REMARK VINA RESULT:      -7.5      4.470      8.956
REMARK  Name = 
REMARK  7 active torsions:
REMARK  status: ('A' for Active; 'I' for Inactive)
REMARK    1  A    between atoms: S_1  and  C_2
REMARK    2  A    between atoms: C_5  and  C_6
REMARK    3  A    between atoms: C_6  and  O_7
REMARK    4  A    between atoms: O_7  and  C_8
REMARK    5  A    between atoms: N_15  and  C_16
REMARK    6  A    between atoms: C_16  and  C_17
REMARK    7  A    between atoms: C_22  and  C_23
REMARK                            x       y       z     vdW  Elec       q    Type
REMARK                         _______ _______ _______ _____ _____    ______ ____
ROOT
ATOM      1  C   UNL     1       3.065   7.779  17.761  0.00  0.00    +0.000 A 
ATOM      2  N   UNL     1       2.397   8.895  17.602  0.00  0.00    +0.000 NA
ATOM      3  N   UNL     1       1.611   9.072  18.719  0.00  0.00    +0.000 NA
ATOM      4  C   UNL     1       1.820   8.060  19.542  0.00  0.00    +0.000 A 
ATOM      5  N   UNL     1       2.775   7.235  18.977  0.00  0.00    +0.000 N 
ENDROOT
BRANCH   1   6
ATOM      6  S   UNL     1       4.130   7.060  16.610  0.00  0.00    +0.000 S 
ATOM      7  H   UNL     1       4.274   5.881  17.227  0.00  0.00    +0.000 HD
ENDBRANCH   1   6
BRANCH   4   8
ATOM      8  C   UNL     1       1.088   7.783  20.816  0.00  0.00    +0.000 C 
BRANCH   8   9
ATOM      9  O   UNL     1       1.507   8.742  21.789  0.00  0.00    +0.000 OA
BRANCH   9  10
ATOM     10  C   UNL     1       0.665   9.803  22.001  0.00  0.00    +0.000 A 
ATOM     11  C   UNL     1       0.697  11.030  21.336  0.00  0.00    +0.000 A 
ATOM     12  C   UNL     1      -0.239  12.028  21.640  0.00  0.00    +0.000 A 
ATOM     13  C   UNL     1      -1.212  11.800  22.611  0.00  0.00    +0.000 A 
ATOM     14 CL   UNL     1      -2.364  13.025  22.973  0.00  0.00    +0.000 Cl
ATOM     15  C   UNL     1      -1.252  10.587  23.289  0.00  0.00    +0.000 A 
ATOM     16  C   UNL     1      -0.316   9.591  22.983  0.00  0.00    +0.000 A 
ENDBRANCH   9  10
ENDBRANCH   8   9
ENDBRANCH   4   8
BRANCH   5  17
ATOM     17  C   UNL     1       3.429   6.108  19.625  0.00  0.00    +0.000 C 
BRANCH  17  18
ATOM     18  C   UNL     1       2.797   4.744  19.396  0.00  0.00    +0.000 A 
ATOM     19  C   UNL     1       1.523   4.457  19.942  0.00  0.00    +0.000 A 
ATOM     20  C   UNL     1       0.879   3.244  19.713  0.00  0.00    +0.000 A 
ATOM     21  C   UNL     1       1.504   2.287  18.935  0.00  0.00    +0.000 A 
ATOM     22  C   UNL     1       2.764   2.529  18.393  0.00  0.00    +0.000 A 
ATOM     23  C   UNL     1       3.440   3.754  18.585  0.00  0.00    +0.000 A 
BRANCH  23  24
ATOM     24  C   UNL     1       4.752   3.962  17.875  0.00  0.00    +0.000 A 
ATOM     25  C   UNL     1       4.877   3.696  16.493  0.00  0.00    +0.000 A 
ATOM     26  C   UNL     1       6.069   3.932  15.793  0.00  0.00    +0.000 A 
ATOM     27  C   UNL     1       7.163   4.485  16.446  0.00  0.00    +0.000 A 
ATOM     28  C   UNL     1       7.089   4.725  17.809  0.00  0.00    +0.000 A 
ATOM     29  C   UNL     1       5.919   4.411  18.515  0.00  0.00    +0.000 A 
ENDBRANCH  23  24
ENDBRANCH  17  18
ENDBRANCH   5  17
TORSDOF 7
ENDMDL
MODEL 3
REMARK VINA RESULT:      -7.5      5.466      8.119
REMARK  Name = 
REMARK  7 active torsions:
REMARK  status: ('A' for Active; 'I' for Inactive)
REMARK    1  A    between atoms: S_1  and  C_2
REMARK    2  A    between atoms: C_5  and  C_6
REMARK    3  A    between atoms: C_6  and  O_7
REMARK    4  A    between atoms: O_7  and  C_8
REMARK    5  A    between atoms: N_15  and  C_16
REMARK    6  A    between atoms: C_16  and  C_17
REMARK    7  A    between atoms: C_22  and  C_23
REMARK                            x       y       z     vdW  Elec       q    Type
REMARK                         _______ _______ _______ _____ _____    ______ ____
ROOT
ATOM      1  C   UNL     1       5.899   4.396  19.058  0.00  0.00    +0.000 A 
ATOM      2  N   UNL     1       7.161   4.681  19.263  0.00  0.00    +0.000 NA
ATOM      3  N   UNL     1       7.558   5.548  18.270  0.00  0.00    +0.000 NA
ATOM      4  C   UNL     1       6.526   5.779  17.480  0.00  0.00    +0.000 A 
ATOM      5  N   UNL     1       5.437   5.089  17.979  0.00  0.00    +0.000 N 
ENDROOT
BRANCH   1   6
ATOM      6  S   UNL     1       4.945   3.287  19.973  0.00  0.00    +0.000 S 
ATOM      7  H   UNL     1       5.794   2.254  19.925  0.00  0.00    +0.000 HD
ENDBRANCH   1   6
BRANCH   4   8
ATOM      8  C   UNL     1       6.538   6.563  16.206  0.00  0.00    +0.000 C 
BRANCH   8   9
ATOM      9  O   UNL     1       7.422   5.913  15.291  0.00  0.00    +0.000 OA
BRANCH   9  10
ATOM     10  C   UNL     1       6.847   5.045  14.399  0.00  0.00    +0.000 A 
ATOM     11  C   UNL     1       5.641   4.363  14.570  0.00  0.00    +0.000 A 
ATOM     12  C   UNL     1       5.156   3.515  13.565  0.00  0.00    +0.000 A 
ATOM     13  C   UNL     1       5.875   3.348  12.384  0.00  0.00    +0.000 A 
ATOM     14 CL   UNL     1       5.269   2.314  11.150  0.00  0.00    +0.000 Cl
ATOM     15  C   UNL     1       7.082   4.014  12.202  0.00  0.00    +0.000 A 
ATOM     16  C   UNL     1       7.565   4.861  13.207  0.00  0.00    +0.000 A 
ENDBRANCH   9  10
ENDBRANCH   8   9
ENDBRANCH   4   8
BRANCH   5  17
ATOM     17  C   UNL     1       4.061   5.207  17.520  0.00  0.00    +0.000 C 
BRANCH  17  18
ATOM     18  C   UNL     1       3.289   6.417  18.023  0.00  0.00    +0.000 A 
ATOM     19  C   UNL     1       3.490   7.682  17.421  0.00  0.00    +0.000 A 
ATOM     20  C   UNL     1       2.767   8.807  17.808  0.00  0.00    +0.000 A 
ATOM     21  C   UNL     1       1.828   8.688  18.816  0.00  0.00    +0.000 A 
ATOM     22  C   UNL     1       1.612   7.462  19.441  0.00  0.00    +0.000 A 
ATOM     23  C   UNL     1       2.311   6.294  19.063  0.00  0.00    +0.000 A 
BRANCH  23  24
ATOM     24  C   UNL     1       1.936   4.995  19.725  0.00  0.00    +0.000 A 
ATOM     25  C   UNL     1       1.380   3.934  18.976  0.00  0.00    +0.000 A 
ATOM     26  C   UNL     1       1.073   2.694  19.554  0.00  0.00    +0.000 A 
ATOM     27  C   UNL     1       1.354   2.460  20.894  0.00  0.00    +0.000 A 
ATOM     28  C   UNL     1       1.867   3.489  21.669  0.00  0.00    +0.000 A 
ATOM     29  C   UNL     1       2.096   4.750  21.100  0.00  0.00    +0.000 A 
ENDBRANCH  23  24
ENDBRANCH  17  18
ENDBRANCH   5  17
TORSDOF 7
ENDMDL
MODEL 4
REMARK VINA RESULT:      -7.5      0.295      1.298
REMARK  Name = 
REMARK  7 active torsions:
REMARK  status: ('A' for Active; 'I' for Inactive)
REMARK    1  A    between atoms: S_1  and  C_2
REMARK    2  A    between atoms: C_5  and  C_6
REMARK    3  A    between atoms: C_6  and  O_7
REMARK    4  A    between atoms: O_7  and  C_8
REMARK    5  A    between atoms: N_15  and  C_16
REMARK    6  A    between atoms: C_16  and  C_17
REMARK    7  A    between atoms: C_22  and  C_23
REMARK                            x       y       z     vdW  Elec       q    Type
REMARK                         _______ _______ _______ _____ _____    ______ ____
ROOT
ATOM      1  C   UNL     1      -0.300  10.356  22.582  0.00  0.00    +0.000 A 
ATOM      2  N   UNL     1       0.516   9.890  23.494  0.00  0.00    +0.000 NA
ATOM      3  N   UNL     1       1.340   8.968  22.886  0.00  0.00    +0.000 NA
ATOM      4  C   UNL     1       1.011   8.894  21.609  0.00  0.00    +0.000 A 
ATOM      5  N   UNL     1      -0.008   9.798  21.372  0.00  0.00    +0.000 N 
ENDROOT
BRANCH   1   6
ATOM      6  S   UNL     1      -1.584  11.477  22.844  0.00  0.00    +0.000 S 
ATOM      7  H   UNL     1      -2.128  11.398  21.624  0.00  0.00    +0.000 HD
ENDBRANCH   1   6
BRANCH   4   8
ATOM      8  C   UNL     1       1.561   7.934  20.603  0.00  0.00    +0.000 C 
BRANCH   8   9
ATOM      9  O   UNL     1       1.752   6.673  21.248  0.00  0.00    +0.000 OA
BRANCH   9  10
ATOM     10  C   UNL     1       1.858   5.579  20.429  0.00  0.00    +0.000 A 
ATOM     11  C   UNL     1       1.123   4.396  20.531  0.00  0.00    +0.000 A 
ATOM     12  C   UNL     1       1.320   3.357  19.611  0.00  0.00    +0.000 A 
ATOM     13  C   UNL     1       2.252   3.498  18.586  0.00  0.00    +0.000 A 
ATOM     14 CL   UNL     1       2.481   2.223  17.455  0.00  0.00    +0.000 Cl
ATOM     15  C   UNL     1       2.998   4.666  18.477  0.00  0.00    +0.000 A 
ATOM     16  C   UNL     1       2.800   5.704  19.396  0.00  0.00    +0.000 A 
ENDBRANCH   9  10
ENDBRANCH   8   9
ENDBRANCH   4   8
BRANCH   5  17
ATOM     17  C   UNL     1      -0.542  10.169  20.070  0.00  0.00    +0.000 C 
BRANCH  17  18
ATOM     18  C   UNL     1      -0.073  11.502  19.508  0.00  0.00    +0.000 A 
ATOM     19  C   UNL     1       1.261  11.926  19.720  0.00  0.00    +0.000 A 
ATOM     20  C   UNL     1       1.753  13.110  19.179  0.00  0.00    +0.000 A 
ATOM     21  C   UNL     1       0.913  13.902  18.417  0.00  0.00    +0.000 A 
ATOM     22  C   UNL     1      -0.409  13.523  18.199  0.00  0.00    +0.000 A 
ATOM     23  C   UNL     1      -0.940  12.320  18.713  0.00  0.00    +0.000 A 
BRANCH  23  24
ATOM     24  C   UNL     1      -2.350  11.946  18.338  0.00  0.00    +0.000 A 
ATOM     25  C   UNL     1      -2.625  11.296  17.114  0.00  0.00    +0.000 A 
ATOM     26  C   UNL     1      -3.919  10.887  16.763  0.00  0.00    +0.000 A 
ATOM     27  C   UNL     1      -4.975  11.074  17.646  0.00  0.00    +0.000 A 
ATOM     28  C   UNL     1      -4.748  11.740  18.841  0.00  0.00    +0.000 A 
ATOM     29  C   UNL     1      -3.466  12.217  19.147  0.00  0.00    +0.000 A 
ENDBRANCH  23  24
ENDBRANCH  17  18
ENDBRANCH   5  17
TORSDOF 7
ENDMDL
MODEL 5
REMARK VINA RESULT:      -7.4      5.126      9.255
REMARK  Name = 
REMARK  7 active torsions:
REMARK  status: ('A' for Active; 'I' for Inactive)
REMARK    1  A    between atoms: S_1  and  C_2
REMARK    2  A    between atoms: C_5  and  C_6
REMARK    3  A    between atoms: C_6  and  O_7
REMARK    4  A    between atoms: O_7  and  C_8
REMARK    5  A    between atoms: N_15  and  C_16
REMARK    6  A    between atoms: C_16  and  C_17
REMARK    7  A    between atoms: C_22  and  C_23
REMARK                            x       y       z     vdW  Elec       q    Type
REMARK                         _______ _______ _______ _____ _____    ______ ____
ROOT
ATOM      1  C   UNL     1       2.721   2.737  18.648  0.00  0.00    +0.000 A 
ATOM      2  N   UNL     1       1.615   2.930  19.323  0.00  0.00    +0.000 NA
ATOM      3  N   UNL     1       1.261   4.253  19.175  0.00  0.00    +0.000 NA
ATOM      4  C   UNL     1       2.159   4.841  18.406  0.00  0.00    +0.000 A 
ATOM      5  N   UNL     1       3.085   3.891  18.019  0.00  0.00    +0.000 N 
ENDROOT
BRANCH   1   6
ATOM      6  S   UNL     1       3.626   1.271  18.576  0.00  0.00    +0.000 S 
ATOM      7  H   UNL     1       4.844   1.822  18.627  0.00  0.00    +0.000 HD
ENDBRANCH   1   6
BRANCH   4   8
ATOM      8  C   UNL     1       2.235   6.300  18.084  0.00  0.00    +0.000 C 
BRANCH   8   9
ATOM      9  O   UNL     1       2.658   6.994  19.259  0.00  0.00    +0.000 OA
BRANCH   9  10
ATOM     10  C   UNL     1       1.817   7.970  19.728  0.00  0.00    +0.000 A 
ATOM     11  C   UNL     1       1.261   8.038  21.007  0.00  0.00    +0.000 A 
ATOM     12  C   UNL     1       0.426   9.107  21.361  0.00  0.00    +0.000 A 
ATOM     13  C   UNL     1       0.144  10.111  20.437  0.00  0.00    +0.000 A 
ATOM     14 CL   UNL     1      -0.873  11.424  20.882  0.00  0.00    +0.000 Cl
ATOM     15  C   UNL     1       0.683  10.051  19.157  0.00  0.00    +0.000 A 
ATOM     16  C   UNL     1       1.518   8.984  18.804  0.00  0.00    +0.000 A 
ENDBRANCH   9  10
ENDBRANCH   8   9
ENDBRANCH   4   8
BRANCH   5  17
ATOM     17  C   UNL     1       4.136   4.069  17.028  0.00  0.00    +0.000 C 
BRANCH  17  18
ATOM     18  C   UNL     1       5.413   4.735  17.517  0.00  0.00    +0.000 A 
ATOM     19  C   UNL     1       5.583   5.005  18.896  0.00  0.00    +0.000 A 
ATOM     20  C   UNL     1       6.756   5.561  19.400  0.00  0.00    +0.000 A 
ATOM     21  C   UNL     1       7.784   5.866  18.526  0.00  0.00    +0.000 A 
ATOM     22  C   UNL     1       7.647   5.627  17.161  0.00  0.00    +0.000 A 
ATOM     23  C   UNL     1       6.481   5.045  16.615  0.00  0.00    +0.000 A 
BRANCH  23  24
ATOM     24  C   UNL     1       6.466   4.730  15.142  0.00  0.00    +0.000 A 
ATOM     25  C   UNL     1       7.458   5.251  14.281  0.00  0.00    +0.000 A 
ATOM     26  C   UNL     1       7.502   4.931  12.916  0.00  0.00    +0.000 A 
ATOM     27  C   UNL     1       6.580   4.042  12.378  0.00  0.00    +0.000 A 
ATOM     28  C   UNL     1       5.571   3.540  13.185  0.00  0.00    +0.000 A 
ATOM     29  C   UNL     1       5.488   3.929  14.530  0.00  0.00    +0.000 A 
ENDBRANCH  23  24
ENDBRANCH  17  18
ENDBRANCH   5  17
TORSDOF 7
ENDMDL
MODEL 6
REMARK VINA RESULT:      -7.4      5.196      9.323
REMARK  Name = 
REMARK  7 active torsions:
REMARK  status: ('A' for Active; 'I' for Inactive)
REMARK    1  A    between atoms: S_1  and  C_2
REMARK    2  A    between atoms: C_5  and  C_6
REMARK    3  A    between atoms: C_6  and  O_7
REMARK    4  A    between atoms: O_7  and  C_8
REMARK    5  A    between atoms: N_15  and  C_16
REMARK    6  A    between atoms: C_16  and  C_17
REMARK    7  A    between atoms: C_22  and  C_23
REMARK                            x       y       z     vdW  Elec       q    Type
REMARK                         _______ _______ _______ _____ _____    ______ ____
ROOT
ATOM      1  C   UNL     1       2.718   3.099  18.079  0.00  0.00    +0.000 A 
ATOM      2  N   UNL     1       1.450   3.384  17.920  0.00  0.00    +0.000 NA
ATOM      3  N   UNL     1       1.345   4.750  17.772  0.00  0.00    +0.000 NA
ATOM      4  C   UNL     1       2.557   5.270  17.838  0.00  0.00    +0.000 A 
ATOM      5  N   UNL     1       3.463   4.238  17.994  0.00  0.00    +0.000 N 
ENDROOT
BRANCH   1   6
ATOM      6  S   UNL     1       3.377   1.535  18.387  0.00  0.00    +0.000 S 
ATOM      7  H   UNL     1       2.215   0.884  18.518  0.00  0.00    +0.000 HD
ENDBRANCH   1   6
BRANCH   4   8
ATOM      8  C   UNL     1       2.900   6.726  17.850  0.00  0.00    +0.000 C 
BRANCH   8   9
ATOM      9  O   UNL     1       2.728   7.214  19.182  0.00  0.00    +0.000 OA
BRANCH   9  10
ATOM     10  C   UNL     1       1.846   8.251  19.343  0.00  0.00    +0.000 A 
ATOM     11  C   UNL     1       1.449   9.158  18.359  0.00  0.00    +0.000 A 
ATOM     12  C   UNL     1       0.520  10.166  18.655  0.00  0.00    +0.000 A 
ATOM     13  C   UNL     1      -0.015  10.268  19.938  0.00  0.00    +0.000 A 
ATOM     14 CL   UNL     1      -1.161  11.500  20.292  0.00  0.00    +0.000 Cl
ATOM     15  C   UNL     1       0.378   9.377  20.930  0.00  0.00    +0.000 A 
ATOM     16  C   UNL     1       1.304   8.370  20.633  0.00  0.00    +0.000 A 
ENDBRANCH   9  10
ENDBRANCH   8   9
ENDBRANCH   4   8
BRANCH   5  17
ATOM     17  C   UNL     1       4.912   4.349  17.929  0.00  0.00    +0.000 C 
BRANCH  17  18
ATOM     18  C   UNL     1       5.521   4.376  16.536  0.00  0.00    +0.000 A 
ATOM     19  C   UNL     1       4.976   3.564  15.513  0.00  0.00    +0.000 A 
ATOM     20  C   UNL     1       5.462   3.596  14.209  0.00  0.00    +0.000 A 
ATOM     21  C   UNL     1       6.515   4.440  13.904  0.00  0.00    +0.000 A 
ATOM     22  C   UNL     1       7.085   5.243  14.888  0.00  0.00    +0.000 A 
ATOM     23  C   UNL     1       6.607   5.255  16.217  0.00  0.00    +0.000 A 
BRANCH  23  24
ATOM     24  C   UNL     1       7.220   6.231  17.185  0.00  0.00    +0.000 A 
ATOM     25  C   UNL     1       7.726   5.796  18.430  0.00  0.00    +0.000 A 
ATOM     26  C   UNL     1       8.352   6.672  19.328  0.00  0.00    +0.000 A 
ATOM     27  C   UNL     1       8.533   8.007  18.989  0.00  0.00    +0.000 A 
ATOM     28  C   UNL     1       8.017   8.478  17.792  0.00  0.00    +0.000 A 
ATOM     29  C   UNL     1       7.322   7.611  16.937  0.00  0.00    +0.000 A 
ENDBRANCH  23  24
ENDBRANCH  17  18
ENDBRANCH   5  17
TORSDOF 7
ENDMDL
MODEL 7
REMARK VINA RESULT:      -7.3      4.477      8.969
REMARK  Name = 
REMARK  7 active torsions:
REMARK  status: ('A' for Active; 'I' for Inactive)
REMARK    1  A    between atoms: S_1  and  C_2
REMARK    2  A    between atoms: C_5  and  C_6
REMARK    3  A    between atoms: C_6  and  O_7
REMARK    4  A    between atoms: O_7  and  C_8
REMARK    5  A    between atoms: N_15  and  C_16
REMARK    6  A    between atoms: C_16  and  C_17
REMARK    7  A    between atoms: C_22  and  C_23
REMARK                            x       y       z     vdW  Elec       q    Type
REMARK                         _______ _______ _______ _____ _____    ______ ____
ROOT
ATOM      1  C   UNL     1       3.025   7.832  17.758  0.00  0.00    +0.000 A 
ATOM      2  N   UNL     1       2.343   8.939  17.604  0.00  0.00    +0.000 NA
ATOM      3  N   UNL     1       1.567   9.111  18.730  0.00  0.00    +0.000 NA
ATOM      4  C   UNL     1       1.797   8.103  19.552  0.00  0.00    +0.000 A 
ATOM      5  N   UNL     1       2.754   7.287  18.979  0.00  0.00    +0.000 N 
ENDROOT
BRANCH   1   6
ATOM      6  S   UNL     1       4.085   7.121  16.598  0.00  0.00    +0.000 S 
ATOM      7  H   UNL     1       5.192   7.783  16.953  0.00  0.00    +0.000 HD
ENDBRANCH   1   6
BRANCH   4   8
ATOM      8  C   UNL     1       1.081   7.821  20.835  0.00  0.00    +0.000 C 
BRANCH   8   9
ATOM      9  O   UNL     1       1.482   8.802  21.794  0.00  0.00    +0.000 OA
BRANCH   9  10
ATOM     10  C   UNL     1       0.562   9.771  22.097  0.00  0.00    +0.000 A 
ATOM     11  C   UNL     1      -0.468   9.670  23.034  0.00  0.00    +0.000 A 
ATOM     12  C   UNL     1      -1.333  10.750  23.259  0.00  0.00    +0.000 A 
ATOM     13  C   UNL     1      -1.170  11.936  22.547  0.00  0.00    +0.000 A 
ATOM     14 CL   UNL     1      -2.228  13.261  22.834  0.00  0.00    +0.000 Cl
ATOM     15  C   UNL     1      -0.154  12.049  21.603  0.00  0.00    +0.000 A 
ATOM     16  C   UNL     1       0.710  10.970  21.381  0.00  0.00    +0.000 A 
ENDBRANCH   9  10
ENDBRANCH   8   9
ENDBRANCH   4   8
BRANCH   5  17
ATOM     17  C   UNL     1       3.427   6.169  19.623  0.00  0.00    +0.000 C 
BRANCH  17  18
ATOM     18  C   UNL     1       2.809   4.798  19.402  0.00  0.00    +0.000 A 
ATOM     19  C   UNL     1       1.558   4.486  19.987  0.00  0.00    +0.000 A 
ATOM     20  C   UNL     1       0.926   3.266  19.768  0.00  0.00    +0.000 A 
ATOM     21  C   UNL     1       1.540   2.324  18.961  0.00  0.00    +0.000 A 
ATOM     22  C   UNL     1       2.778   2.591  18.381  0.00  0.00    +0.000 A 
ATOM     23  C   UNL     1       3.441   3.825  18.562  0.00  0.00    +0.000 A 
BRANCH  23  24
ATOM     24  C   UNL     1       4.726   4.059  17.811  0.00  0.00    +0.000 A 
ATOM     25  C   UNL     1       5.883   4.515  18.481  0.00  0.00    +0.000 A 
ATOM     26  C   UNL     1       7.107   4.689  17.819  0.00  0.00    +0.000 A 
ATOM     27  C   UNL     1       7.224   4.368  16.473  0.00  0.00    +0.000 A 
ATOM     28  C   UNL     1       6.101   3.953  15.775  0.00  0.00    +0.000 A 
ATOM     29  C   UNL     1       4.863   3.859  16.427  0.00  0.00    +0.000 A 
ENDBRANCH  23  24
ENDBRANCH  17  18
ENDBRANCH   5  17
TORSDOF 7
ENDMDL
MODEL 8
REMARK VINA RESULT:      -7.3      5.107      9.125
REMARK  Name = 
REMARK  7 active torsions:
REMARK  status: ('A' for Active; 'I' for Inactive)
REMARK    1  A    between atoms: S_1  and  C_2
REMARK    2  A    between atoms: C_5  and  C_6
REMARK    3  A    between atoms: C_6  and  O_7
REMARK    4  A    between atoms: O_7  and  C_8
REMARK    5  A    between atoms: N_15  and  C_16
REMARK    6  A    between atoms: C_16  and  C_17
REMARK    7  A    between atoms: C_22  and  C_23
REMARK                            x       y       z     vdW  Elec       q    Type
REMARK                         _______ _______ _______ _____ _____    ______ ____
ROOT
ATOM      1  C   UNL     1       3.278   2.613  19.394  0.00  0.00    +0.000 A 
ATOM      2  N   UNL     1       2.105   2.764  19.958  0.00  0.00    +0.000 NA
ATOM      3  N   UNL     1       1.515   3.876  19.400  0.00  0.00    +0.000 NA
ATOM      4  C   UNL     1       2.340   4.380  18.501  0.00  0.00    +0.000 A 
ATOM      5  N   UNL     1       3.461   3.573  18.443  0.00  0.00    +0.000 N 
ENDROOT
BRANCH   1   6
ATOM      6  S   UNL     1       4.453   1.416  19.796  0.00  0.00    +0.000 S 
ATOM      7  H   UNL     1       4.619   0.922  18.563  0.00  0.00    +0.000 HD
ENDBRANCH   1   6
BRANCH   4   8
ATOM      8  C   UNL     1       2.158   5.657  17.742  0.00  0.00    +0.000 C 
BRANCH   8   9
ATOM      9  O   UNL     1       2.905   6.679  18.406  0.00  0.00    +0.000 OA
BRANCH   9  10
ATOM     10  C   UNL     1       2.197   7.776  18.825  0.00  0.00    +0.000 A 
ATOM     11  C   UNL     1       1.825   8.869  18.040  0.00  0.00    +0.000 A 
ATOM     12  C   UNL     1       1.083   9.921  18.595  0.00  0.00    +0.000 A 
ATOM     13  C   UNL     1       0.710   9.882  19.937  0.00  0.00    +0.000 A 
ATOM     14 CL   UNL     1      -0.209  11.171  20.608  0.00  0.00    +0.000 Cl
ATOM     15  C   UNL     1       1.081   8.805  20.733  0.00  0.00    +0.000 A 
ATOM     16  C   UNL     1       1.822   7.754  20.178  0.00  0.00    +0.000 A 
ENDBRANCH   9  10
ENDBRANCH   8   9
ENDBRANCH   4   8
BRANCH   5  17
ATOM     17  C   UNL     1       4.533   3.660  17.463  0.00  0.00    +0.000 C 
BRANCH  17  18
ATOM     18  C   UNL     1       5.662   4.626  17.788  0.00  0.00    +0.000 A 
ATOM     19  C   UNL     1       5.921   4.979  19.134  0.00  0.00    +0.000 A 
ATOM     20  C   UNL     1       6.978   5.814  19.486  0.00  0.00    +0.000 A 
ATOM     21  C   UNL     1       7.795   6.321  18.492  0.00  0.00    +0.000 A 
ATOM     22  C   UNL     1       7.561   6.006  17.156  0.00  0.00    +0.000 A 
ATOM     23  C   UNL     1       6.513   5.146  16.760  0.00  0.00    +0.000 A 
BRANCH  23  24
ATOM     24  C   UNL     1       6.403   4.783  15.303  0.00  0.00    +0.000 A 
ATOM     25  C   UNL     1       7.444   5.091  14.399  0.00  0.00    +0.000 A 
ATOM     26  C   UNL     1       7.395   4.716  13.049  0.00  0.00    +0.000 A 
ATOM     27  C   UNL     1       6.319   3.980  12.568  0.00  0.00    +0.000 A 
ATOM     28  C   UNL     1       5.262   3.691  13.417  0.00  0.00    +0.000 A 
ATOM     29  C   UNL     1       5.285   4.140  14.746  0.00  0.00    +0.000 A 
ENDBRANCH  23  24
ENDBRANCH  17  18
ENDBRANCH   5  17
TORSDOF 7
ENDMDL
MODEL 9
REMARK VINA RESULT:      -7.2      5.262      9.386
REMARK  Name = 
REMARK  7 active torsions:
REMARK  status: ('A' for Active; 'I' for Inactive)
REMARK    1  A    between atoms: S_1  and  C_2
REMARK    2  A    between atoms: C_5  and  C_6
REMARK    3  A    between atoms: C_6  and  O_7
REMARK    4  A    between atoms: O_7  and  C_8
REMARK    5  A    between atoms: N_15  and  C_16
REMARK    6  A    between atoms: C_16  and  C_17
REMARK    7  A    between atoms: C_22  and  C_23
REMARK                            x       y       z     vdW  Elec       q    Type
REMARK                         _______ _______ _______ _____ _____    ______ ____
ROOT
ATOM      1  C   UNL     1       2.939   3.086  18.048  0.00  0.00    +0.000 A 
ATOM      2  N   UNL     1       1.704   3.517  17.969  0.00  0.00    +0.000 NA
ATOM      3  N   UNL     1       1.747   4.891  17.892  0.00  0.00    +0.000 NA
ATOM      4  C   UNL     1       3.011   5.271  17.920  0.00  0.00    +0.000 A 
ATOM      5  N   UNL     1       3.802   4.139  17.979  0.00  0.00    +0.000 N 
ENDROOT
BRANCH   1   6
ATOM      6  S   UNL     1       3.432   1.445  18.247  0.00  0.00    +0.000 S 
ATOM      7  H   UNL     1       2.343   1.019  18.898  0.00  0.00    +0.000 HD
ENDBRANCH   1   6
BRANCH   4   8
ATOM      8  C   UNL     1       3.515   6.678  17.982  0.00  0.00    +0.000 C 
BRANCH   8   9
ATOM      9  O   UNL     1       2.425   7.556  17.693  0.00  0.00    +0.000 OA
BRANCH   9  10
ATOM     10  C   UNL     1       1.875   8.218  18.761  0.00  0.00    +0.000 A 
ATOM     11  C   UNL     1       1.864   7.781  20.087  0.00  0.00    +0.000 A 
ATOM     12  C   UNL     1       1.280   8.570  21.088  0.00  0.00    +0.000 A 
ATOM     13  C   UNL     1       0.706   9.797  20.766  0.00  0.00    +0.000 A 
ATOM     14 CL   UNL     1      -0.000  10.763  22.001  0.00  0.00    +0.000 Cl
ATOM     15  C   UNL     1       0.701  10.241  19.448  0.00  0.00    +0.000 A 
ATOM     16  C   UNL     1       1.286   9.453  18.449  0.00  0.00    +0.000 A 
ENDBRANCH   9  10
ENDBRANCH   8   9
ENDBRANCH   4   8
BRANCH   5  17
ATOM     17  C   UNL     1       5.250   4.094  17.845  0.00  0.00    +0.000 C 
BRANCH  17  18
ATOM     18  C   UNL     1       5.798   4.252  16.435  0.00  0.00    +0.000 A 
ATOM     19  C   UNL     1       5.305   3.432  15.392  0.00  0.00    +0.000 A 
ATOM     20  C   UNL     1       5.733   3.576  14.075  0.00  0.00    +0.000 A 
ATOM     21  C   UNL     1       6.676   4.544  13.777  0.00  0.00    +0.000 A 
ATOM     22  C   UNL     1       7.194   5.359  14.780  0.00  0.00    +0.000 A 
ATOM     23  C   UNL     1       6.769   5.258  16.123  0.00  0.00    +0.000 A 
BRANCH  23  24
ATOM     24  C   UNL     1       7.310   6.251  17.118  0.00  0.00    +0.000 A 
ATOM     25  C   UNL     1       7.786   5.827  18.378  0.00  0.00    +0.000 A 
ATOM     26  C   UNL     1       8.346   6.720  19.302  0.00  0.00    +0.000 A 
ATOM     27  C   UNL     1       8.490   8.063  18.976  0.00  0.00    +0.000 A 
ATOM     28  C   UNL     1       8.001   8.521  17.762  0.00  0.00    +0.000 A 
ATOM     29  C   UNL     1       7.370   7.634  16.879  0.00  0.00    +0.000 A 
ENDBRANCH  23  24
ENDBRANCH  17  18
ENDBRANCH   5  17
TORSDOF 7
ENDMDL
