MODEL 1
REMARK VINA RESULT:      -8.3      0.000      0.000
REMARK  Name = 
REMARK  4 active torsions:
REMARK  status: ('A' for Active; 'I' for Inactive)
REMARK    1  A    between atoms: N_4  and  C_5
REMARK    2  A    between atoms: C_5  and  C_6
REMARK    3  A    between atoms: C_12  and  C_13
REMARK    4  A    between atoms: C_19  and  C_20
REMARK                            x       y       z     vdW  Elec       q    Type
REMARK                         _______ _______ _______ _____ _____    ______ ____
ROOT
ATOM      1  O   UNL     1       1.224   4.093  17.387  0.00  0.00    +0.000 OA
ATOM      2  C   UNL     1       2.420   4.260  17.241  0.00  0.00    +0.000 A 
ATOM      3  O   UNL     1       3.269   3.448  16.505  0.00  0.00    +0.000 OA
ATOM      4  N   UNL     1       4.540   4.031  16.584  0.00  0.00    +0.000 N 
ATOM      5  C   UNL     1       4.492   5.100  17.429  0.00  0.00    +0.000 A 
ATOM      6  C   UNL     1       3.242   5.335  17.848  0.00  0.00    +0.000 A 
ENDROOT
BRANCH   6   7
ATOM      7  C   UNL     1       2.817   6.442  18.693  0.00  0.00    +0.000 A 
ATOM      8  C   UNL     1       2.455   6.187  20.023  0.00  0.00    +0.000 A 
ATOM      9  C   UNL     1       1.788   7.160  20.767  0.00  0.00    +0.000 A 
ATOM     10  C   UNL     1       1.495   8.386  20.181  0.00  0.00    +0.000 A 
ATOM     11  F   UNL     1       0.804   9.299  20.875  0.00  0.00    +0.000 F 
ATOM     12  C   UNL     1       1.888   8.671  18.878  0.00  0.00    +0.000 A 
ATOM     13  C   UNL     1       2.555   7.699  18.131  0.00  0.00    +0.000 A 
ENDBRANCH   6   7
BRANCH   5  14
ATOM     14  C   UNL     1       5.661   5.891  17.808  0.00  0.00    +0.000 A 
ATOM     15  C   UNL     1       6.004   7.028  17.075  0.00  0.00    +0.000 A 
ATOM     16  C   UNL     1       7.189   7.673  17.386  0.00  0.00    +0.000 A 
ATOM     17  N   UNL     1       8.028   7.268  18.361  0.00  0.00    +0.000 NA
ATOM     18  C   UNL     1       7.674   6.163  19.052  0.00  0.00    +0.000 A 
ATOM     19  C   UNL     1       6.511   5.449  18.820  0.00  0.00    +0.000 A 
ENDBRANCH   5  14
BRANCH   4  20
ATOM     20  C   UNL     1       5.650   3.261  16.069  0.00  0.00    +0.000 C 
BRANCH  20  21
ATOM     21  C   UNL     1       6.146   3.803  14.746  0.00  0.00    +0.000 A 
ATOM     22  C   UNL     1       7.174   4.758  14.701  0.00  0.00    +0.000 A 
ATOM     23  C   UNL     1       7.697   5.185  13.477  0.00  0.00    +0.000 A 
ATOM     24  C   UNL     1       7.194   4.670  12.284  0.00  0.00    +0.000 A 
ATOM     25  C   UNL     1       6.157   3.741  12.312  0.00  0.00    +0.000 A 
ATOM     26  C   UNL     1       5.636   3.310  13.534  0.00  0.00    +0.000 A 
ENDBRANCH  20  21
ENDBRANCH   4  20
TORSDOF 4
ENDMDL
MODEL 2
REMARK VINA RESULT:      -7.5      2.898      5.888
REMARK  Name = 
REMARK  4 active torsions:
REMARK  status: ('A' for Active; 'I' for Inactive)
REMARK    1  A    between atoms: N_4  and  C_5
REMARK    2  A    between atoms: C_5  and  C_6
REMARK    3  A    between atoms: C_12  and  C_13
REMARK    4  A    between atoms: C_19  and  C_20
REMARK                            x       y       z     vdW  Elec       q    Type
REMARK                         _______ _______ _______ _____ _____    ______ ____
ROOT
ATOM      1  O   UNL     1       7.852   4.337  16.176  0.00  0.00    +0.000 OA
ATOM      2  C   UNL     1       6.709   4.474  16.570  0.00  0.00    +0.000 A 
ATOM      3  O   UNL     1       5.662   3.594  16.345  0.00  0.00    +0.000 OA
ATOM      4  N   UNL     1       4.548   4.129  17.003  0.00  0.00    +0.000 N 
ATOM      5  C   UNL     1       4.874   5.349  17.519  0.00  0.00    +0.000 A 
ATOM      6  C   UNL     1       6.171   5.625  17.335  0.00  0.00    +0.000 A 
ENDROOT
BRANCH   6   7
ATOM      7  C   UNL     1       6.873   6.802  17.827  0.00  0.00    +0.000 A 
ATOM      8  C   UNL     1       6.720   8.020  17.151  0.00  0.00    +0.000 A 
ATOM      9  C   UNL     1       7.581   9.084  17.423  0.00  0.00    +0.000 A 
ATOM     10  C   UNL     1       8.582   8.928  18.374  0.00  0.00    +0.000 A 
ATOM     11  F   UNL     1       9.444   9.929  18.593  0.00  0.00    +0.000 F 
ATOM     12  C   UNL     1       8.717   7.741  19.086  0.00  0.00    +0.000 A 
ATOM     13  C   UNL     1       7.858   6.675  18.816  0.00  0.00    +0.000 A 
ENDBRANCH   6   7
BRANCH   5  14
ATOM     14  C   UNL     1       3.923   6.225  18.199  0.00  0.00    +0.000 A 
ATOM     15  C   UNL     1       3.524   5.945  19.507  0.00  0.00    +0.000 A 
ATOM     16  C   UNL     1       2.526   6.723  20.067  0.00  0.00    +0.000 A 
ATOM     17  N   UNL     1       1.920   7.742  19.422  0.00  0.00    +0.000 NA
ATOM     18  C   UNL     1       2.323   7.989  18.157  0.00  0.00    +0.000 A 
ATOM     19  C   UNL     1       3.312   7.270  17.508  0.00  0.00    +0.000 A 
ENDBRANCH   5  14
BRANCH   4  20
ATOM     20  C   UNL     1       3.269   3.503  16.749  0.00  0.00    +0.000 C 
BRANCH  20  21
ATOM     21  C   UNL     1       2.551   3.147  18.033  0.00  0.00    +0.000 A 
ATOM     22  C   UNL     1       3.215   2.455  19.058  0.00  0.00    +0.000 A 
ATOM     23  C   UNL     1       2.581   2.213  20.279  0.00  0.00    +0.000 A 
ATOM     24  C   UNL     1       1.275   2.650  20.489  0.00  0.00    +0.000 A 
ATOM     25  C   UNL     1       0.595   3.316  19.472  0.00  0.00    +0.000 A 
ATOM     26  C   UNL     1       1.228   3.563  18.252  0.00  0.00    +0.000 A 
ENDBRANCH  20  21
ENDBRANCH   4  20
TORSDOF 4
ENDMDL
MODEL 3
REMARK VINA RESULT:      -7.3      2.825      5.813
REMARK  Name = 
REMARK  4 active torsions:
REMARK  status: ('A' for Active; 'I' for Inactive)
REMARK    1  A    between atoms: N_4  and  C_5
REMARK    2  A    between atoms: C_5  and  C_6
REMARK    3  A    between atoms: C_12  and  C_13
REMARK    4  A    between atoms: C_19  and  C_20
REMARK                            x       y       z     vdW  Elec       q    Type
REMARK                         _______ _______ _______ _____ _____    ______ ____
ROOT
ATOM      1  O   UNL     1       7.833   4.605  15.615  0.00  0.00    +0.000 OA
ATOM      2  C   UNL     1       6.714   4.642  16.092  0.00  0.00    +0.000 A 
ATOM      3  O   UNL     1       5.670   3.785  15.779  0.00  0.00    +0.000 OA
ATOM      4  N   UNL     1       4.590   4.169  16.583  0.00  0.00    +0.000 N 
ATOM      5  C   UNL     1       4.927   5.290  17.283  0.00  0.00    +0.000 A 
ATOM      6  C   UNL     1       6.206   5.629  17.075  0.00  0.00    +0.000 A 
ENDROOT
BRANCH   6   7
ATOM      7  C   UNL     1       6.917   6.722  17.723  0.00  0.00    +0.000 A 
ATOM      8  C   UNL     1       6.902   7.992  17.129  0.00  0.00    +0.000 A 
ATOM      9  C   UNL     1       7.788   8.978  17.565  0.00  0.00    +0.000 A 
ATOM     10  C   UNL     1       8.675   8.694  18.596  0.00  0.00    +0.000 A 
ATOM     11  F   UNL     1       9.564   9.620  18.975  0.00  0.00    +0.000 F 
ATOM     12  C   UNL     1       8.670   7.453  19.225  0.00  0.00    +0.000 A 
ATOM     13  C   UNL     1       7.785   6.464  18.791  0.00  0.00    +0.000 A 
ENDBRANCH   6   7
BRANCH   5  14
ATOM     14  C   UNL     1       4.006   6.010  18.159  0.00  0.00    +0.000 A 
ATOM     15  C   UNL     1       3.777   5.556  19.459  0.00  0.00    +0.000 A 
ATOM     16  C   UNL     1       2.801   6.189  20.210  0.00  0.00    +0.000 A 
ATOM     17  N   UNL     1       2.062   7.223  19.758  0.00  0.00    +0.000 NA
ATOM     18  C   UNL     1       2.301   7.639  18.495  0.00  0.00    +0.000 A 
ATOM     19  C   UNL     1       3.254   7.074  17.666  0.00  0.00    +0.000 A 
ENDBRANCH   5  14
BRANCH   4  20
ATOM     20  C   UNL     1       3.309   3.561  16.299  0.00  0.00    +0.000 C 
BRANCH  20  21
ATOM     21  C   UNL     1       2.594   3.136  17.563  0.00  0.00    +0.000 A 
ATOM     22  C   UNL     1       1.327   3.653  17.879  0.00  0.00    +0.000 A 
ATOM     23  C   UNL     1       0.627   3.187  18.995  0.00  0.00    +0.000 A 
ATOM     24  C   UNL     1       1.185   2.208  19.813  0.00  0.00    +0.000 A 
ATOM     25  C   UNL     1       2.451   1.704  19.526  0.00  0.00    +0.000 A 
ATOM     26  C   UNL     1       3.152   2.165  18.409  0.00  0.00    +0.000 A 
ENDBRANCH  20  21
ENDBRANCH   4  20
TORSDOF 4
ENDMDL
MODEL 4
REMARK VINA RESULT:      -7.2      0.191      1.335
REMARK  Name = 
REMARK  4 active torsions:
REMARK  status: ('A' for Active; 'I' for Inactive)
REMARK    1  A    between atoms: N_4  and  C_5
REMARK    2  A    between atoms: C_5  and  C_6
REMARK    3  A    between atoms: C_12  and  C_13
REMARK    4  A    between atoms: C_19  and  C_20
REMARK                            x       y       z     vdW  Elec       q    Type
REMARK                         _______ _______ _______ _____ _____    ______ ____
ROOT
ATOM      1  O   UNL     1       1.244   4.089  17.392  0.00  0.00    +0.000 OA
ATOM      2  C   UNL     1       2.439   4.221  17.207  0.00  0.00    +0.000 A 
ATOM      3  O   UNL     1       3.250   3.354  16.491  0.00  0.00    +0.000 OA
ATOM      4  N   UNL     1       4.535   3.911  16.509  0.00  0.00    +0.000 N 
ATOM      5  C   UNL     1       4.533   5.022  17.300  0.00  0.00    +0.000 A 
ATOM      6  C   UNL     1       3.300   5.306  17.739  0.00  0.00    +0.000 A 
ENDROOT
BRANCH   6   7
ATOM      7  C   UNL     1       2.922   6.462  18.538  0.00  0.00    +0.000 A 
ATOM      8  C   UNL     1       2.594   6.281  19.889  0.00  0.00    +0.000 A 
ATOM      9  C   UNL     1       1.968   7.305  20.601  0.00  0.00    +0.000 A 
ATOM     10  C   UNL     1       1.683   8.506  19.963  0.00  0.00    +0.000 A 
ATOM     11  F   UNL     1       1.030   9.467  20.628  0.00  0.00    +0.000 F 
ATOM     12  C   UNL     1       2.043   8.717  18.636  0.00  0.00    +0.000 A 
ATOM     13  C   UNL     1       2.669   7.695  17.921  0.00  0.00    +0.000 A 
ENDBRANCH   6   7
BRANCH   5  14
ATOM     14  C   UNL     1       5.728   5.803  17.609  0.00  0.00    +0.000 A 
ATOM     15  C   UNL     1       6.573   5.409  18.648  0.00  0.00    +0.000 A 
ATOM     16  C   UNL     1       7.621   6.246  18.992  0.00  0.00    +0.000 A 
ATOM     17  N   UNL     1       7.874   7.419  18.377  0.00  0.00    +0.000 NA
ATOM     18  C   UNL     1       7.039   7.778  17.378  0.00  0.00    +0.000 A 
ATOM     19  C   UNL     1       5.965   7.012  16.958  0.00  0.00    +0.000 A 
ENDBRANCH   5  14
BRANCH   4  20
ATOM     20  C   UNL     1       5.614   3.092  16.004  0.00  0.00    +0.000 C 
BRANCH  20  21
ATOM     21  C   UNL     1       6.184   3.642  14.715  0.00  0.00    +0.000 A 
ATOM     22  C   UNL     1       5.661   3.248  13.473  0.00  0.00    +0.000 A 
ATOM     23  C   UNL     1       6.123   3.830  12.289  0.00  0.00    +0.000 A 
ATOM     24  C   UNL     1       7.117   4.805  12.330  0.00  0.00    +0.000 A 
ATOM     25  C   UNL     1       7.663   5.187  13.553  0.00  0.00    +0.000 A 
ATOM     26  C   UNL     1       7.201   4.610  14.737  0.00  0.00    +0.000 A 
ENDBRANCH  20  21
ENDBRANCH   4  20
TORSDOF 4
ENDMDL
MODEL 5
REMARK VINA RESULT:      -6.8      2.646      4.666
REMARK  Name = 
REMARK  4 active torsions:
REMARK  status: ('A' for Active; 'I' for Inactive)
REMARK    1  A    between atoms: N_4  and  C_5
REMARK    2  A    between atoms: C_5  and  C_6
REMARK    3  A    between atoms: C_12  and  C_13
REMARK    4  A    between atoms: C_19  and  C_20
REMARK                            x       y       z     vdW  Elec       q    Type
REMARK                         _______ _______ _______ _____ _____    ______ ____
ROOT
ATOM      1  O   UNL     1       2.372   9.414  18.229  0.00  0.00    +0.000 OA
ATOM      2  C   UNL     1       2.463   8.211  18.391  0.00  0.00    +0.000 A 
ATOM      3  O   UNL     1       3.035   7.313  17.502  0.00  0.00    +0.000 OA
ATOM      4  N   UNL     1       2.952   6.053  18.107  0.00  0.00    +0.000 N 
ATOM      5  C   UNL     1       2.255   6.160  19.275  0.00  0.00    +0.000 A 
ATOM      6  C   UNL     1       1.949   7.435  19.545  0.00  0.00    +0.000 A 
ENDROOT
BRANCH   6   7
ATOM      7  C   UNL     1       1.281   7.918  20.745  0.00  0.00    +0.000 A 
ATOM      8  C   UNL     1      -0.120   7.895  20.803  0.00  0.00    +0.000 A 
ATOM      9  C   UNL     1      -0.790   8.597  21.806  0.00  0.00    +0.000 A 
ATOM     10  C   UNL     1      -0.058   9.307  22.750  0.00  0.00    +0.000 A 
ATOM     11  F   UNL     1      -0.703  10.027  23.676  0.00  0.00    +0.000 F 
ATOM     12  C   UNL     1       1.332   9.302  22.732  0.00  0.00    +0.000 A 
ATOM     13  C   UNL     1       2.006   8.602  21.730  0.00  0.00    +0.000 A 
ENDBRANCH   6   7
BRANCH   5  14
ATOM     14  C   UNL     1       1.909   5.021  20.122  0.00  0.00    +0.000 A 
ATOM     15  C   UNL     1       2.687   4.719  21.241  0.00  0.00    +0.000 A 
ATOM     16  C   UNL     1       2.403   3.558  21.940  0.00  0.00    +0.000 A 
ATOM     17  N   UNL     1       1.412   2.706  21.605  0.00  0.00    +0.000 NA
ATOM     18  C   UNL     1       0.678   3.021  20.517  0.00  0.00    +0.000 A 
ATOM     19  C   UNL     1       0.881   4.156  19.752  0.00  0.00    +0.000 A 
ENDBRANCH   5  14
BRANCH   4  20
ATOM     20  C   UNL     1       3.294   4.909  17.292  0.00  0.00    +0.000 C 
BRANCH  20  21
ATOM     21  C   UNL     1       4.792   4.739  17.160  0.00  0.00    +0.000 A 
ATOM     22  C   UNL     1       5.388   4.582  15.899  0.00  0.00    +0.000 A 
ATOM     23  C   UNL     1       6.779   4.523  15.771  0.00  0.00    +0.000 A 
ATOM     24  C   UNL     1       7.589   4.611  16.900  0.00  0.00    +0.000 A 
ATOM     25  C   UNL     1       7.011   4.743  18.160  0.00  0.00    +0.000 A 
ATOM     26  C   UNL     1       5.622   4.806  18.290  0.00  0.00    +0.000 A 
ENDBRANCH  20  21
ENDBRANCH   4  20
TORSDOF 4
ENDMDL
MODEL 6
REMARK VINA RESULT:      -6.8      2.712      5.682
REMARK  Name = 
REMARK  4 active torsions:
REMARK  status: ('A' for Active; 'I' for Inactive)
REMARK    1  A    between atoms: N_4  and  C_5
REMARK    2  A    between atoms: C_5  and  C_6
REMARK    3  A    between atoms: C_12  and  C_13
REMARK    4  A    between atoms: C_19  and  C_20
REMARK                            x       y       z     vdW  Elec       q    Type
REMARK                         _______ _______ _______ _____ _____    ______ ____
ROOT
ATOM      1  O   UNL     1       7.637   3.984  15.598  0.00  0.00    +0.000 OA
ATOM      2  C   UNL     1       6.551   4.214  16.096  0.00  0.00    +0.000 A 
ATOM      3  O   UNL     1       5.409   3.443  15.947  0.00  0.00    +0.000 OA
ATOM      4  N   UNL     1       4.414   4.058  16.716  0.00  0.00    +0.000 N 
ATOM      5  C   UNL     1       4.899   5.225  17.229  0.00  0.00    +0.000 A 
ATOM      6  C   UNL     1       6.195   5.386  16.934  0.00  0.00    +0.000 A 
ENDROOT
BRANCH   6   7
ATOM      7  C   UNL     1       7.047   6.476  17.388  0.00  0.00    +0.000 A 
ATOM      8  C   UNL     1       7.851   6.288  18.521  0.00  0.00    +0.000 A 
ATOM      9  C   UNL     1       8.458   7.382  19.139  0.00  0.00    +0.000 A 
ATOM     10  C   UNL     1       8.266   8.655  18.616  0.00  0.00    +0.000 A 
ATOM     11  F   UNL     1       8.799   9.711  19.242  0.00  0.00    +0.000 F 
ATOM     12  C   UNL     1       7.508   8.852  17.466  0.00  0.00    +0.000 A 
ATOM     13  C   UNL     1       6.899   7.759  16.847  0.00  0.00    +0.000 A 
ENDBRANCH   6   7
BRANCH   5  14
ATOM     14  C   UNL     1       4.100   6.164  18.012  0.00  0.00    +0.000 A 
ATOM     15  C   UNL     1       3.796   5.882  19.345  0.00  0.00    +0.000 A 
ATOM     16  C   UNL     1       2.930   6.732  20.012  0.00  0.00    +0.000 A 
ATOM     17  N   UNL     1       2.366   7.819  19.448  0.00  0.00    +0.000 NA
ATOM     18  C   UNL     1       2.673   8.066  18.156  0.00  0.00    +0.000 A 
ATOM     19  C   UNL     1       3.528   7.280  17.403  0.00  0.00    +0.000 A 
ENDBRANCH   5  14
BRANCH   4  20
ATOM     20  C   UNL     1       3.064   3.561  16.564  0.00  0.00    +0.000 C 
BRANCH  20  21
ATOM     21  C   UNL     1       2.455   3.171  17.893  0.00  0.00    +0.000 A 
ATOM     22  C   UNL     1       3.149   2.338  18.784  0.00  0.00    +0.000 A 
ATOM     23  C   UNL     1       2.627   2.058  20.050  0.00  0.00    +0.000 A 
ATOM     24  C   UNL     1       1.404   2.599  20.438  0.00  0.00    +0.000 A 
ATOM     25  C   UNL     1       0.692   3.408  19.556  0.00  0.00    +0.000 A 
ATOM     26  C   UNL     1       1.213   3.692  18.291  0.00  0.00    +0.000 A 
ENDBRANCH  20  21
ENDBRANCH   4  20
TORSDOF 4
ENDMDL
MODEL 7
REMARK VINA RESULT:      -6.5      0.447      1.050
REMARK  Name = 
REMARK  4 active torsions:
REMARK  status: ('A' for Active; 'I' for Inactive)
REMARK    1  A    between atoms: N_4  and  C_5
REMARK    2  A    between atoms: C_5  and  C_6
REMARK    3  A    between atoms: C_12  and  C_13
REMARK    4  A    between atoms: C_19  and  C_20
REMARK                            x       y       z     vdW  Elec       q    Type
REMARK                         _______ _______ _______ _____ _____    ______ ____
ROOT
ATOM      1  O   UNL     1       1.141   3.405  17.450  0.00  0.00    +0.000 OA
ATOM      2  C   UNL     1       2.306   3.713  17.283  0.00  0.00    +0.000 A 
ATOM      3  O   UNL     1       3.243   2.987  16.564  0.00  0.00    +0.000 OA
ATOM      4  N   UNL     1       4.432   3.726  16.606  0.00  0.00    +0.000 N 
ATOM      5  C   UNL     1       4.258   4.811  17.414  0.00  0.00    +0.000 A 
ATOM      6  C   UNL     1       2.993   4.904  17.841  0.00  0.00    +0.000 A 
ENDROOT
BRANCH   6   7
ATOM      7  C   UNL     1       2.440   5.979  18.652  0.00  0.00    +0.000 A 
ATOM      8  C   UNL     1       2.324   7.262  18.097  0.00  0.00    +0.000 A 
ATOM      9  C   UNL     1       2.065   8.359  18.919  0.00  0.00    +0.000 A 
ATOM     10  C   UNL     1       1.914   8.168  20.288  0.00  0.00    +0.000 A 
ATOM     11  F   UNL     1       1.724   9.227  21.084  0.00  0.00    +0.000 F 
ATOM     12  C   UNL     1       1.981   6.896  20.846  0.00  0.00    +0.000 A 
ATOM     13  C   UNL     1       2.241   5.796  20.027  0.00  0.00    +0.000 A 
ENDBRANCH   6   7
BRANCH   5  14
ATOM     14  C   UNL     1       5.322   5.754  17.749  0.00  0.00    +0.000 A 
ATOM     15  C   UNL     1       5.520   6.894  16.968  0.00  0.00    +0.000 A 
ATOM     16  C   UNL     1       6.618   7.692  17.240  0.00  0.00    +0.000 A 
ATOM     17  N   UNL     1       7.505   7.433  18.223  0.00  0.00    +0.000 NA
ATOM     18  C   UNL     1       7.293   6.322  18.961  0.00  0.00    +0.000 A 
ATOM     19  C   UNL     1       6.226   5.461  18.769  0.00  0.00    +0.000 A 
ENDBRANCH   5  14
BRANCH   4  20
ATOM     20  C   UNL     1       5.625   3.082  16.103  0.00  0.00    +0.000 C 
BRANCH  20  21
ATOM     21  C   UNL     1       6.116   3.725  14.824  0.00  0.00    +0.000 A 
ATOM     22  C   UNL     1       7.140   4.685  14.852  0.00  0.00    +0.000 A 
ATOM     23  C   UNL     1       7.659   5.206  13.663  0.00  0.00    +0.000 A 
ATOM     24  C   UNL     1       7.156   4.782  12.435  0.00  0.00    +0.000 A 
ATOM     25  C   UNL     1       6.124   3.849  12.393  0.00  0.00    +0.000 A 
ATOM     26  C   UNL     1       5.606   3.324  13.579  0.00  0.00    +0.000 A 
ENDBRANCH  20  21
ENDBRANCH   4  20
TORSDOF 4
ENDMDL
MODEL 8
REMARK VINA RESULT:      -6.5      2.535      6.105
REMARK  Name = 
REMARK  4 active torsions:
REMARK  status: ('A' for Active; 'I' for Inactive)
REMARK    1  A    between atoms: N_4  and  C_5
REMARK    2  A    between atoms: C_5  and  C_6
REMARK    3  A    between atoms: C_12  and  C_13
REMARK    4  A    between atoms: C_19  and  C_20
REMARK                            x       y       z     vdW  Elec       q    Type
REMARK                         _______ _______ _______ _____ _____    ______ ____
ROOT
ATOM      1  O   UNL     1       2.460   2.920  16.346  0.00  0.00    +0.000 OA
ATOM      2  C   UNL     1       3.047   3.687  17.085  0.00  0.00    +0.000 A 
ATOM      3  O   UNL     1       2.586   4.147  18.309  0.00  0.00    +0.000 OA
ATOM      4  N   UNL     1       3.592   4.974  18.824  0.00  0.00    +0.000 N 
ATOM      5  C   UNL     1       4.586   5.103  17.898  0.00  0.00    +0.000 A 
ATOM      6  C   UNL     1       4.358   4.332  16.828  0.00  0.00    +0.000 A 
ENDROOT
BRANCH   6   7
ATOM      7  C   UNL     1       5.249   4.164  15.689  0.00  0.00    +0.000 A 
ATOM      8  C   UNL     1       6.610   4.466  15.837  0.00  0.00    +0.000 A 
ATOM      9  C   UNL     1       7.428   4.584  14.712  0.00  0.00    +0.000 A 
ATOM     10  C   UNL     1       6.884   4.389  13.448  0.00  0.00    +0.000 A 
ATOM     11  F   UNL     1       7.654   4.559  12.367  0.00  0.00    +0.000 F 
ATOM     12  C   UNL     1       5.546   4.044  13.288  0.00  0.00    +0.000 A 
ATOM     13  C   UNL     1       4.725   3.927  14.411  0.00  0.00    +0.000 A 
ENDBRANCH   6   7
BRANCH   5  14
ATOM     14  C   UNL     1       5.753   5.963  18.072  0.00  0.00    +0.000 A 
ATOM     15  C   UNL     1       5.888   7.124  17.309  0.00  0.00    +0.000 A 
ATOM     16  C   UNL     1       7.068   7.840  17.410  0.00  0.00    +0.000 A 
ATOM     17  N   UNL     1       8.094   7.483  18.210  0.00  0.00    +0.000 NA
ATOM     18  C   UNL     1       7.939   6.354  18.934  0.00  0.00    +0.000 A 
ATOM     19  C   UNL     1       6.799   5.569  18.905  0.00  0.00    +0.000 A 
ENDBRANCH   5  14
BRANCH   4  20
ATOM     20  C   UNL     1       3.270   5.746  20.003  0.00  0.00    +0.000 C 
BRANCH  20  21
ATOM     21  C   UNL     1       2.471   6.986  19.663  0.00  0.00    +0.000 A 
ATOM     22  C   UNL     1       1.757   7.674  20.657  0.00  0.00    +0.000 A 
ATOM     23  C   UNL     1       1.100   8.871  20.361  0.00  0.00    +0.000 A 
ATOM     24  C   UNL     1       1.140   9.391  19.070  0.00  0.00    +0.000 A 
ATOM     25  C   UNL     1       1.824   8.707  18.068  0.00  0.00    +0.000 A 
ATOM     26  C   UNL     1       2.485   7.512  18.362  0.00  0.00    +0.000 A 
ENDBRANCH  20  21
ENDBRANCH   4  20
TORSDOF 4
ENDMDL
MODEL 9
REMARK VINA RESULT:      -6.4      1.830      3.462
REMARK  Name = 
REMARK  4 active torsions:
REMARK  status: ('A' for Active; 'I' for Inactive)
REMARK    1  A    between atoms: N_4  and  C_5
REMARK    2  A    between atoms: C_5  and  C_6
REMARK    3  A    between atoms: C_12  and  C_13
REMARK    4  A    between atoms: C_19  and  C_20
REMARK                            x       y       z     vdW  Elec       q    Type
REMARK                         _______ _______ _______ _____ _____    ______ ____
ROOT
ATOM      1  O   UNL     1       5.341   8.211  17.009  0.00  0.00    +0.000 OA
ATOM      2  C   UNL     1       5.111   7.016  17.044  0.00  0.00    +0.000 A 
ATOM      3  O   UNL     1       5.853   6.027  16.417  0.00  0.00    +0.000 OA
ATOM      4  N   UNL     1       5.250   4.809  16.754  0.00  0.00    +0.000 N 
ATOM      5  C   UNL     1       4.116   5.051  17.471  0.00  0.00    +0.000 A 
ATOM      6  C   UNL     1       3.969   6.358  17.725  0.00  0.00    +0.000 A 
ENDROOT
BRANCH   6   7
ATOM      7  C   UNL     1       2.916   6.959  18.530  0.00  0.00    +0.000 A 
ATOM      8  C   UNL     1       2.273   8.114  18.062  0.00  0.00    +0.000 A 
ATOM      9  C   UNL     1       1.469   8.865  18.920  0.00  0.00    +0.000 A 
ATOM     10  C   UNL     1       1.303   8.452  20.236  0.00  0.00    +0.000 A 
ATOM     11  F   UNL     1       0.579   9.203  21.075  0.00  0.00    +0.000 F 
ATOM     12  C   UNL     1       1.897   7.284  20.703  0.00  0.00    +0.000 A 
ATOM     13  C   UNL     1       2.703   6.532  19.847  0.00  0.00    +0.000 A 
ENDBRANCH   6   7
BRANCH   5  14
ATOM     14  C   UNL     1       3.195   4.007  17.914  0.00  0.00    +0.000 A 
ATOM     15  C   UNL     1       1.852   4.052  17.537  0.00  0.00    +0.000 A 
ATOM     16  C   UNL     1       0.988   3.119  18.083  0.00  0.00    +0.000 A 
ATOM     17  N   UNL     1       1.371   2.165  18.957  0.00  0.00    +0.000 NA
ATOM     18  C   UNL     1       2.675   2.147  19.308  0.00  0.00    +0.000 A 
ATOM     19  C   UNL     1       3.618   3.034  18.818  0.00  0.00    +0.000 A 
ENDBRANCH   5  14
BRANCH   4  20
ATOM     20  C   UNL     1       5.713   3.631  16.055  0.00  0.00    +0.000 C 
BRANCH  20  21
ATOM     21  C   UNL     1       6.159   3.951  14.644  0.00  0.00    +0.000 A 
ATOM     22  C   UNL     1       7.258   4.793  14.412  0.00  0.00    +0.000 A 
ATOM     23  C   UNL     1       7.727   5.009  13.114  0.00  0.00    +0.000 A 
ATOM     24  C   UNL     1       7.100   4.396  12.032  0.00  0.00    +0.000 A 
ATOM     25  C   UNL     1       5.993   3.578  12.244  0.00  0.00    +0.000 A 
ATOM     26  C   UNL     1       5.525   3.357  13.541  0.00  0.00    +0.000 A 
ENDBRANCH  20  21
ENDBRANCH   4  20
TORSDOF 4
ENDMDL
