MODEL 1
REMARK VINA RESULT:      -8.5      0.000      0.000
REMARK  Name = 
REMARK  8 active torsions:
REMARK  status: ('A' for Active; 'I' for Inactive)
REMARK    1  A    between atoms: C_1  and  C_2
REMARK    2  A    between atoms: C_2  and  C_4
REMARK    3  A    between atoms: C_7  and  N_8
REMARK    4  A    between atoms: N_8  and  C_9
REMARK    5  A    between atoms: C_9  and  C_10
REMARK    6  A    between atoms: C_14  and  C_15
REMARK    7  A    between atoms: C_23  and  C_24
REMARK    8  A    between atoms: C_27  and  N_28
REMARK                            x       y       z     vdW  Elec       q    Type
REMARK                         _______ _______ _______ _____ _____    ______ ____
ROOT
ATOM      1  C   UNL     1       0.048  10.085  21.642  0.00  0.00    +0.000 C 
ATOM      2  O   UNL     1       0.398  10.605  22.706  0.00  0.00    +0.000 OA
ATOM      3  N   UNL     1      -0.481  10.814  20.588  0.00  0.00    +0.000 N 
ATOM      4  N   UNL     1      -1.079  10.205  19.520  0.00  0.00    +0.000 NA
ATOM      5  C   UNL     1      -1.666  11.131  18.828  0.00  0.00    +0.000 C 
ATOM      6  C   UNL     1      -1.514  12.530  19.362  0.00  0.00    +0.000 C 
ATOM      7  C   UNL     1      -0.658  12.263  20.600  0.00  0.00    +0.000 C 
ENDROOT
BRANCH   5   8
ATOM      8  C   UNL     1      -2.437  10.838  17.599  0.00  0.00    +0.000 A 
ATOM      9  C   UNL     1      -1.913   9.923  16.671  0.00  0.00    +0.000 A 
ATOM     10  C   UNL     1      -2.610   9.641  15.496  0.00  0.00    +0.000 A 
ATOM     11  C   UNL     1      -3.823  10.272  15.254  0.00  0.00    +0.000 A 
ATOM     12  F   UNL     1      -4.494  10.006  14.126  0.00  0.00    +0.000 F 
ATOM     13  C   UNL     1      -4.356  11.176  16.167  0.00  0.00    +0.000 A 
ATOM     14  C   UNL     1      -3.664  11.459  17.346  0.00  0.00    +0.000 A 
ENDBRANCH   5   8
BRANCH   7  15
ATOM     15  C   UNL     1       0.665  13.010  20.540  0.00  0.00    +0.000 A 
ATOM     16  C   UNL     1       1.521  12.841  19.439  0.00  0.00    +0.000 A 
ATOM     17  C   UNL     1       2.746  13.511  19.377  0.00  0.00    +0.000 A 
ATOM     18  C   UNL     1       3.121  14.361  20.425  0.00  0.00    +0.000 A 
ATOM     19  C   UNL     1       2.281  14.545  21.529  0.00  0.00    +0.000 A 
ATOM     20  C   UNL     1       1.058  13.872  21.581  0.00  0.00    +0.000 A 
BRANCH  18  21
ATOM     21  N   UNL     1       4.408  15.064  20.369  0.00  0.00    +0.000 N 
ATOM     22  O   UNL     1       4.987  15.124  19.275  0.00  0.00    +0.000 OA
ATOM     23  O   UNL     1       4.846  15.549  21.422  0.00  0.00    +0.000 OA
ENDBRANCH  18  21
ENDBRANCH   7  15
BRANCH   1  24
ATOM     24  C   UNL     1       0.138   8.566  21.428  0.00  0.00    +0.000 C 
BRANCH  24  25
ATOM     25  N   UNL     1       1.536   8.174  21.197  0.00  0.00    +0.000 N 
ATOM     26  H   UNL     1       2.116   8.997  21.046  0.00  0.00    +0.000 HD
BRANCH  25  30
ATOM     27  C   UNL     1       2.602   5.166  18.421  0.00  0.00    +0.000 A 
ATOM     28  C   UNL     1       2.711   6.520  18.102  0.00  0.00    +0.000 A 
ATOM     29  C   UNL     1       2.335   7.494  19.034  0.00  0.00    +0.000 A 
ATOM     30  C   UNL     1       1.810   7.149  20.287  0.00  0.00    +0.000 A 
ATOM     31  C   UNL     1       1.732   5.788  20.604  0.00  0.00    +0.000 A 
ATOM     32  C   UNL     1       2.113   4.804  19.681  0.00  0.00    +0.000 A 
BRANCH  27  34
ATOM     33  C   UNL     1       4.431   4.103  16.943  0.00  0.00    +0.000 C 
ATOM     34  C   UNL     1       3.019   4.094  17.469  0.00  0.00    +0.000 C 
ATOM     35  O   UNL     1       2.218   3.225  17.131  0.00  0.00    +0.000 OA
ENDBRANCH  27  34
ENDBRANCH  25  30
ENDBRANCH  24  25
ENDBRANCH   1  24
TORSDOF 7
ENDMDL
MODEL 2
REMARK VINA RESULT:      -8.5      0.705      1.374
REMARK  Name = 
REMARK  8 active torsions:
REMARK  status: ('A' for Active; 'I' for Inactive)
REMARK    1  A    between atoms: C_1  and  C_2
REMARK    2  A    between atoms: C_2  and  C_4
REMARK    3  A    between atoms: C_7  and  N_8
REMARK    4  A    between atoms: N_8  and  C_9
REMARK    5  A    between atoms: C_9  and  C_10
REMARK    6  A    between atoms: C_14  and  C_15
REMARK    7  A    between atoms: C_23  and  C_24
REMARK    8  A    between atoms: C_27  and  N_28
REMARK                            x       y       z     vdW  Elec       q    Type
REMARK                         _______ _______ _______ _____ _____    ______ ____
ROOT
ATOM      1  C   UNL     1       0.261   9.958  21.773  0.00  0.00    +0.000 C 
ATOM      2  O   UNL     1       0.572  10.408  22.879  0.00  0.00    +0.000 OA
ATOM      3  N   UNL     1      -0.361  10.722  20.797  0.00  0.00    +0.000 N 
ATOM      4  N   UNL     1      -0.908  10.158  19.680  0.00  0.00    +0.000 NA
ATOM      5  C   UNL     1      -1.603  11.077  19.085  0.00  0.00    +0.000 C 
ATOM      6  C   UNL     1      -1.590  12.427  19.751  0.00  0.00    +0.000 C 
ATOM      7  C   UNL     1      -0.690  12.136  20.951  0.00  0.00    +0.000 C 
ENDROOT
BRANCH   5   8
ATOM      8  C   UNL     1      -2.359  10.822  17.839  0.00  0.00    +0.000 A 
ATOM      9  C   UNL     1      -1.857   9.887  16.919  0.00  0.00    +0.000 A 
ATOM     10  C   UNL     1      -2.540   9.639  15.728  0.00  0.00    +0.000 A 
ATOM     11  C   UNL     1      -3.718  10.324  15.462  0.00  0.00    +0.000 A 
ATOM     12  F   UNL     1      -4.375  10.091  14.319  0.00  0.00    +0.000 F 
ATOM     13  C   UNL     1      -4.229  11.249  16.366  0.00  0.00    +0.000 A 
ATOM     14  C   UNL     1      -3.551  11.498  17.561  0.00  0.00    +0.000 A 
ENDBRANCH   5   8
BRANCH   7  15
ATOM     15  C   UNL     1       0.544  13.024  20.955  0.00  0.00    +0.000 A 
ATOM     16  C   UNL     1       0.631  14.105  21.848  0.00  0.00    +0.000 A 
ATOM     17  C   UNL     1       1.754  14.938  21.854  0.00  0.00    +0.000 A 
ATOM     18  C   UNL     1       2.803  14.689  20.960  0.00  0.00    +0.000 A 
ATOM     19  C   UNL     1       2.736  13.616  20.065  0.00  0.00    +0.000 A 
ATOM     20  C   UNL     1       1.611  12.787  20.067  0.00  0.00    +0.000 A 
BRANCH  18  21
ATOM     21  N   UNL     1       3.982  15.562  20.958  0.00  0.00    +0.000 N 
ATOM     22  O   UNL     1       3.841  16.722  20.543  0.00  0.00    +0.000 OA
ATOM     23  O   UNL     1       5.053  15.087  21.362  0.00  0.00    +0.000 OA
ENDBRANCH  18  21
ENDBRANCH   7  15
BRANCH   1  24
ATOM     24  C   UNL     1       0.509   8.484  21.411  0.00  0.00    +0.000 C 
BRANCH  24  25
ATOM     25  N   UNL     1       1.798   8.347  20.719  0.00  0.00    +0.000 N 
ATOM     26  H   UNL     1       1.980   9.165  20.140  0.00  0.00    +0.000 HD
BRANCH  25  30
ATOM     27  C   UNL     1       2.430   4.666  18.733  0.00  0.00    +0.000 A 
ATOM     28  C   UNL     1       1.829   4.719  19.992  0.00  0.00    +0.000 A 
ATOM     29  C   UNL     1       1.648   5.949  20.633  0.00  0.00    +0.000 A 
ATOM     30  C   UNL     1       2.088   7.149  20.060  0.00  0.00    +0.000 A 
ATOM     31  C   UNL     1       2.664   7.085  18.785  0.00  0.00    +0.000 A 
ATOM     32  C   UNL     1       2.844   5.858  18.131  0.00  0.00    +0.000 A 
BRANCH  27  34
ATOM     33  C   UNL     1       3.539   2.341  18.586  0.00  0.00    +0.000 C 
ATOM     34  C   UNL     1       2.617   3.379  18.001  0.00  0.00    +0.000 C 
ATOM     35  O   UNL     1       2.020   3.179  16.944  0.00  0.00    +0.000 OA
ENDBRANCH  27  34
ENDBRANCH  25  30
ENDBRANCH  24  25
ENDBRANCH   1  24
TORSDOF 7
ENDMDL
MODEL 3
REMARK VINA RESULT:      -8.5      0.380      1.524
REMARK  Name = 
REMARK  8 active torsions:
REMARK  status: ('A' for Active; 'I' for Inactive)
REMARK    1  A    between atoms: C_1  and  C_2
REMARK    2  A    between atoms: C_2  and  C_4
REMARK    3  A    between atoms: C_7  and  N_8
REMARK    4  A    between atoms: N_8  and  C_9
REMARK    5  A    between atoms: C_9  and  C_10
REMARK    6  A    between atoms: C_14  and  C_15
REMARK    7  A    between atoms: C_23  and  C_24
REMARK    8  A    between atoms: C_27  and  N_28
REMARK                            x       y       z     vdW  Elec       q    Type
REMARK                         _______ _______ _______ _____ _____    ______ ____
ROOT
ATOM      1  C   UNL     1       0.109  10.044  21.724  0.00  0.00    +0.000 C 
ATOM      2  O   UNL     1       0.429  10.539  22.808  0.00  0.00    +0.000 OA
ATOM      3  N   UNL     1      -0.443  10.785  20.691  0.00  0.00    +0.000 N 
ATOM      4  N   UNL     1      -1.006  10.190  19.598  0.00  0.00    +0.000 NA
ATOM      5  C   UNL     1      -1.628  11.114  18.934  0.00  0.00    +0.000 C 
ATOM      6  C   UNL     1      -1.540  12.498  19.518  0.00  0.00    +0.000 C 
ATOM      7  C   UNL     1      -0.682  12.224  20.753  0.00  0.00    +0.000 C 
ENDROOT
BRANCH   5   8
ATOM      8  C   UNL     1      -2.377  10.832  17.689  0.00  0.00    +0.000 A 
ATOM      9  C   UNL     1      -3.597  11.491  17.466  0.00  0.00    +0.000 A 
ATOM     10  C   UNL     1      -4.333  11.232  16.309  0.00  0.00    +0.000 A 
ATOM     11  C   UNL     1      -3.847  10.320  15.383  0.00  0.00    +0.000 A 
ATOM     12  F   UNL     1      -4.551  10.066  14.272  0.00  0.00    +0.000 F 
ATOM     13  C   UNL     1      -2.637   9.664  15.587  0.00  0.00    +0.000 A 
ATOM     14  C   UNL     1      -1.897   9.922  16.742  0.00  0.00    +0.000 A 
ENDBRANCH   5   8
BRANCH   7  15
ATOM     15  C   UNL     1       0.607  13.029  20.731  0.00  0.00    +0.000 A 
ATOM     16  C   UNL     1       0.853  13.992  21.724  0.00  0.00    +0.000 A 
ATOM     17  C   UNL     1       2.028  14.749  21.710  0.00  0.00    +0.000 A 
ATOM     18  C   UNL     1       2.969  14.543  20.693  0.00  0.00    +0.000 A 
ATOM     19  C   UNL     1       2.743  13.588  19.696  0.00  0.00    +0.000 A 
ATOM     20  C   UNL     1       1.567  12.834  19.720  0.00  0.00    +0.000 A 
BRANCH  18  21
ATOM     21  N   UNL     1       4.202  15.338  20.668  0.00  0.00    +0.000 N 
ATOM     22  O   UNL     1       5.165  14.934  21.336  0.00  0.00    +0.000 OA
ATOM     23  O   UNL     1       4.206  16.375  19.988  0.00  0.00    +0.000 OA
ENDBRANCH  18  21
ENDBRANCH   7  15
BRANCH   1  24
ATOM     24  C   UNL     1       0.267   8.538  21.458  0.00  0.00    +0.000 C 
BRANCH  24  25
ATOM     25  N   UNL     1       1.685   8.208  21.263  0.00  0.00    +0.000 N 
ATOM     26  H   UNL     1       2.233   9.056  21.125  0.00  0.00    +0.000 HD
BRANCH  25  30
ATOM     27  C   UNL     1       2.485   5.061  18.552  0.00  0.00    +0.000 A 
ATOM     28  C   UNL     1       2.025   4.806  19.845  0.00  0.00    +0.000 A 
ATOM     29  C   UNL     1       1.785   5.867  20.727  0.00  0.00    +0.000 A 
ATOM     30  C   UNL     1       2.028   7.197  20.361  0.00  0.00    +0.000 A 
ATOM     31  C   UNL     1       2.462   7.440  19.052  0.00  0.00    +0.000 A 
ATOM     32  C   UNL     1       2.700   6.386  18.158  0.00  0.00    +0.000 A 
BRANCH  27  34
ATOM     33  C   UNL     1       4.065   3.890  16.882  0.00  0.00    +0.000 C 
ATOM     34  C   UNL     1       2.727   3.963  17.570  0.00  0.00    +0.000 C 
ATOM     35  O   UNL     1       1.844   3.138  17.338  0.00  0.00    +0.000 OA
ENDBRANCH  27  34
ENDBRANCH  25  30
ENDBRANCH  24  25
ENDBRANCH   1  24
TORSDOF 7
ENDMDL
MODEL 4
REMARK VINA RESULT:      -8.5      0.714      1.524
REMARK  Name = 
REMARK  8 active torsions:
REMARK  status: ('A' for Active; 'I' for Inactive)
REMARK    1  A    between atoms: C_1  and  C_2
REMARK    2  A    between atoms: C_2  and  C_4
REMARK    3  A    between atoms: C_7  and  N_8
REMARK    4  A    between atoms: N_8  and  C_9
REMARK    5  A    between atoms: C_9  and  C_10
REMARK    6  A    between atoms: C_14  and  C_15
REMARK    7  A    between atoms: C_23  and  C_24
REMARK    8  A    between atoms: C_27  and  N_28
REMARK                            x       y       z     vdW  Elec       q    Type
REMARK                         _______ _______ _______ _____ _____    ______ ____
ROOT
ATOM      1  C   UNL     1       0.106   9.997  21.867  0.00  0.00    +0.000 C 
ATOM      2  O   UNL     1       0.362  10.463  22.981  0.00  0.00    +0.000 OA
ATOM      3  N   UNL     1      -0.472  10.746  20.853  0.00  0.00    +0.000 N 
ATOM      4  N   UNL     1      -0.963  10.166  19.718  0.00  0.00    +0.000 NA
ATOM      5  C   UNL     1      -1.631  11.074  19.079  0.00  0.00    +0.000 C 
ATOM      6  C   UNL     1      -1.656  12.433  19.727  0.00  0.00    +0.000 C 
ATOM      7  C   UNL     1      -0.813  12.161  20.972  0.00  0.00    +0.000 C 
ENDROOT
BRANCH   5   8
ATOM      8  C   UNL     1      -2.326  10.800  17.801  0.00  0.00    +0.000 A 
ATOM      9  C   UNL     1      -3.521  11.482  17.519  0.00  0.00    +0.000 A 
ATOM     10  C   UNL     1      -4.207  11.231  16.330  0.00  0.00    +0.000 A 
ATOM     11  C   UNL     1      -3.696  10.304  15.431  0.00  0.00    +0.000 A 
ATOM     12  F   UNL     1      -4.353  10.057  14.290  0.00  0.00    +0.000 F 
ATOM     13  C   UNL     1      -2.511   9.625  15.696  0.00  0.00    +0.000 A 
ATOM     14  C   UNL     1      -1.820   9.875  16.883  0.00  0.00    +0.000 A 
ENDBRANCH   5   8
BRANCH   7  15
ATOM     15  C   UNL     1       0.416  13.054  21.024  0.00  0.00    +0.000 A 
ATOM     16  C   UNL     1       1.518  12.785  20.194  0.00  0.00    +0.000 A 
ATOM     17  C   UNL     1       2.660  13.589  20.241  0.00  0.00    +0.000 A 
ATOM     18  C   UNL     1       2.704  14.675  21.124  0.00  0.00    +0.000 A 
ATOM     19  C   UNL     1       1.616  14.961  21.956  0.00  0.00    +0.000 A 
ATOM     20  C   UNL     1       0.478  14.153  21.902  0.00  0.00    +0.000 A 
BRANCH  18  21
ATOM     21  N   UNL     1       3.902  15.520  21.182  0.00  0.00    +0.000 N 
ATOM     22  O   UNL     1       3.933  16.423  22.030  0.00  0.00    +0.000 OA
ATOM     23  O   UNL     1       4.811  15.288  20.371  0.00  0.00    +0.000 OA
ENDBRANCH  18  21
ENDBRANCH   7  15
BRANCH   1  24
ATOM     24  C   UNL     1       0.376   8.520  21.537  0.00  0.00    +0.000 C 
BRANCH  24  25
ATOM     25  N   UNL     1       1.696   8.380  20.907  0.00  0.00    +0.000 N 
ATOM     26  H   UNL     1       1.943   9.231  20.405  0.00  0.00    +0.000 HD
BRANCH  25  30
ATOM     27  C   UNL     1       2.304   4.812  18.718  0.00  0.00    +0.000 A 
ATOM     28  C   UNL     1       1.833   4.787  20.032  0.00  0.00    +0.000 A 
ATOM     29  C   UNL     1       1.657   5.982  20.738  0.00  0.00    +0.000 A 
ATOM     30  C   UNL     1       1.977   7.224  20.173  0.00  0.00    +0.000 A 
ATOM     31  C   UNL     1       2.423   7.237  18.847  0.00  0.00    +0.000 A 
ATOM     32  C   UNL     1       2.596   6.046  18.127  0.00  0.00    +0.000 A 
BRANCH  27  34
ATOM     33  C   UNL     1       1.689   2.341  18.304  0.00  0.00    +0.000 C 
ATOM     34  C   UNL     1       2.479   3.564  17.918  0.00  0.00    +0.000 C 
ATOM     35  O   UNL     1       3.253   3.548  16.962  0.00  0.00    +0.000 OA
ENDBRANCH  27  34
ENDBRANCH  25  30
ENDBRANCH  24  25
ENDBRANCH   1  24
TORSDOF 7
ENDMDL
MODEL 5
REMARK VINA RESULT:      -8.3      0.498      1.032
REMARK  Name = 
REMARK  8 active torsions:
REMARK  status: ('A' for Active; 'I' for Inactive)
REMARK    1  A    between atoms: C_1  and  C_2
REMARK    2  A    between atoms: C_2  and  C_4
REMARK    3  A    between atoms: C_7  and  N_8
REMARK    4  A    between atoms: N_8  and  C_9
REMARK    5  A    between atoms: C_9  and  C_10
REMARK    6  A    between atoms: C_14  and  C_15
REMARK    7  A    between atoms: C_23  and  C_24
REMARK    8  A    between atoms: C_27  and  N_28
REMARK                            x       y       z     vdW  Elec       q    Type
REMARK                         _______ _______ _______ _____ _____    ______ ____
ROOT
ATOM      1  C   UNL     1       0.236  10.043  21.504  0.00  0.00    +0.000 C 
ATOM      2  O   UNL     1       0.598  10.568  22.561  0.00  0.00    +0.000 OA
ATOM      3  N   UNL     1      -0.307  10.765  20.453  0.00  0.00    +0.000 N 
ATOM      4  N   UNL     1      -0.916  10.151  19.395  0.00  0.00    +0.000 NA
ATOM      5  C   UNL     1      -1.513  11.073  18.706  0.00  0.00    +0.000 C 
ATOM      6  C   UNL     1      -1.357  12.475  19.232  0.00  0.00    +0.000 C 
ATOM      7  C   UNL     1      -0.486  12.214  20.460  0.00  0.00    +0.000 C 
ENDROOT
BRANCH   5   8
ATOM      8  C   UNL     1      -2.298  10.773  17.488  0.00  0.00    +0.000 A 
ATOM      9  C   UNL     1      -3.519  11.438  17.286  0.00  0.00    +0.000 A 
ATOM     10  C   UNL     1      -4.288  11.162  16.155  0.00  0.00    +0.000 A 
ATOM     11  C   UNL     1      -3.835  10.229  15.233  0.00  0.00    +0.000 A 
ATOM     12  F   UNL     1      -4.571   9.959  14.147  0.00  0.00    +0.000 F 
ATOM     13  C   UNL     1      -2.625   9.568  15.417  0.00  0.00    +0.000 A 
ATOM     14  C   UNL     1      -1.851   9.841  16.546  0.00  0.00    +0.000 A 
ENDBRANCH   5   8
BRANCH   7  15
ATOM     15  C   UNL     1       0.835  12.964  20.382  0.00  0.00    +0.000 A 
ATOM     16  C   UNL     1       1.673  12.800  19.266  0.00  0.00    +0.000 A 
ATOM     17  C   UNL     1       2.895  13.473  19.186  0.00  0.00    +0.000 A 
ATOM     18  C   UNL     1       3.287  14.319  20.231  0.00  0.00    +0.000 A 
ATOM     19  C   UNL     1       2.466  14.496  21.349  0.00  0.00    +0.000 A 
ATOM     20  C   UNL     1       1.244  13.822  21.420  0.00  0.00    +0.000 A 
BRANCH  18  21
ATOM     21  N   UNL     1       4.572  15.023  20.156  0.00  0.00    +0.000 N 
ATOM     22  O   UNL     1       5.022  15.287  19.032  0.00  0.00    +0.000 OA
ATOM     23  O   UNL     1       5.138  15.306  21.222  0.00  0.00    +0.000 OA
ENDBRANCH  18  21
ENDBRANCH   7  15
BRANCH   1  24
ATOM     24  C   UNL     1       0.327   8.523  21.296  0.00  0.00    +0.000 C 
BRANCH  24  25
ATOM     25  N   UNL     1       1.715   8.138  21.005  0.00  0.00    +0.000 N 
ATOM     26  H   UNL     1       2.266   8.956  20.752  0.00  0.00    +0.000 HD
BRANCH  25  30
ATOM     27  C   UNL     1       2.676   4.928  18.423  0.00  0.00    +0.000 A 
ATOM     28  C   UNL     1       2.818   6.255  18.016  0.00  0.00    +0.000 A 
ATOM     29  C   UNL     1       2.476   7.297  18.885  0.00  0.00    +0.000 A 
ATOM     30  C   UNL     1       1.954   7.049  20.161  0.00  0.00    +0.000 A 
ATOM     31  C   UNL     1       1.843   5.714  20.568  0.00  0.00    +0.000 A 
ATOM     32  C   UNL     1       2.188   4.662  19.707  0.00  0.00    +0.000 A 
BRANCH  27  34
ATOM     33  C   UNL     1       2.401   2.448  17.767  0.00  0.00    +0.000 C 
ATOM     34  C   UNL     1       3.055   3.786  17.540  0.00  0.00    +0.000 C 
ATOM     35  O   UNL     1       3.882   3.948  16.645  0.00  0.00    +0.000 OA
ENDBRANCH  27  34
ENDBRANCH  25  30
ENDBRANCH  24  25
ENDBRANCH   1  24
TORSDOF 7
ENDMDL
MODEL 6
REMARK VINA RESULT:      -8.3      0.677      1.355
REMARK  Name = 
REMARK  8 active torsions:
REMARK  status: ('A' for Active; 'I' for Inactive)
REMARK    1  A    between atoms: C_1  and  C_2
REMARK    2  A    between atoms: C_2  and  C_4
REMARK    3  A    between atoms: C_7  and  N_8
REMARK    4  A    between atoms: N_8  and  C_9
REMARK    5  A    between atoms: C_9  and  C_10
REMARK    6  A    between atoms: C_14  and  C_15
REMARK    7  A    between atoms: C_23  and  C_24
REMARK    8  A    between atoms: C_27  and  N_28
REMARK                            x       y       z     vdW  Elec       q    Type
REMARK                         _______ _______ _______ _____ _____    ______ ____
ROOT
ATOM      1  C   UNL     1       0.105   9.973  21.894  0.00  0.00    +0.000 C 
ATOM      2  O   UNL     1       0.359  10.431  23.012  0.00  0.00    +0.000 OA
ATOM      3  N   UNL     1      -0.481  10.726  20.888  0.00  0.00    +0.000 N 
ATOM      4  N   UNL     1      -0.968  10.150  19.748  0.00  0.00    +0.000 NA
ATOM      5  C   UNL     1      -1.648  11.058  19.119  0.00  0.00    +0.000 C 
ATOM      6  C   UNL     1      -1.685  12.410  19.780  0.00  0.00    +0.000 C 
ATOM      7  C   UNL     1      -0.837  12.135  21.021  0.00  0.00    +0.000 C 
ENDROOT
BRANCH   5   8
ATOM      8  C   UNL     1      -2.342  10.788  17.840  0.00  0.00    +0.000 A 
ATOM      9  C   UNL     1      -3.541  11.464  17.563  0.00  0.00    +0.000 A 
ATOM     10  C   UNL     1      -4.227  11.217  16.373  0.00  0.00    +0.000 A 
ATOM     11  C   UNL     1      -3.711  10.300  15.467  0.00  0.00    +0.000 A 
ATOM     12  F   UNL     1      -4.366  10.057  14.325  0.00  0.00    +0.000 F 
ATOM     13  C   UNL     1      -2.521   9.627  15.726  0.00  0.00    +0.000 A 
ATOM     14  C   UNL     1      -1.830   9.873  16.914  0.00  0.00    +0.000 A 
ENDBRANCH   5   8
BRANCH   7  15
ATOM     15  C   UNL     1       0.383  13.040  21.079  0.00  0.00    +0.000 A 
ATOM     16  C   UNL     1       0.405  14.138  21.956  0.00  0.00    +0.000 A 
ATOM     17  C   UNL     1       1.515  14.986  22.011  0.00  0.00    +0.000 A 
ATOM     18  C   UNL     1       2.615  14.737  21.181  0.00  0.00    +0.000 A 
ATOM     19  C   UNL     1       2.613  13.648  20.303  0.00  0.00    +0.000 A 
ATOM     20  C   UNL     1       1.501  12.804  20.257  0.00  0.00    +0.000 A 
BRANCH  18  21
ATOM     21  N   UNL     1       3.781  15.627  21.230  0.00  0.00    +0.000 N 
ATOM     22  O   UNL     1       3.669  16.754  20.726  0.00  0.00    +0.000 OA
ATOM     23  O   UNL     1       4.814  15.197  21.764  0.00  0.00    +0.000 OA
ENDBRANCH  18  21
ENDBRANCH   7  15
BRANCH   1  24
ATOM     24  C   UNL     1       0.391   8.502  21.550  0.00  0.00    +0.000 C 
BRANCH  24  25
ATOM     25  N   UNL     1       1.695   8.386  20.885  0.00  0.00    +0.000 N 
ATOM     26  H   UNL     1       1.915   9.243  20.380  0.00  0.00    +0.000 HD
BRANCH  25  30
ATOM     27  C   UNL     1       2.783   4.991  18.607  0.00  0.00    +0.000 A 
ATOM     28  C   UNL     1       2.956   6.285  18.111  0.00  0.00    +0.000 A 
ATOM     29  C   UNL     1       2.571   7.389  18.880  0.00  0.00    +0.000 A 
ATOM     30  C   UNL     1       1.976   7.237  20.139  0.00  0.00    +0.000 A 
ATOM     31  C   UNL     1       1.833   5.937  20.635  0.00  0.00    +0.000 A 
ATOM     32  C   UNL     1       2.221   4.823  19.877  0.00  0.00    +0.000 A 
BRANCH  27  34
ATOM     33  C   UNL     1       4.183   3.960  16.700  0.00  0.00    +0.000 C 
ATOM     34  C   UNL     1       3.205   3.787  17.834  0.00  0.00    +0.000 C 
ATOM     35  O   UNL     1       2.760   2.678  18.128  0.00  0.00    +0.000 OA
ENDBRANCH  27  34
ENDBRANCH  25  30
ENDBRANCH  24  25
ENDBRANCH   1  24
TORSDOF 7
ENDMDL
MODEL 7
REMARK VINA RESULT:      -8.2      1.130      1.680
REMARK  Name = 
REMARK  8 active torsions:
REMARK  status: ('A' for Active; 'I' for Inactive)
REMARK    1  A    between atoms: C_1  and  C_2
REMARK    2  A    between atoms: C_2  and  C_4
REMARK    3  A    between atoms: C_7  and  N_8
REMARK    4  A    between atoms: N_8  and  C_9
REMARK    5  A    between atoms: C_9  and  C_10
REMARK    6  A    between atoms: C_14  and  C_15
REMARK    7  A    between atoms: C_23  and  C_24
REMARK    8  A    between atoms: C_27  and  N_28
REMARK                            x       y       z     vdW  Elec       q    Type
REMARK                         _______ _______ _______ _____ _____    ______ ____
ROOT
ATOM      1  C   UNL     1       0.700   9.983  21.148  0.00  0.00    +0.000 C 
ATOM      2  O   UNL     1       1.144  10.498  22.178  0.00  0.00    +0.000 OA
ATOM      3  N   UNL     1       0.066  10.713  20.155  0.00  0.00    +0.000 N 
ATOM      4  N   UNL     1      -0.624  10.106  19.143  0.00  0.00    +0.000 NA
ATOM      5  C   UNL     1      -1.284  11.030  18.518  0.00  0.00    +0.000 C 
ATOM      6  C   UNL     1      -1.096  12.427  19.047  0.00  0.00    +0.000 C 
ATOM      7  C   UNL     1      -0.124  12.160  20.195  0.00  0.00    +0.000 C 
ENDROOT
BRANCH   5   8
ATOM      8  C   UNL     1      -2.165  10.738  17.366  0.00  0.00    +0.000 A 
ATOM      9  C   UNL     1      -3.365  11.455  17.229  0.00  0.00    +0.000 A 
ATOM     10  C   UNL     1      -4.223  11.189  16.162  0.00  0.00    +0.000 A 
ATOM     11  C   UNL     1      -3.879  10.211  15.238  0.00  0.00    +0.000 A 
ATOM     12  F   UNL     1      -4.701   9.949  14.214  0.00  0.00    +0.000 F 
ATOM     13  C   UNL     1      -2.692   9.496  15.358  0.00  0.00    +0.000 A 
ATOM     14  C   UNL     1      -1.829   9.761  16.423  0.00  0.00    +0.000 A 
ENDBRANCH   5   8
BRANCH   7  15
ATOM     15  C   UNL     1       1.179  12.922  20.017  0.00  0.00    +0.000 A 
ATOM     16  C   UNL     1       1.702  13.681  21.077  0.00  0.00    +0.000 A 
ATOM     17  C   UNL     1       2.892  14.398  20.924  0.00  0.00    +0.000 A 
ATOM     18  C   UNL     1       3.569  14.357  19.698  0.00  0.00    +0.000 A 
ATOM     19  C   UNL     1       3.066  13.606  18.631  0.00  0.00    +0.000 A 
ATOM     20  C   UNL     1       1.877  12.890  18.795  0.00  0.00    +0.000 A 
BRANCH  18  21
ATOM     21  N   UNL     1       4.816  15.112  19.528  0.00  0.00    +0.000 N 
ATOM     22  O   UNL     1       5.442  14.964  18.469  0.00  0.00    +0.000 OA
ATOM     23  O   UNL     1       5.175  15.848  20.459  0.00  0.00    +0.000 OA
ENDBRANCH  18  21
ENDBRANCH   7  15
BRANCH   1  24
ATOM     24  C   UNL     1       0.786   8.466  20.914  0.00  0.00    +0.000 C 
BRANCH  24  25
ATOM     25  N   UNL     1       1.800   8.172  19.892  0.00  0.00    +0.000 N 
ATOM     26  H   UNL     1       1.563   8.630  19.013  0.00  0.00    +0.000 HD
BRANCH  25  30
ATOM     27  C   UNL     1       3.302   4.251  19.383  0.00  0.00    +0.000 A 
ATOM     28  C   UNL     1       3.735   5.305  18.577  0.00  0.00    +0.000 A 
ATOM     29  C   UNL     1       3.208   6.589  18.756  0.00  0.00    +0.000 A 
ATOM     30  C   UNL     1       2.217   6.851  19.711  0.00  0.00    +0.000 A 
ATOM     31  C   UNL     1       1.812   5.791  20.532  0.00  0.00    +0.000 A 
ATOM     32  C   UNL     1       2.339   4.502  20.366  0.00  0.00    +0.000 A 
BRANCH  27  34
ATOM     33  C   UNL     1       3.206   1.924  18.274  0.00  0.00    +0.000 C 
ATOM     34  C   UNL     1       3.858   2.873  19.246  0.00  0.00    +0.000 C 
ATOM     35  O   UNL     1       4.831   2.531  19.916  0.00  0.00    +0.000 OA
ENDBRANCH  27  34
ENDBRANCH  25  30
ENDBRANCH  24  25
ENDBRANCH   1  24
TORSDOF 7
ENDMDL
MODEL 8
REMARK VINA RESULT:      -8.2      3.000      7.178
REMARK  Name = 
REMARK  8 active torsions:
REMARK  status: ('A' for Active; 'I' for Inactive)
REMARK    1  A    between atoms: C_1  and  C_2
REMARK    2  A    between atoms: C_2  and  C_4
REMARK    3  A    between atoms: C_7  and  N_8
REMARK    4  A    between atoms: N_8  and  C_9
REMARK    5  A    between atoms: C_9  and  C_10
REMARK    6  A    between atoms: C_14  and  C_15
REMARK    7  A    between atoms: C_23  and  C_24
REMARK    8  A    between atoms: C_27  and  N_28
REMARK                            x       y       z     vdW  Elec       q    Type
REMARK                         _______ _______ _______ _____ _____    ______ ____
ROOT
ATOM      1  C   UNL     1       1.164  12.668  19.226  0.00  0.00    +0.000 C 
ATOM      2  O   UNL     1       2.280  12.468  18.739  0.00  0.00    +0.000 OA
ATOM      3  N   UNL     1       0.051  11.912  18.893  0.00  0.00    +0.000 N 
ATOM      4  N   UNL     1      -1.212  12.290  19.254  0.00  0.00    +0.000 NA
ATOM      5  C   UNL     1      -2.041  11.525  18.615  0.00  0.00    +0.000 C 
ATOM      6  C   UNL     1      -1.407  10.488  17.726  0.00  0.00    +0.000 C 
ATOM      7  C   UNL     1       0.073  10.788  17.962  0.00  0.00    +0.000 C 
ENDROOT
BRANCH   5   8
ATOM      8  C   UNL     1      -3.509  11.657  18.746  0.00  0.00    +0.000 A 
ATOM      9  C   UNL     1      -4.335  11.011  17.811  0.00  0.00    +0.000 A 
ATOM     10  C   UNL     1      -5.722  11.133  17.900  0.00  0.00    +0.000 A 
ATOM     11  C   UNL     1      -6.275  11.895  18.920  0.00  0.00    +0.000 A 
ATOM     12  F   UNL     1      -7.606  12.017  19.007  0.00  0.00    +0.000 F 
ATOM     13  C   UNL     1      -5.470  12.535  19.856  0.00  0.00    +0.000 A 
ATOM     14  C   UNL     1      -4.082  12.415  19.773  0.00  0.00    +0.000 A 
ENDBRANCH   5   8
BRANCH   7  15
ATOM     15  C   UNL     1       0.807   9.582  18.523  0.00  0.00    +0.000 A 
ATOM     16  C   UNL     1       1.617   8.797  17.685  0.00  0.00    +0.000 A 
ATOM     17  C   UNL     1       2.288   7.677  18.184  0.00  0.00    +0.000 A 
ATOM     18  C   UNL     1       2.151   7.336  19.535  0.00  0.00    +0.000 A 
ATOM     19  C   UNL     1       1.351   8.106  20.386  0.00  0.00    +0.000 A 
ATOM     20  C   UNL     1       0.686   9.225  19.879  0.00  0.00    +0.000 A 
BRANCH  18  21
ATOM     21  N   UNL     1       2.848   6.158  20.064  0.00  0.00    +0.000 N 
ATOM     22  O   UNL     1       2.281   5.498  20.946  0.00  0.00    +0.000 OA
ATOM     23  O   UNL     1       3.969   5.897  19.604  0.00  0.00    +0.000 OA
ENDBRANCH  18  21
ENDBRANCH   7  15
BRANCH   1  24
ATOM     24  C   UNL     1       0.921  13.815  20.221  0.00  0.00    +0.000 C 
BRANCH  24  25
ATOM     25  N   UNL     1       0.872  13.288  21.592  0.00  0.00    +0.000 N 
ATOM     26  H   UNL     1       1.448  12.452  21.674  0.00  0.00    +0.000 HD
BRANCH  25  30
ATOM     27  C   UNL     1      -2.992  12.956  23.280  0.00  0.00    +0.000 A 
ATOM     28  C   UNL     1      -2.491  14.185  22.849  0.00  0.00    +0.000 A 
ATOM     29  C   UNL     1      -1.203  14.268  22.310  0.00  0.00    +0.000 A 
ATOM     30  C   UNL     1      -0.370  13.146  22.219  0.00  0.00    +0.000 A 
ATOM     31  C   UNL     1      -0.894  11.915  22.629  0.00  0.00    +0.000 A 
ATOM     32  C   UNL     1      -2.187  11.818  23.164  0.00  0.00    +0.000 A 
BRANCH  27  34
ATOM     33  C   UNL     1      -5.421  13.815  23.423  0.00  0.00    +0.000 C 
ATOM     34  C   UNL     1      -4.371  12.816  23.835  0.00  0.00    +0.000 C 
ATOM     35  O   UNL     1      -4.634  11.896  24.608  0.00  0.00    +0.000 OA
ENDBRANCH  27  34
ENDBRANCH  25  30
ENDBRANCH  24  25
ENDBRANCH   1  24
TORSDOF 7
ENDMDL
MODEL 9
REMARK VINA RESULT:      -8.1      0.899      1.010
REMARK  Name = 
REMARK  8 active torsions:
REMARK  status: ('A' for Active; 'I' for Inactive)
REMARK    1  A    between atoms: C_1  and  C_2
REMARK    2  A    between atoms: C_2  and  C_4
REMARK    3  A    between atoms: C_7  and  N_8
REMARK    4  A    between atoms: N_8  and  C_9
REMARK    5  A    between atoms: C_9  and  C_10
REMARK    6  A    between atoms: C_14  and  C_15
REMARK    7  A    between atoms: C_23  and  C_24
REMARK    8  A    between atoms: C_27  and  N_28
REMARK                            x       y       z     vdW  Elec       q    Type
REMARK                         _______ _______ _______ _____ _____    ______ ____
ROOT
ATOM      1  C   UNL     1       0.327   9.986  21.704  0.00  0.00    +0.000 C 
ATOM      2  O   UNL     1       0.608  10.413  22.828  0.00  0.00    +0.000 OA
ATOM      3  N   UNL     1      -0.351  10.743  20.760  0.00  0.00    +0.000 N 
ATOM      4  N   UNL     1      -0.859  10.186  19.621  0.00  0.00    +0.000 NA
ATOM      5  C   UNL     1      -1.620  11.076  19.063  0.00  0.00    +0.000 C 
ATOM      6  C   UNL     1      -1.703  12.395  19.783  0.00  0.00    +0.000 C 
ATOM      7  C   UNL     1      -0.780  12.122  20.970  0.00  0.00    +0.000 C 
ENDROOT
BRANCH   5   8
ATOM      8  C   UNL     1      -2.359  10.817  17.808  0.00  0.00    +0.000 A 
ATOM      9  C   UNL     1      -1.838   9.887  16.893  0.00  0.00    +0.000 A 
ATOM     10  C   UNL     1      -2.505   9.636  15.693  0.00  0.00    +0.000 A 
ATOM     11  C   UNL     1      -3.686  10.312  15.415  0.00  0.00    +0.000 A 
ATOM     12  F   UNL     1      -4.328  10.076  14.263  0.00  0.00    +0.000 F 
ATOM     13  C   UNL     1      -4.216  11.231  16.314  0.00  0.00    +0.000 A 
ATOM     14  C   UNL     1      -3.554  11.484  17.517  0.00  0.00    +0.000 A 
ENDBRANCH   5   8
BRANCH   7  15
ATOM     15  C   UNL     1       0.387  13.095  21.010  0.00  0.00    +0.000 A 
ATOM     16  C   UNL     1       1.471  12.932  20.131  0.00  0.00    +0.000 A 
ATOM     17  C   UNL     1       2.556  13.812  20.165  0.00  0.00    +0.000 A 
ATOM     18  C   UNL     1       2.562  14.866  21.087  0.00  0.00    +0.000 A 
ATOM     19  C   UNL     1       1.491  15.046  21.969  0.00  0.00    +0.000 A 
ATOM     20  C   UNL     1       0.409  14.164  21.926  0.00  0.00    +0.000 A 
BRANCH  18  21
ATOM     21  N   UNL     1       3.701  15.789  21.132  0.00  0.00    +0.000 N 
ATOM     22  O   UNL     1       4.570  15.593  21.993  0.00  0.00    +0.000 OA
ATOM     23  O   UNL     1       3.724  16.718  20.311  0.00  0.00    +0.000 OA
ENDBRANCH  18  21
ENDBRANCH   7  15
BRANCH   1  24
ATOM     24  C   UNL     1       0.680   8.550  21.284  0.00  0.00    +0.000 C 
BRANCH  24  25
ATOM     25  N   UNL     1       1.513   8.571  20.074  0.00  0.00    +0.000 N 
ATOM     26  H   UNL     1       1.047   9.086  19.329  0.00  0.00    +0.000 HD
BRANCH  25  30
ATOM     27  C   UNL     1       3.466   5.077  18.708  0.00  0.00    +0.000 A 
ATOM     28  C   UNL     1       3.521   6.269  17.984  0.00  0.00    +0.000 A 
ATOM     29  C   UNL     1       2.851   7.406  18.452  0.00  0.00    +0.000 A 
ATOM     30  C   UNL     1       2.084   7.377  19.624  0.00  0.00    +0.000 A 
ATOM     31  C   UNL     1       2.060   6.183  20.354  0.00  0.00    +0.000 A 
ATOM     32  C   UNL     1       2.733   5.040  19.898  0.00  0.00    +0.000 A 
BRANCH  27  34
ATOM     33  C   UNL     1       4.646   3.759  16.829  0.00  0.00    +0.000 C 
ATOM     34  C   UNL     1       4.188   3.849  18.262  0.00  0.00    +0.000 C 
ATOM     35  O   UNL     1       4.404   2.937  19.058  0.00  0.00    +0.000 OA
ENDBRANCH  27  34
ENDBRANCH  25  30
ENDBRANCH  24  25
ENDBRANCH   1  24
TORSDOF 7
ENDMDL
