MODEL 1
REMARK VINA RESULT:      -8.8      0.000      0.000
REMARK  Name = 
REMARK  8 active torsions:
REMARK  status: ('A' for Active; 'I' for Inactive)
REMARK    1  A    between atoms: C_1  and  C_2
REMARK    2  A    between atoms: C_2  and  C_3
REMARK    3  A    between atoms: C_9  and  C_10
REMARK    4  A    between atoms: N_12  and  C_13
REMARK    5  A    between atoms: C_13  and  C_14
REMARK    6  A    between atoms: C_14  and  O_15
REMARK    7  A    between atoms: O_15  and  C_16
REMARK    8  A    between atoms: C_20  and  C_21
REMARK                            x       y       z     vdW  Elec       q    Type
REMARK                         _______ _______ _______ _____ _____    ______ ____
ROOT
ATOM      1  C   UNL     1       2.599   6.319  19.743  0.00  0.00    +0.000 A 
ATOM      2  C   UNL     1       3.860   6.431  19.221  0.00  0.00    +0.000 A 
ATOM      3  N   UNL     1       4.270   5.176  18.837  0.00  0.00    +0.000 N 
ATOM      4  C   UNL     1       3.258   4.261  19.089  0.00  0.00    +0.000 A 
ATOM      5  C   UNL     1       3.182   2.874  18.888  0.00  0.00    +0.000 A 
ATOM      6  C   UNL     1       1.999   2.221  19.262  0.00  0.00    +0.000 A 
ATOM      7  C   UNL     1       0.930   2.916  19.817  0.00  0.00    +0.000 A 
ATOM      8  C   UNL     1       1.016   4.290  20.023  0.00  0.00    +0.000 A 
ATOM      9  C   UNL     1       2.193   4.971  19.654  0.00  0.00    +0.000 A 
ENDROOT
BRANCH   1  16
ATOM     10  C   UNL     1       1.249  12.939  20.547  0.00  0.00    +0.000 C 
ATOM     11  N   UNL     1       0.732  11.875  21.075  0.00  0.00    +0.000 NA
ATOM     12  N   UNL     1       0.959  10.821  20.227  0.00  0.00    +0.000 N 
ATOM     13  C   UNL     1       0.926   9.538  20.718  0.00  0.00    +0.000 C 
ATOM     14  N   UNL     1       0.513   9.270  21.925  0.00  0.00    +0.000 NA
ATOM     15  C   UNL     1       1.469   8.509  19.798  0.00  0.00    +0.000 C 
ATOM     16  C   UNL     1       1.900   7.376  20.366  0.00  0.00    +0.000 C 
ATOM     17  C   UNL     1       1.638   8.904  18.360  0.00  0.00    +0.000 C 
ATOM     18  O   UNL     1       1.475   8.105  17.448  0.00  0.00    +0.000 OA
ATOM     19  N   UNL     1       1.958  10.239  18.132  0.00  0.00    +0.000 NA
ATOM     20  C   UNL     1       1.597  11.085  19.033  0.00  0.00    +0.000 C 
ATOM     21  S   UNL     1       1.971  12.795  18.950  0.00  0.00    +0.000 S 
ATOM     22  H   UNL     1       0.249  10.183  22.331  0.00  0.00    +0.000 HD
BRANCH  10  24
ATOM     23  C   UNL     1       0.113  14.319  22.224  0.00  0.00    +0.000 C 
ATOM     24  C   UNL     1       1.340  14.205  21.328  0.00  0.00    +0.000 C 
ENDBRANCH  10  24
ENDBRANCH   1  16
BRANCH   3  25
ATOM     25  C   UNL     1       5.593   4.843  18.307  0.00  0.00    +0.000 C 
BRANCH  25  26
ATOM     26  C   UNL     1       5.792   5.300  16.862  0.00  0.00    +0.000 C 
BRANCH  26  27
ATOM     27  O   UNL     1       5.127   4.457  15.918  0.00  0.00    +0.000 OA
BRANCH  27  28
ATOM     28  C   UNL     1       5.789   4.380  14.710  0.00  0.00    +0.000 A 
ATOM     29  C   UNL     1       7.006   5.010  14.427  0.00  0.00    +0.000 A 
ATOM     30  C   UNL     1       7.592   4.884  13.166  0.00  0.00    +0.000 A 
ATOM     31  C   UNL     1       6.971   4.123  12.183  0.00  0.00    +0.000 A 
ATOM     32  C   UNL     1       5.758   3.475  12.452  0.00  0.00    +0.000 A 
ATOM     33  C   UNL     1       5.089   2.651  11.395  0.00  0.00    +0.000 C 
ATOM     34  C   UNL     1       5.182   3.596  13.727  0.00  0.00    +0.000 A 
ENDBRANCH  27  28
ENDBRANCH  26  27
ENDBRANCH  25  26
ENDBRANCH   3  25
TORSDOF 6
ENDMDL
MODEL 2
REMARK VINA RESULT:      -8.6      1.177      1.791
REMARK  Name = 
REMARK  8 active torsions:
REMARK  status: ('A' for Active; 'I' for Inactive)
REMARK    1  A    between atoms: C_1  and  C_2
REMARK    2  A    between atoms: C_2  and  C_3
REMARK    3  A    between atoms: C_9  and  C_10
REMARK    4  A    between atoms: N_12  and  C_13
REMARK    5  A    between atoms: C_13  and  C_14
REMARK    6  A    between atoms: C_14  and  O_15
REMARK    7  A    between atoms: O_15  and  C_16
REMARK    8  A    between atoms: C_20  and  C_21
REMARK                            x       y       z     vdW  Elec       q    Type
REMARK                         _______ _______ _______ _____ _____    ______ ____
ROOT
ATOM      1  C   UNL     1       2.620   6.106  19.940  0.00  0.00    +0.000 A 
ATOM      2  C   UNL     1       3.963   6.089  19.672  0.00  0.00    +0.000 A 
ATOM      3  N   UNL     1       4.335   4.782  19.465  0.00  0.00    +0.000 N 
ATOM      4  C   UNL     1       3.222   3.961  19.574  0.00  0.00    +0.000 A 
ATOM      5  C   UNL     1       3.072   2.571  19.458  0.00  0.00    +0.000 A 
ATOM      6  C   UNL     1       1.790   2.031  19.634  0.00  0.00    +0.000 A 
ATOM      7  C   UNL     1       0.695   2.840  19.916  0.00  0.00    +0.000 A 
ATOM      8  C   UNL     1       0.852   4.219  20.039  0.00  0.00    +0.000 A 
ATOM      9  C   UNL     1       2.130   4.786  19.865  0.00  0.00    +0.000 A 
ENDROOT
BRANCH   1  16
ATOM     10  C   UNL     1       1.441  12.802  19.681  0.00  0.00    +0.000 C 
ATOM     11  N   UNL     1       0.837  11.836  20.296  0.00  0.00    +0.000 NA
ATOM     12  N   UNL     1       1.107  10.668  19.629  0.00  0.00    +0.000 N 
ATOM     13  C   UNL     1       0.979   9.468  20.287  0.00  0.00    +0.000 C 
ATOM     14  N   UNL     1       0.442   9.382  21.471  0.00  0.00    +0.000 NA
ATOM     15  C   UNL     1       1.571   8.308  19.578  0.00  0.00    +0.000 C 
ATOM     16  C   UNL     1       1.903   7.256  20.337  0.00  0.00    +0.000 C 
ATOM     17  C   UNL     1       1.893   8.491  18.123  0.00  0.00    +0.000 C 
ATOM     18  O   UNL     1       1.790   7.575  17.318  0.00  0.00    +0.000 OA
ATOM     19  N   UNL     1       2.282   9.773  17.746  0.00  0.00    +0.000 NA
ATOM     20  C   UNL     1       1.866  10.746  18.481  0.00  0.00    +0.000 C 
ATOM     21  S   UNL     1       2.310  12.418  18.201  0.00  0.00    +0.000 S 
ATOM     22  H   UNL     1       0.174  10.349  21.718  0.00  0.00    +0.000 HD
BRANCH  10  24
ATOM     23  C   UNL     1       0.976  15.173  19.272  0.00  0.00    +0.000 C 
ATOM     24  C   UNL     1       1.503  14.163  20.285  0.00  0.00    +0.000 C 
ENDBRANCH  10  24
ENDBRANCH   1  16
BRANCH   3  25
ATOM     25  C   UNL     1       5.703   4.318  19.233  0.00  0.00    +0.000 C 
BRANCH  25  26
ATOM     26  C   UNL     1       6.732   5.449  19.259  0.00  0.00    +0.000 C 
BRANCH  26  27
ATOM     27  O   UNL     1       7.511   5.515  18.062  0.00  0.00    +0.000 OA
BRANCH  27  28
ATOM     28  C   UNL     1       6.740   5.669  16.929  0.00  0.00    +0.000 A 
ATOM     29  C   UNL     1       5.815   6.700  16.728  0.00  0.00    +0.000 A 
ATOM     30  C   UNL     1       5.069   6.763  15.550  0.00  0.00    +0.000 A 
ATOM     31  C   UNL     1       5.247   5.802  14.562  0.00  0.00    +0.000 A 
ATOM     32  C   UNL     1       6.178   4.770  14.739  0.00  0.00    +0.000 A 
ATOM     33  C   UNL     1       6.373   3.736  13.673  0.00  0.00    +0.000 C 
ATOM     34  C   UNL     1       6.934   4.721  15.922  0.00  0.00    +0.000 A 
ENDBRANCH  27  28
ENDBRANCH  26  27
ENDBRANCH  25  26
ENDBRANCH   3  25
TORSDOF 6
ENDMDL
MODEL 3
REMARK VINA RESULT:      -8.5      2.174      3.346
REMARK  Name = 
REMARK  8 active torsions:
REMARK  status: ('A' for Active; 'I' for Inactive)
REMARK    1  A    between atoms: C_1  and  C_2
REMARK    2  A    between atoms: C_2  and  C_3
REMARK    3  A    between atoms: C_9  and  C_10
REMARK    4  A    between atoms: N_12  and  C_13
REMARK    5  A    between atoms: C_13  and  C_14
REMARK    6  A    between atoms: C_14  and  O_15
REMARK    7  A    between atoms: O_15  and  C_16
REMARK    8  A    between atoms: C_20  and  C_21
REMARK                            x       y       z     vdW  Elec       q    Type
REMARK                         _______ _______ _______ _____ _____    ______ ____
ROOT
ATOM      1  C   UNL     1       2.251   6.604  19.430  0.00  0.00    +0.000 A 
ATOM      2  C   UNL     1       3.104   6.702  18.363  0.00  0.00    +0.000 A 
ATOM      3  N   UNL     1       3.377   5.428  17.924  0.00  0.00    +0.000 N 
ATOM      4  C   UNL     1       2.677   4.512  18.696  0.00  0.00    +0.000 A 
ATOM      5  C   UNL     1       2.620   3.110  18.660  0.00  0.00    +0.000 A 
ATOM      6  C   UNL     1       1.808   2.462  19.601  0.00  0.00    +0.000 A 
ATOM      7  C   UNL     1       1.079   3.176  20.546  0.00  0.00    +0.000 A 
ATOM      8  C   UNL     1       1.148   4.566  20.582  0.00  0.00    +0.000 A 
ATOM      9  C   UNL     1       1.955   5.242  19.646  0.00  0.00    +0.000 A 
ENDROOT
BRANCH   1  16
ATOM     10  C   UNL     1       1.799  13.286  20.631  0.00  0.00    +0.000 C 
ATOM     11  N   UNL     1       1.349  12.255  21.271  0.00  0.00    +0.000 NA
ATOM     12  N   UNL     1       1.236  11.214  20.384  0.00  0.00    +0.000 N 
ATOM     13  C   UNL     1       1.218   9.923  20.855  0.00  0.00    +0.000 C 
ATOM     14  N   UNL     1       1.128   9.652  22.126  0.00  0.00    +0.000 NA
ATOM     15  C   UNL     1       1.391   8.882  19.812  0.00  0.00    +0.000 C 
ATOM     16  C   UNL     1       1.852   7.697  20.231  0.00  0.00    +0.000 C 
ATOM     17  C   UNL     1       1.196   9.309  18.387  0.00  0.00    +0.000 C 
ATOM     18  O   UNL     1       0.715   8.559  17.548  0.00  0.00    +0.000 OA
ATOM     19  N   UNL     1       1.565  10.618  18.090  0.00  0.00    +0.000 NA
ATOM     20  C   UNL     1       1.545  11.461  19.064  0.00  0.00    +0.000 C 
ATOM     21  S   UNL     1       2.041  13.134  18.895  0.00  0.00    +0.000 S 
ATOM     22  H   UNL     1       1.072  10.570  22.597  0.00  0.00    +0.000 HD
BRANCH  10  24
ATOM     23  C   UNL     1       3.558  14.983  20.810  0.00  0.00    +0.000 C 
ATOM     24  C   UNL     1       2.219  14.512  21.366  0.00  0.00    +0.000 C 
ENDBRANCH  10  24
ENDBRANCH   1  16
BRANCH   3  25
ATOM     25  C   UNL     1       4.314   5.084  16.854  0.00  0.00    +0.000 C 
BRANCH  25  26
ATOM     26  C   UNL     1       4.890   6.310  16.144  0.00  0.00    +0.000 C 
BRANCH  26  27
ATOM     27  O   UNL     1       6.298   6.209  15.921  0.00  0.00    +0.000 OA
BRANCH  27  28
ATOM     28  C   UNL     1       7.041   6.508  17.043  0.00  0.00    +0.000 A 
ATOM     29  C   UNL     1       7.377   5.591  18.046  0.00  0.00    +0.000 A 
ATOM     30  C   UNL     1       8.122   5.995  19.155  0.00  0.00    +0.000 A 
ATOM     31  C   UNL     1       8.545   7.314  19.266  0.00  0.00    +0.000 A 
ATOM     32  C   UNL     1       8.229   8.244  18.266  0.00  0.00    +0.000 A 
ATOM     33  C   UNL     1       8.687   9.665  18.384  0.00  0.00    +0.000 C 
ATOM     34  C   UNL     1       7.490   7.827  17.148  0.00  0.00    +0.000 A 
ENDBRANCH  27  28
ENDBRANCH  26  27
ENDBRANCH  25  26
ENDBRANCH   3  25
TORSDOF 6
ENDMDL
MODEL 4
REMARK VINA RESULT:      -8.5      0.444      1.289
REMARK  Name = 
REMARK  8 active torsions:
REMARK  status: ('A' for Active; 'I' for Inactive)
REMARK    1  A    between atoms: C_1  and  C_2
REMARK    2  A    between atoms: C_2  and  C_3
REMARK    3  A    between atoms: C_9  and  C_10
REMARK    4  A    between atoms: N_12  and  C_13
REMARK    5  A    between atoms: C_13  and  C_14
REMARK    6  A    between atoms: C_14  and  O_15
REMARK    7  A    between atoms: O_15  and  C_16
REMARK    8  A    between atoms: C_20  and  C_21
REMARK                            x       y       z     vdW  Elec       q    Type
REMARK                         _______ _______ _______ _____ _____    ______ ____
ROOT
ATOM      1  C   UNL     1       2.539   6.390  19.695  0.00  0.00    +0.000 A 
ATOM      2  C   UNL     1       3.741   6.542  19.056  0.00  0.00    +0.000 A 
ATOM      3  N   UNL     1       4.162   5.298  18.648  0.00  0.00    +0.000 N 
ATOM      4  C   UNL     1       3.214   4.350  19.003  0.00  0.00    +0.000 A 
ATOM      5  C   UNL     1       3.172   2.958  18.823  0.00  0.00    +0.000 A 
ATOM      6  C   UNL     1       2.055   2.266  19.312  0.00  0.00    +0.000 A 
ATOM      7  C   UNL     1       1.017   2.928  19.958  0.00  0.00    +0.000 A 
ATOM      8  C   UNL     1       1.068   4.308  20.141  0.00  0.00    +0.000 A 
ATOM      9  C   UNL     1       2.179   5.027  19.657  0.00  0.00    +0.000 A 
ENDROOT
BRANCH   1  16
ATOM     10  C   UNL     1       1.232  12.984  20.741  0.00  0.00    +0.000 C 
ATOM     11  N   UNL     1       0.727  11.906  21.250  0.00  0.00    +0.000 NA
ATOM     12  N   UNL     1       0.927  10.879  20.363  0.00  0.00    +0.000 N 
ATOM     13  C   UNL     1       0.904   9.581  20.815  0.00  0.00    +0.000 C 
ATOM     14  N   UNL     1       0.523   9.277  22.023  0.00  0.00    +0.000 NA
ATOM     15  C   UNL     1       1.418   8.580  19.849  0.00  0.00    +0.000 C 
ATOM     16  C   UNL     1       1.861   7.429  20.369  0.00  0.00    +0.000 C 
ATOM     17  C   UNL     1       1.549   9.019  18.419  0.00  0.00    +0.000 C 
ATOM     18  O   UNL     1       1.358   8.249  17.487  0.00  0.00    +0.000 OA
ATOM     19  N   UNL     1       1.866  10.360  18.224  0.00  0.00    +0.000 NA
ATOM     20  C   UNL     1       1.532  11.178  19.161  0.00  0.00    +0.000 C 
ATOM     21  S   UNL     1       1.910  12.889  19.121  0.00  0.00    +0.000 S 
ATOM     22  H   UNL     1       0.274  10.177  22.465  0.00  0.00    +0.000 HD
BRANCH  10  24
ATOM     23  C   UNL     1       0.695  15.375  20.801  0.00  0.00    +0.000 C 
ATOM     24  C   UNL     1       1.349  14.226  21.558  0.00  0.00    +0.000 C 
ENDBRANCH  10  24
ENDBRANCH   1  16
BRANCH   3  25
ATOM     25  C   UNL     1       5.441   5.008  18.001  0.00  0.00    +0.000 C 
BRANCH  25  26
ATOM     26  C   UNL     1       5.397   5.176  16.482  0.00  0.00    +0.000 C 
BRANCH  26  27
ATOM     27  O   UNL     1       5.352   3.927  15.787  0.00  0.00    +0.000 OA
BRANCH  27  28
ATOM     28  C   UNL     1       5.861   4.007  14.508  0.00  0.00    +0.000 A 
ATOM     29  C   UNL     1       5.353   3.315  13.403  0.00  0.00    +0.000 A 
ATOM     30  C   UNL     1       5.947   3.451  12.147  0.00  0.00    +0.000 A 
ATOM     31  C   UNL     1       7.047   4.285  11.985  0.00  0.00    +0.000 A 
ATOM     32  C   UNL     1       7.562   4.996  13.077  0.00  0.00    +0.000 A 
ATOM     33  C   UNL     1       8.745   5.898  12.902  0.00  0.00    +0.000 C 
ATOM     34  C   UNL     1       6.950   4.864  14.334  0.00  0.00    +0.000 A 
ENDBRANCH  27  28
ENDBRANCH  26  27
ENDBRANCH  25  26
ENDBRANCH   3  25
TORSDOF 6
ENDMDL
MODEL 5
REMARK VINA RESULT:      -8.4      3.916      6.893
REMARK  Name = 
REMARK  8 active torsions:
REMARK  status: ('A' for Active; 'I' for Inactive)
REMARK    1  A    between atoms: C_1  and  C_2
REMARK    2  A    between atoms: C_2  and  C_3
REMARK    3  A    between atoms: C_9  and  C_10
REMARK    4  A    between atoms: N_12  and  C_13
REMARK    5  A    between atoms: C_13  and  C_14
REMARK    6  A    between atoms: C_14  and  O_15
REMARK    7  A    between atoms: O_15  and  C_16
REMARK    8  A    between atoms: C_20  and  C_21
REMARK                            x       y       z     vdW  Elec       q    Type
REMARK                         _______ _______ _______ _____ _____    ______ ____
ROOT
ATOM      1  C   UNL     1       0.296  11.882  19.890  0.00  0.00    +0.000 A 
ATOM      2  C   UNL     1       1.414  11.131  19.642  0.00  0.00    +0.000 A 
ATOM      3  N   UNL     1       1.082  10.177  18.710  0.00  0.00    +0.000 N 
ATOM      4  C   UNL     1      -0.246  10.334  18.340  0.00  0.00    +0.000 A 
ATOM      5  C   UNL     1      -1.056   9.621  17.442  0.00  0.00    +0.000 A 
ATOM      6  C   UNL     1      -2.389  10.030  17.293  0.00  0.00    +0.000 A 
ATOM      7  C   UNL     1      -2.902  11.106  18.009  0.00  0.00    +0.000 A 
ATOM      8  C   UNL     1      -2.096  11.803  18.905  0.00  0.00    +0.000 A 
ATOM      9  C   UNL     1      -0.753  11.413  19.072  0.00  0.00    +0.000 A 
ENDROOT
BRANCH   1  16
ATOM     10  C   UNL     1      -3.160  15.284  24.664  0.00  0.00    +0.000 C 
ATOM     11  N   UNL     1      -1.924  15.334  24.283  0.00  0.00    +0.000 NA
ATOM     12  N   UNL     1      -1.605  14.134  23.701  0.00  0.00    +0.000 N 
ATOM     13  C   UNL     1      -0.542  14.065  22.831  0.00  0.00    +0.000 C 
ATOM     14  N   UNL     1       0.286  15.058  22.672  0.00  0.00    +0.000 NA
ATOM     15  C   UNL     1      -0.469  12.811  22.042  0.00  0.00    +0.000 C 
ATOM     16  C   UNL     1       0.212  12.875  20.891  0.00  0.00    +0.000 C 
ATOM     17  C   UNL     1      -1.298  11.655  22.523  0.00  0.00    +0.000 C 
ATOM     18  O   UNL     1      -0.921  10.497  22.406  0.00  0.00    +0.000 OA
ATOM     19  N   UNL     1      -2.501  11.988  23.137  0.00  0.00    +0.000 NA
ATOM     20  C   UNL     1      -2.572  13.152  23.684  0.00  0.00    +0.000 C 
ATOM     21  S   UNL     1      -4.027  13.769  24.443  0.00  0.00    +0.000 S 
ATOM     22  H   UNL     1      -0.049  15.797  23.312  0.00  0.00    +0.000 HD
BRANCH  10  24
ATOM     23  C   UNL     1      -2.839  17.640  25.257  0.00  0.00    +0.000 C 
ATOM     24  C   UNL     1      -3.855  16.510  25.149  0.00  0.00    +0.000 C 
ENDBRANCH  10  24
ENDBRANCH   1  16
BRANCH   3  25
ATOM     25  C   UNL     1       1.969   9.117  18.231  0.00  0.00    +0.000 C 
BRANCH  25  26
ATOM     26  C   UNL     1       2.031   7.915  19.175  0.00  0.00    +0.000 C 
BRANCH  26  27
ATOM     27  O   UNL     1       2.929   6.900  18.719  0.00  0.00    +0.000 OA
BRANCH  27  28
ATOM     28  C   UNL     1       2.413   5.629  18.856  0.00  0.00    +0.000 A 
ATOM     29  C   UNL     1       1.912   4.854  17.803  0.00  0.00    +0.000 A 
ATOM     30  C   UNL     1       1.396   3.580  18.043  0.00  0.00    +0.000 A 
ATOM     31  C   UNL     1       1.383   3.068  19.335  0.00  0.00    +0.000 A 
ATOM     32  C   UNL     1       1.892   3.823  20.401  0.00  0.00    +0.000 A 
ATOM     33  C   UNL     1       1.882   3.270  21.793  0.00  0.00    +0.000 C 
ATOM     34  C   UNL     1       2.421   5.099  20.147  0.00  0.00    +0.000 A 
ENDBRANCH  27  28
ENDBRANCH  26  27
ENDBRANCH  25  26
ENDBRANCH   3  25
TORSDOF 6
ENDMDL
MODEL 6
REMARK VINA RESULT:      -8.2      4.680     10.431
REMARK  Name = 
REMARK  8 active torsions:
REMARK  status: ('A' for Active; 'I' for Inactive)
REMARK    1  A    between atoms: C_1  and  C_2
REMARK    2  A    between atoms: C_2  and  C_3
REMARK    3  A    between atoms: C_9  and  C_10
REMARK    4  A    between atoms: N_12  and  C_13
REMARK    5  A    between atoms: C_13  and  C_14
REMARK    6  A    between atoms: C_14  and  O_15
REMARK    7  A    between atoms: O_15  and  C_16
REMARK    8  A    between atoms: C_20  and  C_21
REMARK                            x       y       z     vdW  Elec       q    Type
REMARK                         _______ _______ _______ _____ _____    ______ ____
ROOT
ATOM      1  C   UNL     1      -0.086  10.441  19.363  0.00  0.00    +0.000 A 
ATOM      2  C   UNL     1      -1.330  10.304  18.806  0.00  0.00    +0.000 A 
ATOM      3  N   UNL     1      -1.739  11.546  18.377  0.00  0.00    +0.000 N 
ATOM      4  C   UNL     1      -0.743  12.476  18.637  0.00  0.00    +0.000 A 
ATOM      5  C   UNL     1      -0.672  13.858  18.404  0.00  0.00    +0.000 A 
ATOM      6  C   UNL     1       0.493  14.531  18.797  0.00  0.00    +0.000 A 
ATOM      7  C   UNL     1       1.550  13.860  19.402  0.00  0.00    +0.000 A 
ATOM      8  C   UNL     1       1.469  12.490  19.639  0.00  0.00    +0.000 A 
ATOM      9  C   UNL     1       0.310  11.790  19.252  0.00  0.00    +0.000 A 
ENDROOT
BRANCH   1  16
ATOM     10  C   UNL     1       2.689   4.231  19.520  0.00  0.00    +0.000 C 
ATOM     11  N   UNL     1       2.650   5.189  20.391  0.00  0.00    +0.000 NA
ATOM     12  N   UNL     1       2.463   6.371  19.721  0.00  0.00    +0.000 N 
ATOM     13  C   UNL     1       1.947   7.454  20.390  0.00  0.00    +0.000 C 
ATOM     14  N   UNL     1       1.791   7.457  21.684  0.00  0.00    +0.000 NA
ATOM     15  C   UNL     1       1.514   8.573  19.518  0.00  0.00    +0.000 C 
ATOM     16  C   UNL     1       0.602   9.406  20.033  0.00  0.00    +0.000 C 
ATOM     17  C   UNL     1       2.007   8.560  18.100  0.00  0.00    +0.000 C 
ATOM     18  O   UNL     1       2.263   9.593  17.496  0.00  0.00    +0.000 OA
ATOM     19  N   UNL     1       2.188   7.302  17.533  0.00  0.00    +0.000 NA
ATOM     20  C   UNL     1       2.415   6.326  18.343  0.00  0.00    +0.000 C 
ATOM     21  S   UNL     1       2.599   4.664  17.818  0.00  0.00    +0.000 S 
ATOM     22  H   UNL     1       2.133   6.535  22.001  0.00  0.00    +0.000 HD
BRANCH  10  24
ATOM     23  C   UNL     1       1.631   2.637  21.051  0.00  0.00    +0.000 C 
ATOM     24  C   UNL     1       2.679   2.807  19.958  0.00  0.00    +0.000 C 
ENDBRANCH  10  24
ENDBRANCH   1  16
BRANCH   3  25
ATOM     25  C   UNL     1      -3.047  11.853  17.800  0.00  0.00    +0.000 C 
BRANCH  25  26
ATOM     26  C   UNL     1      -3.972  10.638  17.729  0.00  0.00    +0.000 C 
BRANCH  26  27
ATOM     27  O   UNL     1      -5.328  10.990  17.444  0.00  0.00    +0.000 OA
BRANCH  27  28
ATOM     28  C   UNL     1      -6.116  11.044  18.574  0.00  0.00    +0.000 A 
ATOM     29  C   UNL     1      -6.464  12.220  19.249  0.00  0.00    +0.000 A 
ATOM     30  C   UNL     1      -7.256  12.171  20.396  0.00  0.00    +0.000 A 
ATOM     31  C   UNL     1      -7.714  10.948  20.874  0.00  0.00    +0.000 A 
ATOM     32  C   UNL     1      -7.387   9.761  20.205  0.00  0.00    +0.000 A 
ATOM     33  C   UNL     1      -7.883   8.443  20.716  0.00  0.00    +0.000 C 
ATOM     34  C   UNL     1      -6.600   9.821  19.043  0.00  0.00    +0.000 A 
ENDBRANCH  27  28
ENDBRANCH  26  27
ENDBRANCH  25  26
ENDBRANCH   3  25
TORSDOF 6
ENDMDL
MODEL 7
REMARK VINA RESULT:      -8.2      1.001      1.084
REMARK  Name = 
REMARK  8 active torsions:
REMARK  status: ('A' for Active; 'I' for Inactive)
REMARK    1  A    between atoms: C_1  and  C_2
REMARK    2  A    between atoms: C_2  and  C_3
REMARK    3  A    between atoms: C_9  and  C_10
REMARK    4  A    between atoms: N_12  and  C_13
REMARK    5  A    between atoms: C_13  and  C_14
REMARK    6  A    between atoms: C_14  and  O_15
REMARK    7  A    between atoms: O_15  and  C_16
REMARK    8  A    between atoms: C_20  and  C_21
REMARK                            x       y       z     vdW  Elec       q    Type
REMARK                         _______ _______ _______ _____ _____    ______ ____
ROOT
ATOM      1  C   UNL     1       2.292   7.226  19.365  0.00  0.00    +0.000 A 
ATOM      2  C   UNL     1       3.132   7.530  18.327  0.00  0.00    +0.000 A 
ATOM      3  N   UNL     1       3.542   6.348  17.757  0.00  0.00    +0.000 N 
ATOM      4  C   UNL     1       2.942   5.284  18.416  0.00  0.00    +0.000 A 
ATOM      5  C   UNL     1       3.036   3.897  18.227  0.00  0.00    +0.000 A 
ATOM      6  C   UNL     1       2.295   3.067  19.080  0.00  0.00    +0.000 A 
ATOM      7  C   UNL     1       1.491   3.592  20.086  0.00  0.00    +0.000 A 
ATOM      8  C   UNL     1       1.410   4.969  20.274  0.00  0.00    +0.000 A 
ATOM      9  C   UNL     1       2.143   5.825  19.428  0.00  0.00    +0.000 A 
ENDROOT
BRANCH   1  16
ATOM     10  C   UNL     1       0.901  13.640  21.160  0.00  0.00    +0.000 C 
ATOM     11  N   UNL     1       0.647  12.504  21.726  0.00  0.00    +0.000 NA
ATOM     12  N   UNL     1       0.644  11.533  20.758  0.00  0.00    +0.000 N 
ATOM     13  C   UNL     1       0.847  10.221  21.114  0.00  0.00    +0.000 C 
ATOM     14  N   UNL     1       0.867   9.838  22.360  0.00  0.00    +0.000 NA
ATOM     15  C   UNL     1       1.119   9.306  19.979  0.00  0.00    +0.000 C 
ATOM     16  C   UNL     1       1.775   8.177  20.273  0.00  0.00    +0.000 C 
ATOM     17  C   UNL     1       0.786   9.809  18.605  0.00  0.00    +0.000 C 
ATOM     18  O   UNL     1       0.380   9.063  17.724  0.00  0.00    +0.000 OA
ATOM     19  N   UNL     1       0.937  11.179  18.409  0.00  0.00    +0.000 NA
ATOM     20  C   UNL     1       0.842  11.929  19.452  0.00  0.00    +0.000 C 
ATOM     21  S   UNL     1       1.070  13.666  19.410  0.00  0.00    +0.000 S 
ATOM     22  H   UNL     1       0.698  10.696  22.910  0.00  0.00    +0.000 HD
BRANCH  10  24
ATOM     23  C   UNL     1      -0.109  15.245  22.712  0.00  0.00    +0.000 C 
ATOM     24  C   UNL     1       1.170  14.854  21.982  0.00  0.00    +0.000 C 
ENDBRANCH  10  24
ENDBRANCH   1  16
BRANCH   3  25
ATOM     25  C   UNL     1       4.513   6.224  16.670  0.00  0.00    +0.000 C 
BRANCH  25  26
ATOM     26  C   UNL     1       5.810   5.539  17.099  0.00  0.00    +0.000 C 
BRANCH  26  27
ATOM     27  O   UNL     1       5.998   4.267  16.473  0.00  0.00    +0.000 OA
BRANCH  27  28
ATOM     28  C   UNL     1       6.407   4.373  15.160  0.00  0.00    +0.000 A 
ATOM     29  C   UNL     1       7.487   5.147  14.721  0.00  0.00    +0.000 A 
ATOM     30  C   UNL     1       7.815   5.201  13.365  0.00  0.00    +0.000 A 
ATOM     31  C   UNL     1       7.072   4.476  12.441  0.00  0.00    +0.000 A 
ATOM     32  C   UNL     1       5.995   3.686  12.862  0.00  0.00    +0.000 A 
ATOM     33  C   UNL     1       5.197   2.901  11.867  0.00  0.00    +0.000 C 
ATOM     34  C   UNL     1       5.680   3.627  14.230  0.00  0.00    +0.000 A 
ENDBRANCH  27  28
ENDBRANCH  26  27
ENDBRANCH  25  26
ENDBRANCH   3  25
TORSDOF 6
ENDMDL
MODEL 8
REMARK VINA RESULT:      -8.2      0.992      1.520
REMARK  Name = 
REMARK  8 active torsions:
REMARK  status: ('A' for Active; 'I' for Inactive)
REMARK    1  A    between atoms: C_1  and  C_2
REMARK    2  A    between atoms: C_2  and  C_3
REMARK    3  A    between atoms: C_9  and  C_10
REMARK    4  A    between atoms: N_12  and  C_13
REMARK    5  A    between atoms: C_13  and  C_14
REMARK    6  A    between atoms: C_14  and  O_15
REMARK    7  A    between atoms: O_15  and  C_16
REMARK    8  A    between atoms: C_20  and  C_21
REMARK                            x       y       z     vdW  Elec       q    Type
REMARK                         _______ _______ _______ _____ _____    ______ ____
ROOT
ATOM      1  C   UNL     1       2.640   6.247  19.873  0.00  0.00    +0.000 A 
ATOM      2  C   UNL     1       3.970   6.296  19.548  0.00  0.00    +0.000 A 
ATOM      3  N   UNL     1       4.397   5.008  19.326  0.00  0.00    +0.000 N 
ATOM      4  C   UNL     1       3.332   4.134  19.483  0.00  0.00    +0.000 A 
ATOM      5  C   UNL     1       3.246   2.737  19.374  0.00  0.00    +0.000 A 
ATOM      6  C   UNL     1       2.001   2.136  19.605  0.00  0.00    +0.000 A 
ATOM      7  C   UNL     1       0.880   2.890  19.934  0.00  0.00    +0.000 A 
ATOM      8  C   UNL     1       0.974   4.275  20.049  0.00  0.00    +0.000 A 
ATOM      9  C   UNL     1       2.214   4.904  19.820  0.00  0.00    +0.000 A 
ENDROOT
BRANCH   1  16
ATOM     10  C   UNL     1       1.269  12.911  19.827  0.00  0.00    +0.000 C 
ATOM     11  N   UNL     1       0.686  11.907  20.400  0.00  0.00    +0.000 NA
ATOM     12  N   UNL     1       0.998  10.771  19.697  0.00  0.00    +0.000 N 
ATOM     13  C   UNL     1       0.898   9.546  20.312  0.00  0.00    +0.000 C 
ATOM     14  N   UNL     1       0.348   9.404  21.485  0.00  0.00    +0.000 NA
ATOM     15  C   UNL     1       1.532   8.429  19.571  0.00  0.00    +0.000 C 
ATOM     16  C   UNL     1       1.885   7.362  20.299  0.00  0.00    +0.000 C 
ATOM     17  C   UNL     1       1.867   8.672  18.129  0.00  0.00    +0.000 C 
ATOM     18  O   UNL     1       1.801   7.782  17.291  0.00  0.00    +0.000 OA
ATOM     19  N   UNL     1       2.223   9.977  17.801  0.00  0.00    +0.000 NA
ATOM     20  C   UNL     1       1.769  10.911  18.563  0.00  0.00    +0.000 C 
ATOM     21  S   UNL     1       2.167  12.604  18.347  0.00  0.00    +0.000 S 
ATOM     22  H   UNL     1       0.048  10.354  21.761  0.00  0.00    +0.000 HD
BRANCH  10  24
ATOM     23  C   UNL     1       1.852  15.268  19.495  0.00  0.00    +0.000 C 
ATOM     24  C   UNL     1       1.283  14.252  20.478  0.00  0.00    +0.000 C 
ENDBRANCH  10  24
ENDBRANCH   1  16
BRANCH   3  25
ATOM     25  C   UNL     1       5.775   4.612  19.036  0.00  0.00    +0.000 C 
BRANCH  25  26
ATOM     26  C   UNL     1       6.492   5.579  18.094  0.00  0.00    +0.000 C 
BRANCH  26  27
ATOM     27  O   UNL     1       7.435   4.925  17.241  0.00  0.00    +0.000 OA
BRANCH  27  28
ATOM     28  C   UNL     1       6.909   4.605  16.007  0.00  0.00    +0.000 A 
ATOM     29  C   UNL     1       5.764   3.824  15.807  0.00  0.00    +0.000 A 
ATOM     30  C   UNL     1       5.317   3.542  14.515  0.00  0.00    +0.000 A 
ATOM     31  C   UNL     1       6.003   4.044  13.416  0.00  0.00    +0.000 A 
ATOM     32  C   UNL     1       7.143   4.838  13.597  0.00  0.00    +0.000 A 
ATOM     33  C   UNL     1       7.882   5.382  12.413  0.00  0.00    +0.000 C 
ATOM     34  C   UNL     1       7.580   5.128  14.900  0.00  0.00    +0.000 A 
ENDBRANCH  27  28
ENDBRANCH  26  27
ENDBRANCH  25  26
ENDBRANCH   3  25
TORSDOF 6
ENDMDL
MODEL 9
REMARK VINA RESULT:      -8.2      4.427      6.054
REMARK  Name = 
REMARK  8 active torsions:
REMARK  status: ('A' for Active; 'I' for Inactive)
REMARK    1  A    between atoms: C_1  and  C_2
REMARK    2  A    between atoms: C_2  and  C_3
REMARK    3  A    between atoms: C_9  and  C_10
REMARK    4  A    between atoms: N_12  and  C_13
REMARK    5  A    between atoms: C_13  and  C_14
REMARK    6  A    between atoms: C_14  and  O_15
REMARK    7  A    between atoms: O_15  and  C_16
REMARK    8  A    between atoms: C_20  and  C_21
REMARK                            x       y       z     vdW  Elec       q    Type
REMARK                         _______ _______ _______ _____ _____    ______ ____
ROOT
ATOM      1  C   UNL     1       4.716   6.403  18.128  0.00  0.00    +0.000 A 
ATOM      2  C   UNL     1       5.706   7.350  18.168  0.00  0.00    +0.000 A 
ATOM      3  N   UNL     1       6.671   6.989  17.257  0.00  0.00    +0.000 N 
ATOM      4  C   UNL     1       6.286   5.822  16.614  0.00  0.00    +0.000 A 
ATOM      5  C   UNL     1       6.914   5.052  15.622  0.00  0.00    +0.000 A 
ATOM      6  C   UNL     1       6.258   3.897  15.175  0.00  0.00    +0.000 A 
ATOM      7  C   UNL     1       5.025   3.515  15.693  0.00  0.00    +0.000 A 
ATOM      8  C   UNL     1       4.412   4.279  16.683  0.00  0.00    +0.000 A 
ATOM      9  C   UNL     1       5.049   5.446  17.148  0.00  0.00    +0.000 A 
ENDROOT
BRANCH   1  16
ATOM     10  C   UNL     1      -0.023   9.474  21.923  0.00  0.00    +0.000 C 
ATOM     11  N   UNL     1       0.213   8.227  21.668  0.00  0.00    +0.000 NA
ATOM     12  N   UNL     1       0.895   8.154  20.480  0.00  0.00    +0.000 N 
ATOM     13  C   UNL     1       1.646   7.038  20.199  0.00  0.00    +0.000 C 
ATOM     14  N   UNL     1       1.597   5.967  20.939  0.00  0.00    +0.000 NA
ATOM     15  C   UNL     1       2.565   7.186  19.044  0.00  0.00    +0.000 C 
ATOM     16  C   UNL     1       3.620   6.362  19.018  0.00  0.00    +0.000 C 
ATOM     17  C   UNL     1       2.317   8.343  18.120  0.00  0.00    +0.000 C 
ATOM     18  O   UNL     1       2.528   8.267  16.918  0.00  0.00    +0.000 OA
ATOM     19  N   UNL     1       1.801   9.491  18.714  0.00  0.00    +0.000 NA
ATOM     20  C   UNL     1       1.132   9.332  19.803  0.00  0.00    +0.000 C 
ATOM     21  S   UNL     1       0.467  10.665  20.725  0.00  0.00    +0.000 S 
ATOM     22  H   UNL     1       0.914   6.183  21.684  0.00  0.00    +0.000 HD
BRANCH  10  24
ATOM     23  C   UNL     1      -1.327  11.199  23.076  0.00  0.00    +0.000 C 
ATOM     24  C   UNL     1      -0.571   9.887  23.246  0.00  0.00    +0.000 C 
ENDBRANCH  10  24
ENDBRANCH   1  16
BRANCH   3  25
ATOM     25  C   UNL     1       7.939   7.688  17.046  0.00  0.00    +0.000 C 
BRANCH  25  26
ATOM     26  C   UNL     1       8.316   8.609  18.206  0.00  0.00    +0.000 C 
BRANCH  26  27
ATOM     27  O   UNL     1       8.373   9.986  17.824  0.00  0.00    +0.000 OA
BRANCH  27  28
ATOM     28  C   UNL     1       9.295  10.706  18.554  0.00  0.00    +0.000 A 
ATOM     29  C   UNL     1       9.365  10.726  19.951  0.00  0.00    +0.000 A 
ATOM     30  C   UNL     1      10.327  11.501  20.601  0.00  0.00    +0.000 A 
ATOM     31  C   UNL     1      11.231  12.253  19.860  0.00  0.00    +0.000 A 
ATOM     32  C   UNL     1      11.184  12.236  18.460  0.00  0.00    +0.000 A 
ATOM     33  C   UNL     1      12.160  13.044  17.661  0.00  0.00    +0.000 C 
ATOM     34  C   UNL     1      10.221  11.444  17.814  0.00  0.00    +0.000 A 
ENDBRANCH  27  28
ENDBRANCH  26  27
ENDBRANCH  25  26
ENDBRANCH   3  25
TORSDOF 6
ENDMDL
