MODEL 1
REMARK VINA RESULT:      -9.5      0.000      0.000
REMARK  Name = 
REMARK  3 active torsions:
REMARK  status: ('A' for Active; 'I' for Inactive)
REMARK    1  A    between atoms: C_1  and  O_2
REMARK    2  A    between atoms: O_2  and  C_3
REMARK    3  A    between atoms: C_6  and  C_7
REMARK                            x       y       z     vdW  Elec       q    Type
REMARK                         _______ _______ _______ _____ _____    ______ ____
ROOT
ATOM      1  C   UNL     1       2.967   6.603  17.822  0.00  0.00    +0.000 A 
ATOM      2  N   UNL     1       4.233   6.856  17.410  0.00  0.00    +0.000 NA
ATOM      3  C   UNL     1       4.971   5.870  16.891  0.00  0.00    +0.000 A 
ATOM      4  C   UNL     1       6.071   6.218  16.127  0.00  0.00    +0.000 A 
ATOM      5  C   UNL     1       6.799   5.259  15.427  0.00  0.00    +0.000 A 
ATOM      6  C   UNL     1       6.482   3.908  15.572  0.00  0.00    +0.000 A 
ATOM      7  C   UNL     1       5.451   3.512  16.434  0.00  0.00    +0.000 A 
ATOM      8  C   UNL     1       4.663   4.499  17.059  0.00  0.00    +0.000 A 
ATOM      9  C   UNL     1       3.429   4.244  17.719  0.00  0.00    +0.000 A 
ATOM     10  C   UNL     1       2.511   5.293  17.674  0.00  0.00    +0.000 A 
ATOM     11  N   UNL     1       1.314   4.678  17.918  0.00  0.00    +0.000 N 
ATOM     12  C   UNL     1       1.567   3.878  19.009  0.00  0.00    +0.000 A 
ATOM     13  C   UNL     1       0.726   3.581  20.065  0.00  0.00    +0.000 A 
ATOM     14  C   UNL     1       1.352   3.127  21.215  0.00  0.00    +0.000 A 
ATOM     15  C   UNL     1       2.721   2.845  21.221  0.00  0.00    +0.000 A 
ATOM     16  C   UNL     1       3.521   2.990  20.063  0.00  0.00    +0.000 A 
ATOM     17  C   UNL     1       2.936   3.573  18.918  0.00  0.00    +0.000 A 
ATOM     18  H   UNL     1       0.418   5.102  17.763  0.00  0.00    +0.000 HD
ENDROOT
BRANCH   1  22
ATOM     19  C   UNL     1       0.877   9.007  20.704  0.00  0.00    +0.000 A 
ATOM     20  C   UNL     1       1.044   9.468  19.398  0.00  0.00    +0.000 A 
ATOM     21  C   UNL     1       1.765   8.721  18.462  0.00  0.00    +0.000 A 
ATOM     22  C   UNL     1       2.341   7.494  18.810  0.00  0.00    +0.000 A 
ATOM     23  C   UNL     1       2.172   7.049  20.136  0.00  0.00    +0.000 A 
ATOM     24  C   UNL     1       1.452   7.796  21.076  0.00  0.00    +0.000 A 
BRANCH  19  26
ATOM     25  C   UNL     1      -0.005   9.390  22.865  0.00  0.00    +0.000 C 
ATOM     26  O   UNL     1       0.163   9.836  21.524  0.00  0.00    +0.000 OA
ENDBRANCH  19  26
ENDBRANCH   1  22
TORSDOF 2
ENDMDL
MODEL 2
REMARK VINA RESULT:      -9.4      0.354      1.023
REMARK  Name = 
REMARK  3 active torsions:
REMARK  status: ('A' for Active; 'I' for Inactive)
REMARK    1  A    between atoms: C_1  and  O_2
REMARK    2  A    between atoms: O_2  and  C_3
REMARK    3  A    between atoms: C_6  and  C_7
REMARK                            x       y       z     vdW  Elec       q    Type
REMARK                         _______ _______ _______ _____ _____    ______ ____
ROOT
ATOM      1  C   UNL     1       2.923   6.705  18.000  0.00  0.00    +0.000 A 
ATOM      2  N   UNL     1       4.201   7.059  17.719  0.00  0.00    +0.000 NA
ATOM      3  C   UNL     1       5.057   6.141  17.258  0.00  0.00    +0.000 A 
ATOM      4  C   UNL     1       6.197   6.586  16.612  0.00  0.00    +0.000 A 
ATOM      5  C   UNL     1       7.058   5.700  15.970  0.00  0.00    +0.000 A 
ATOM      6  C   UNL     1       6.831   4.326  16.061  0.00  0.00    +0.000 A 
ATOM      7  C   UNL     1       5.754   3.836  16.810  0.00  0.00    +0.000 A 
ATOM      8  C   UNL     1       4.837   4.747  17.371  0.00  0.00    +0.000 A 
ATOM      9  C   UNL     1       3.568   4.388  17.903  0.00  0.00    +0.000 A 
ATOM     10  C   UNL     1       2.583   5.369  17.785  0.00  0.00    +0.000 A 
ATOM     11  N   UNL     1       1.417   4.663  17.900  0.00  0.00    +0.000 N 
ATOM     12  C   UNL     1       1.622   3.857  18.996  0.00  0.00    +0.000 A 
ATOM     13  C   UNL     1       0.707   3.474  19.960  0.00  0.00    +0.000 A 
ATOM     14  C   UNL     1       1.251   3.038  21.158  0.00  0.00    +0.000 A 
ATOM     15  C   UNL     1       2.630   2.857  21.293  0.00  0.00    +0.000 A 
ATOM     16  C   UNL     1       3.525   3.087  20.222  0.00  0.00    +0.000 A 
ATOM     17  C   UNL     1       3.013   3.654  19.035  0.00  0.00    +0.000 A 
ATOM     18  H   UNL     1       0.511   5.024  17.665  0.00  0.00    +0.000 HD
ENDROOT
BRANCH   1  22
ATOM     19  C   UNL     1       0.887   9.303  20.749  0.00  0.00    +0.000 A 
ATOM     20  C   UNL     1       1.373   8.068  21.181  0.00  0.00    +0.000 A 
ATOM     21  C   UNL     1       1.993   7.190  20.288  0.00  0.00    +0.000 A 
ATOM     22  C   UNL     1       2.140   7.523  18.936  0.00  0.00    +0.000 A 
ATOM     23  C   UNL     1       1.634   8.768  18.515  0.00  0.00    +0.000 A 
ATOM     24  C   UNL     1       1.010   9.649  19.407  0.00  0.00    +0.000 A 
BRANCH  19  26
ATOM     25  C   UNL     1       0.095   9.427  22.974  0.00  0.00    +0.000 C 
ATOM     26  O   UNL     1       0.292  10.063  21.716  0.00  0.00    +0.000 OA
ENDBRANCH  19  26
ENDBRANCH   1  22
TORSDOF 2
ENDMDL
MODEL 3
REMARK VINA RESULT:      -8.7      2.647      6.044
REMARK  Name = 
REMARK  3 active torsions:
REMARK  status: ('A' for Active; 'I' for Inactive)
REMARK    1  A    between atoms: C_1  and  O_2
REMARK    2  A    between atoms: O_2  and  C_3
REMARK    3  A    between atoms: C_6  and  C_7
REMARK                            x       y       z     vdW  Elec       q    Type
REMARK                         _______ _______ _______ _____ _____    ______ ____
ROOT
ATOM      1  C   UNL     1       3.792   6.752  18.012  0.00  0.00    +0.000 A 
ATOM      2  N   UNL     1       2.999   7.803  17.693  0.00  0.00    +0.000 NA
ATOM      3  C   UNL     1       2.141   8.286  18.598  0.00  0.00    +0.000 A 
ATOM      4  C   UNL     1       1.650   9.565  18.408  0.00  0.00    +0.000 A 
ATOM      5  C   UNL     1       0.877  10.196  19.379  0.00  0.00    +0.000 A 
ATOM      6  C   UNL     1       0.500   9.495  20.526  0.00  0.00    +0.000 A 
ATOM      7  C   UNL     1       0.878   8.157  20.693  0.00  0.00    +0.000 A 
ATOM      8  C   UNL     1       1.741   7.565  19.749  0.00  0.00    +0.000 A 
ATOM      9  C   UNL     1       2.419   6.329  19.942  0.00  0.00    +0.000 A 
ATOM     10  C   UNL     1       3.652   6.230  19.298  0.00  0.00    +0.000 A 
ATOM     11  N   UNL     1       4.290   5.235  19.986  0.00  0.00    +0.000 N 
ATOM     12  C   UNL     1       3.348   4.236  20.077  0.00  0.00    +0.000 A 
ATOM     13  C   UNL     1       3.542   2.868  20.023  0.00  0.00    +0.000 A 
ATOM     14  C   UNL     1       2.421   2.119  19.704  0.00  0.00    +0.000 A 
ATOM     15  C   UNL     1       1.163   2.720  19.612  0.00  0.00    +0.000 A 
ATOM     16  C   UNL     1       0.971   4.100  19.854  0.00  0.00    +0.000 A 
ATOM     17  C   UNL     1       2.113   4.907  20.051  0.00  0.00    +0.000 A 
ATOM     18  H   UNL     1       5.272   5.038  19.917  0.00  0.00    +0.000 HD
ENDROOT
BRANCH   1  22
ATOM     19  C   UNL     1       5.635   4.203  15.086  0.00  0.00    +0.000 A 
ATOM     20  C   UNL     1       5.845   5.581  15.045  0.00  0.00    +0.000 A 
ATOM     21  C   UNL     1       5.213   6.429  15.959  0.00  0.00    +0.000 A 
ATOM     22  C   UNL     1       4.350   5.920  16.936  0.00  0.00    +0.000 A 
ATOM     23  C   UNL     1       4.141   4.527  16.956  0.00  0.00    +0.000 A 
ATOM     24  C   UNL     1       4.771   3.675  16.041  0.00  0.00    +0.000 A 
BRANCH  19  26
ATOM     25  C   UNL     1       5.778   3.571  12.812  0.00  0.00    +0.000 C 
ATOM     26  O   UNL     1       6.301   3.485  14.132  0.00  0.00    +0.000 OA
ENDBRANCH  19  26
ENDBRANCH   1  22
TORSDOF 2
ENDMDL
MODEL 4
REMARK VINA RESULT:      -8.5      2.875      6.210
REMARK  Name = 
REMARK  3 active torsions:
REMARK  status: ('A' for Active; 'I' for Inactive)
REMARK    1  A    between atoms: C_1  and  O_2
REMARK    2  A    between atoms: O_2  and  C_3
REMARK    3  A    between atoms: C_6  and  C_7
REMARK                            x       y       z     vdW  Elec       q    Type
REMARK                         _______ _______ _______ _____ _____    ______ ____
ROOT
ATOM      1  C   UNL     1       4.571   6.253  17.670  0.00  0.00    +0.000 A 
ATOM      2  N   UNL     1       3.792   7.318  17.362  0.00  0.00    +0.000 NA
ATOM      3  C   UNL     1       2.873   7.743  18.235  0.00  0.00    +0.000 A 
ATOM      4  C   UNL     1       2.386   9.029  18.090  0.00  0.00    +0.000 A 
ATOM      5  C   UNL     1       1.546   9.599  19.043  0.00  0.00    +0.000 A 
ATOM      6  C   UNL     1       1.099   8.830  20.119  0.00  0.00    +0.000 A 
ATOM      7  C   UNL     1       1.475   7.485  20.231  0.00  0.00    +0.000 A 
ATOM      8  C   UNL     1       2.403   6.953  19.312  0.00  0.00    +0.000 A 
ATOM      9  C   UNL     1       3.075   5.711  19.476  0.00  0.00    +0.000 A 
ATOM     10  C   UNL     1       4.349   5.654  18.910  0.00  0.00    +0.000 A 
ATOM     11  N   UNL     1       4.947   4.621  19.579  0.00  0.00    +0.000 N 
ATOM     12  C   UNL     1       4.009   3.616  19.548  0.00  0.00    +0.000 A 
ATOM     13  C   UNL     1       4.217   2.255  19.425  0.00  0.00    +0.000 A 
ATOM     14  C   UNL     1       3.124   1.522  18.989  0.00  0.00    +0.000 A 
ATOM     15  C   UNL     1       1.870   2.123  18.849  0.00  0.00    +0.000 A 
ATOM     16  C   UNL     1       1.653   3.486  19.159  0.00  0.00    +0.000 A 
ATOM     17  C   UNL     1       2.773   4.284  19.479  0.00  0.00    +0.000 A 
ATOM     18  H   UNL     1       5.933   4.432  19.564  0.00  0.00    +0.000 HD
ENDROOT
BRANCH   1  22
ATOM     19  C   UNL     1       6.366   4.275  14.305  0.00  0.00    +0.000 A 
ATOM     20  C   UNL     1       5.120   3.862  14.777  0.00  0.00    +0.000 A 
ATOM     21  C   UNL     1       4.545   4.461  15.901  0.00  0.00    +0.000 A 
ATOM     22  C   UNL     1       5.204   5.489  16.586  0.00  0.00    +0.000 A 
ATOM     23  C   UNL     1       6.467   5.886  16.102  0.00  0.00    +0.000 A 
ATOM     24  C   UNL     1       7.046   5.286  14.978  0.00  0.00    +0.000 A 
BRANCH  19  26
ATOM     25  C   UNL     1       5.842   3.260  12.235  0.00  0.00    +0.000 C 
ATOM     26  O   UNL     1       6.823   3.602  13.207  0.00  0.00    +0.000 OA
ENDBRANCH  19  26
ENDBRANCH   1  22
TORSDOF 2
ENDMDL
MODEL 5
REMARK VINA RESULT:      -8.2      2.718      6.131
REMARK  Name = 
REMARK  3 active torsions:
REMARK  status: ('A' for Active; 'I' for Inactive)
REMARK    1  A    between atoms: C_1  and  O_2
REMARK    2  A    between atoms: O_2  and  C_3
REMARK    3  A    between atoms: C_6  and  C_7
REMARK                            x       y       z     vdW  Elec       q    Type
REMARK                         _______ _______ _______ _____ _____    ______ ____
ROOT
ATOM      1  C   UNL     1       4.031   6.754  17.874  0.00  0.00    +0.000 A 
ATOM      2  N   UNL     1       3.274   7.801  17.465  0.00  0.00    +0.000 NA
ATOM      3  C   UNL     1       2.381   8.341  18.301  0.00  0.00    +0.000 A 
ATOM      4  C   UNL     1       1.925   9.618  18.026  0.00  0.00    +0.000 A 
ATOM      5  C   UNL     1       1.117  10.308  18.924  0.00  0.00    +0.000 A 
ATOM      6  C   UNL     1       0.669   9.670  20.082  0.00  0.00    +0.000 A 
ATOM      7  C   UNL     1       1.012   8.335  20.332  0.00  0.00    +0.000 A 
ATOM      8  C   UNL     1       1.909   7.684  19.463  0.00  0.00    +0.000 A 
ATOM      9  C   UNL     1       2.553   6.448  19.749  0.00  0.00    +0.000 A 
ATOM     10  C   UNL     1       3.815   6.297  19.175  0.00  0.00    +0.000 A 
ATOM     11  N   UNL     1       4.398   5.325  19.942  0.00  0.00    +0.000 N 
ATOM     12  C   UNL     1       3.434   4.348  20.031  0.00  0.00    +0.000 A 
ATOM     13  C   UNL     1       3.604   2.976  20.052  0.00  0.00    +0.000 A 
ATOM     14  C   UNL     1       2.486   2.232  19.712  0.00  0.00    +0.000 A 
ATOM     15  C   UNL     1       1.246   2.848  19.526  0.00  0.00    +0.000 A 
ATOM     16  C   UNL     1       1.069   4.242  19.692  0.00  0.00    +0.000 A 
ATOM     17  C   UNL     1       2.215   5.038  19.909  0.00  0.00    +0.000 A 
ATOM     18  H   UNL     1       5.378   5.109  19.933  0.00  0.00    +0.000 HD
ENDROOT
BRANCH   1  22
ATOM     19  C   UNL     1       5.547   4.255  14.726  0.00  0.00    +0.000 A 
ATOM     20  C   UNL     1       4.839   3.691  15.787  0.00  0.00    +0.000 A 
ATOM     21  C   UNL     1       4.382   4.483  16.844  0.00  0.00    +0.000 A 
ATOM     22  C   UNL     1       4.626   5.862  16.869  0.00  0.00    +0.000 A 
ATOM     23  C   UNL     1       5.352   6.413  15.795  0.00  0.00    +0.000 A 
ATOM     24  C   UNL     1       5.813   5.621  14.735  0.00  0.00    +0.000 A 
BRANCH  19  26
ATOM     25  C   UNL     1       6.837   3.889  12.778  0.00  0.00    +0.000 C 
ATOM     26  O   UNL     1       5.948   3.373  13.762  0.00  0.00    +0.000 OA
ENDBRANCH  19  26
ENDBRANCH   1  22
TORSDOF 2
ENDMDL
MODEL 6
REMARK VINA RESULT:      -7.6      2.871      5.365
REMARK  Name = 
REMARK  3 active torsions:
REMARK  status: ('A' for Active; 'I' for Inactive)
REMARK    1  A    between atoms: C_1  and  O_2
REMARK    2  A    between atoms: O_2  and  C_3
REMARK    3  A    between atoms: C_6  and  C_7
REMARK                            x       y       z     vdW  Elec       q    Type
REMARK                         _______ _______ _______ _____ _____    ______ ____
ROOT
ATOM      1  C   UNL     1       5.205   3.756  16.523  0.00  0.00    +0.000 A 
ATOM      2  N   UNL     1       4.693   3.792  15.268  0.00  0.00    +0.000 NA
ATOM      3  C   UNL     1       5.495   4.060  14.232  0.00  0.00    +0.000 A 
ATOM      4  C   UNL     1       5.061   3.703  12.969  0.00  0.00    +0.000 A 
ATOM      5  C   UNL     1       5.897   3.806  11.860  0.00  0.00    +0.000 A 
ATOM      6  C   UNL     1       7.164   4.375  11.999  0.00  0.00    +0.000 A 
ATOM      7  C   UNL     1       7.588   4.860  13.243  0.00  0.00    +0.000 A 
ATOM      8  C   UNL     1       6.770   4.659  14.373  0.00  0.00    +0.000 A 
ATOM      9  C   UNL     1       7.196   4.842  15.717  0.00  0.00    +0.000 A 
ATOM     10  C   UNL     1       6.571   4.013  16.649  0.00  0.00    +0.000 A 
ATOM     11  N   UNL     1       7.435   4.019  17.709  0.00  0.00    +0.000 N 
ATOM     12  C   UNL     1       7.732   5.350  17.889  0.00  0.00    +0.000 A 
ATOM     13  C   UNL     1       7.947   6.026  19.076  0.00  0.00    +0.000 A 
ATOM     14  C   UNL     1       7.796   7.402  19.014  0.00  0.00    +0.000 A 
ATOM     15  C   UNL     1       7.601   8.045  17.789  0.00  0.00    +0.000 A 
ATOM     16  C   UNL     1       7.567   7.335  16.566  0.00  0.00    +0.000 A 
ATOM     17  C   UNL     1       7.587   5.924  16.614  0.00  0.00    +0.000 A 
ATOM     18  H   UNL     1       7.395   3.372  18.476  0.00  0.00    +0.000 HD
ENDROOT
BRANCH   1  22
ATOM     19  C   UNL     1       2.850   4.420  20.053  0.00  0.00    +0.000 A 
ATOM     20  C   UNL     1       3.060   3.123  19.586  0.00  0.00    +0.000 A 
ATOM     21  C   UNL     1       3.782   2.893  18.411  0.00  0.00    +0.000 A 
ATOM     22  C   UNL     1       4.309   3.957  17.670  0.00  0.00    +0.000 A 
ATOM     23  C   UNL     1       4.077   5.261  18.151  0.00  0.00    +0.000 A 
ATOM     24  C   UNL     1       3.353   5.494  19.326  0.00  0.00    +0.000 A 
BRANCH  19  26
ATOM     25  C   UNL     1       1.649   3.279  21.742  0.00  0.00    +0.000 C 
ATOM     26  O   UNL     1       2.119   4.510  21.205  0.00  0.00    +0.000 OA
ENDBRANCH  19  26
ENDBRANCH   1  22
TORSDOF 2
ENDMDL
MODEL 7
REMARK VINA RESULT:      -7.4      2.453      4.956
REMARK  Name = 
REMARK  3 active torsions:
REMARK  status: ('A' for Active; 'I' for Inactive)
REMARK    1  A    between atoms: C_1  and  O_2
REMARK    2  A    between atoms: O_2  and  C_3
REMARK    3  A    between atoms: C_6  and  C_7
REMARK                            x       y       z     vdW  Elec       q    Type
REMARK                         _______ _______ _______ _____ _____    ______ ____
ROOT
ATOM      1  C   UNL     1       4.950   3.985  16.685  0.00  0.00    +0.000 A 
ATOM      2  N   UNL     1       4.455   3.982  15.424  0.00  0.00    +0.000 NA
ATOM      3  C   UNL     1       5.290   4.073  14.383  0.00  0.00    +0.000 A 
ATOM      4  C   UNL     1       4.827   3.671  13.144  0.00  0.00    +0.000 A 
ATOM      5  C   UNL     1       5.677   3.589  12.044  0.00  0.00    +0.000 A 
ATOM      6  C   UNL     1       7.001   4.015  12.160  0.00  0.00    +0.000 A 
ATOM      7  C   UNL     1       7.470   4.543  13.370  0.00  0.00    +0.000 A 
ATOM      8  C   UNL     1       6.626   4.528  14.498  0.00  0.00    +0.000 A 
ATOM      9  C   UNL     1       7.061   4.764  15.831  0.00  0.00    +0.000 A 
ATOM     10  C   UNL     1       6.335   4.090  16.814  0.00  0.00    +0.000 A 
ATOM     11  N   UNL     1       7.186   4.078  17.884  0.00  0.00    +0.000 N 
ATOM     12  C   UNL     1       7.637   5.375  17.967  0.00  0.00    +0.000 A 
ATOM     13  C   UNL     1       7.921   6.112  19.101  0.00  0.00    +0.000 A 
ATOM     14  C   UNL     1       7.933   7.487  18.931  0.00  0.00    +0.000 A 
ATOM     15  C   UNL     1       7.824   8.051  17.657  0.00  0.00    +0.000 A 
ATOM     16  C   UNL     1       7.716   7.256  16.492  0.00  0.00    +0.000 A 
ATOM     17  C   UNL     1       7.570   5.860  16.649  0.00  0.00    +0.000 A 
ATOM     18  H   UNL     1       7.065   3.502  18.698  0.00  0.00    +0.000 HD
ENDROOT
BRANCH   1  22
ATOM     19  C   UNL     1       2.158   5.188  19.720  0.00  0.00    +0.000 A 
ATOM     20  C   UNL     1       3.219   6.025  19.374  0.00  0.00    +0.000 A 
ATOM     21  C   UNL     1       4.165   5.627  18.425  0.00  0.00    +0.000 A 
ATOM     22  C   UNL     1       4.075   4.378  17.799  0.00  0.00    +0.000 A 
ATOM     23  C   UNL     1       3.003   3.541  18.169  0.00  0.00    +0.000 A 
ATOM     24  C   UNL     1       2.056   3.936  19.121  0.00  0.00    +0.000 A 
BRANCH  19  26
ATOM     25  C   UNL     1       1.400   7.088  20.906  0.00  0.00    +0.000 C 
ATOM     26  O   UNL     1       1.310   5.688  20.669  0.00  0.00    +0.000 OA
ENDBRANCH  19  26
ENDBRANCH   1  22
TORSDOF 2
ENDMDL
MODEL 8
REMARK VINA RESULT:      -7.3      8.080     11.322
REMARK  Name = 
REMARK  3 active torsions:
REMARK  status: ('A' for Active; 'I' for Inactive)
REMARK    1  A    between atoms: C_1  and  O_2
REMARK    2  A    between atoms: O_2  and  C_3
REMARK    3  A    between atoms: C_6  and  C_7
REMARK                            x       y       z     vdW  Elec       q    Type
REMARK                         _______ _______ _______ _____ _____    ______ ____
ROOT
ATOM      1  C   UNL     1      -4.736  12.559  19.745  0.00  0.00    +0.000 A 
ATOM      2  N   UNL     1      -5.876  12.052  20.276  0.00  0.00    +0.000 NA
ATOM      3  C   UNL     1      -6.178  12.297  21.555  0.00  0.00    +0.000 A 
ATOM      4  C   UNL     1      -7.491  12.126  21.955  0.00  0.00    +0.000 A 
ATOM      5  C   UNL     1      -7.917  12.506  23.225  0.00  0.00    +0.000 A 
ATOM      6  C   UNL     1      -6.988  12.975  24.155  0.00  0.00    +0.000 A 
ATOM      7  C   UNL     1      -5.629  13.046  23.822  0.00  0.00    +0.000 A 
ATOM      8  C   UNL     1      -5.229  12.750  22.503  0.00  0.00    +0.000 A 
ATOM      9  C   UNL     1      -3.947  13.051  21.965  0.00  0.00    +0.000 A 
ATOM     10  C   UNL     1      -3.934  13.320  20.596  0.00  0.00    +0.000 A 
ATOM     11  N   UNL     1      -2.770  14.017  20.421  0.00  0.00    +0.000 N 
ATOM     12  C   UNL     1      -1.833  13.278  21.104  0.00  0.00    +0.000 A 
ATOM     13  C   UNL     1      -0.508  13.060  20.773  0.00  0.00    +0.000 A 
ATOM     14  C   UNL     1       0.081  11.956  21.368  0.00  0.00    +0.000 A 
ATOM     15  C   UNL     1      -0.593  11.229  22.353  0.00  0.00    +0.000 A 
ATOM     16  C   UNL     1      -1.886  11.591  22.799  0.00  0.00    +0.000 A 
ATOM     17  C   UNL     1      -2.559  12.630  22.119  0.00  0.00    +0.000 A 
ATOM     18  H   UNL     1      -2.541  14.538  19.594  0.00  0.00    +0.000 HD
ENDROOT
BRANCH   1  22
ATOM     19  C   UNL     1      -3.237  10.450  16.316  0.00  0.00    +0.000 A 
ATOM     20  C   UNL     1      -2.466  10.539  17.476  0.00  0.00    +0.000 A 
ATOM     21  C   UNL     1      -2.918  11.263  18.582  0.00  0.00    +0.000 A 
ATOM     22  C   UNL     1      -4.152  11.923  18.556  0.00  0.00    +0.000 A 
ATOM     23  C   UNL     1      -4.913  11.832  17.373  0.00  0.00    +0.000 A 
ATOM     24  C   UNL     1      -4.462  11.108  16.262  0.00  0.00    +0.000 A 
BRANCH  19  26
ATOM     25  C   UNL     1      -3.202   9.964  14.002  0.00  0.00    +0.000 C 
ATOM     26  O   UNL     1      -2.678   9.723  15.303  0.00  0.00    +0.000 OA
ENDBRANCH  19  26
ENDBRANCH   1  22
TORSDOF 2
ENDMDL
MODEL 9
REMARK VINA RESULT:      -7.1      3.769      7.207
REMARK  Name = 
REMARK  3 active torsions:
REMARK  status: ('A' for Active; 'I' for Inactive)
REMARK    1  A    between atoms: C_1  and  O_2
REMARK    2  A    between atoms: O_2  and  C_3
REMARK    3  A    between atoms: C_6  and  C_7
REMARK                            x       y       z     vdW  Elec       q    Type
REMARK                         _______ _______ _______ _____ _____    ______ ____
ROOT
ATOM      1  C   UNL     1       4.022   4.238  16.482  0.00  0.00    +0.000 A 
ATOM      2  N   UNL     1       3.466   3.150  17.068  0.00  0.00    +0.000 NA
ATOM      3  C   UNL     1       3.036   3.224  18.332  0.00  0.00    +0.000 A 
ATOM      4  C   UNL     1       2.135   2.270  18.766  0.00  0.00    +0.000 A 
ATOM      5  C   UNL     1       1.523   2.365  20.013  0.00  0.00    +0.000 A 
ATOM      6  C   UNL     1       1.896   3.385  20.891  0.00  0.00    +0.000 A 
ATOM      7  C   UNL     1       2.896   4.297  20.530  0.00  0.00    +0.000 A 
ATOM      8  C   UNL     1       3.434   4.246  19.228  0.00  0.00    +0.000 A 
ATOM      9  C   UNL     1       4.233   5.269  18.646  0.00  0.00    +0.000 A 
ATOM     10  C   UNL     1       4.113   5.391  17.262  0.00  0.00    +0.000 A 
ATOM     11  N   UNL     1       4.552   6.663  17.017  0.00  0.00    +0.000 N 
ATOM     12  C   UNL     1       5.723   6.755  17.733  0.00  0.00    +0.000 A 
ATOM     13  C   UNL     1       6.882   7.428  17.395  0.00  0.00    +0.000 A 
ATOM     14  C   UNL     1       8.027   7.011  18.056  0.00  0.00    +0.000 A 
ATOM     15  C   UNL     1       7.953   6.088  19.102  0.00  0.00    +0.000 A 
ATOM     16  C   UNL     1       6.720   5.553  19.545  0.00  0.00    +0.000 A 
ATOM     17  C   UNL     1       5.557   5.860  18.805  0.00  0.00    +0.000 A 
ATOM     18  H   UNL     1       4.416   7.152  16.151  0.00  0.00    +0.000 HD
ENDROOT
BRANCH   1  22
ATOM     19  C   UNL     1       6.655   4.030  13.094  0.00  0.00    +0.000 A 
ATOM     20  C   UNL     1       5.309   3.691  12.956  0.00  0.00    +0.000 A 
ATOM     21  C   UNL     1       4.450   3.705  14.059  0.00  0.00    +0.000 A 
ATOM     22  C   UNL     1       4.918   4.055  15.331  0.00  0.00    +0.000 A 
ATOM     23  C   UNL     1       6.283   4.384  15.454  0.00  0.00    +0.000 A 
ATOM     24  C   UNL     1       7.145   4.369  14.351  0.00  0.00    +0.000 A 
BRANCH  19  26
ATOM     25  C   UNL     1       7.393   2.708  11.277  0.00  0.00    +0.000 C 
ATOM     26  O   UNL     1       7.390   3.965  11.943  0.00  0.00    +0.000 OA
ENDBRANCH  19  26
ENDBRANCH   1  22
TORSDOF 2
ENDMDL
