MODEL 1
REMARK VINA RESULT:      -7.6      0.000      0.000
REMARK  Name = 
REMARK  7 active torsions:
REMARK  status: ('A' for Active; 'I' for Inactive)
REMARK    1  A    between atoms: C_1  and  N_2
REMARK    2  A    between atoms: N_2  and  C_3
REMARK    3  A    between atoms: N_2  and  S_19
REMARK    4  A    between atoms: C_3  and  C_4
REMARK    5  A    between atoms: C_9  and  C_10
REMARK    6  A    between atoms: C_10  and  C_11
REMARK    7  A    between atoms: S_19  and  C_22
REMARK                            x       y       z     vdW  Elec       q    Type
REMARK                         _______ _______ _______ _____ _____    ______ ____
ROOT
ATOM      1  C   UNL     1       4.304   3.725  19.297  0.00  0.00    +0.000 C 
ATOM      2  O   UNL     1       3.877   2.579  19.457  0.00  0.00    +0.000 OA
ATOM      3  N   UNL     1       3.654   4.823  19.855  0.00  0.00    +0.000 N 
ATOM      4  C   UNL     1       2.604   4.589  20.844  0.00  0.00    +0.000 C 
ATOM      5  C   UNL     1       1.281   5.164  20.363  0.00  0.00    +0.000 C 
ATOM      6  C   UNL     1       1.402   6.666  20.049  0.00  0.00    +0.000 C 
ATOM      7  C   UNL     1       2.532   6.862  19.017  0.00  0.00    +0.000 C 
ATOM      8  C   UNL     1       3.854   6.214  19.446  0.00  0.00    +0.000 C 
ENDROOT
BRANCH   1   9
ATOM      9  C   UNL     1       5.589   3.998  18.518  0.00  0.00    +0.000 C 
BRANCH   9  11
ATOM     10  C   UNL     1       4.439   4.027  16.326  0.00  0.00    +0.000 C 
ATOM     11  N   UNL     1       5.366   4.736  17.243  0.00  0.00    +0.000 NA
BRANCH  11  12
ATOM     12  S   UNL     1       6.828   5.222  16.515  0.00  0.00    +0.000 S 
ATOM     13  O   UNL     1       7.799   4.161  16.707  0.00  0.00    +0.000 OA
ATOM     14  O   UNL     1       6.531   5.722  15.188  0.00  0.00    +0.000 OA
BRANCH  12  15
ATOM     15  C   UNL     1       7.489   6.582  17.390  0.00  0.00    +0.000 A 
ATOM     16  C   UNL     1       8.062   6.540  18.647  0.00  0.00    +0.000 A 
ATOM     17  N   UNL     1       8.382   7.835  18.939  0.00  0.00    +0.000 N 
ATOM     18  C   UNL     1       8.003   8.608  17.877  0.00  0.00    +0.000 A 
ATOM     19  N   UNL     1       7.465   7.888  16.920  0.00  0.00    +0.000 NA
ATOM     20  H   UNL     1       8.810   8.170  19.792  0.00  0.00    +0.000 HD
ENDBRANCH  12  15
ENDBRANCH  11  12
ENDBRANCH   9  11
ENDBRANCH   1   9
BRANCH   6  21
ATOM     21  C   UNL     1       1.647   7.546  21.296  0.00  0.00    +0.000 C 
BRANCH  21  22
ATOM     22  C   UNL     1       0.755   8.758  21.422  0.00  0.00    +0.000 A 
ATOM     23  C   UNL     1       0.264   9.146  22.677  0.00  0.00    +0.000 A 
ATOM     24  C   UNL     1      -0.524  10.291  22.809  0.00  0.00    +0.000 A 
ATOM     25  C   UNL     1      -0.829  11.061  21.690  0.00  0.00    +0.000 A 
ATOM     26  C   UNL     1      -0.351  10.683  20.436  0.00  0.00    +0.000 A 
ATOM     27  C   UNL     1       0.439   9.538  20.302  0.00  0.00    +0.000 A 
ENDBRANCH  21  22
ENDBRANCH   6  21
TORSDOF 6
ENDMDL
MODEL 2
REMARK VINA RESULT:      -7.2      3.278      5.206
REMARK  Name = 
REMARK  7 active torsions:
REMARK  status: ('A' for Active; 'I' for Inactive)
REMARK    1  A    between atoms: C_1  and  N_2
REMARK    2  A    between atoms: N_2  and  C_3
REMARK    3  A    between atoms: N_2  and  S_19
REMARK    4  A    between atoms: C_3  and  C_4
REMARK    5  A    between atoms: C_9  and  C_10
REMARK    6  A    between atoms: C_10  and  C_11
REMARK    7  A    between atoms: S_19  and  C_22
REMARK                            x       y       z     vdW  Elec       q    Type
REMARK                         _______ _______ _______ _____ _____    ______ ____
ROOT
ATOM      1  C   UNL     1       2.110   7.947  19.241  0.00  0.00    +0.000 C 
ATOM      2  O   UNL     1       2.448   8.402  18.145  0.00  0.00    +0.000 OA
ATOM      3  N   UNL     1       1.243   8.644  20.077  0.00  0.00    +0.000 N 
ATOM      4  C   UNL     1       0.532   9.803  19.541  0.00  0.00    +0.000 C 
ATOM      5  C   UNL     1       0.887  11.056  20.327  0.00  0.00    +0.000 C 
ATOM      6  C   UNL     1       0.586  10.884  21.827  0.00  0.00    +0.000 C 
ATOM      7  C   UNL     1       1.342   9.641  22.339  0.00  0.00    +0.000 C 
ATOM      8  C   UNL     1       1.063   8.383  21.507  0.00  0.00    +0.000 C 
ENDROOT
BRANCH   1   9
ATOM      9  C   UNL     1       2.591   6.578  19.720  0.00  0.00    +0.000 C 
BRANCH   9  11
ATOM     10  C   UNL     1       1.222   4.612  20.341  0.00  0.00    +0.000 C 
ATOM     11  N   UNL     1       1.750   5.449  19.235  0.00  0.00    +0.000 NA
BRANCH  11  12
ATOM     12  S   UNL     1       2.512   4.564  17.994  0.00  0.00    +0.000 S 
ATOM     13  O   UNL     1       1.481   3.902  17.217  0.00  0.00    +0.000 OA
ATOM     14  O   UNL     1       3.485   5.424  17.353  0.00  0.00    +0.000 OA
BRANCH  12  15
ATOM     15  C   UNL     1       3.435   3.257  18.696  0.00  0.00    +0.000 A 
ATOM     16  C   UNL     1       4.601   3.385  19.426  0.00  0.00    +0.000 A 
ATOM     17  N   UNL     1       4.983   2.107  19.720  0.00  0.00    +0.000 N 
ATOM     18  C   UNL     1       4.060   1.260  19.174  0.00  0.00    +0.000 A 
ATOM     19  N   UNL     1       3.106   1.916  18.553  0.00  0.00    +0.000 NA
ATOM     20  H   UNL     1       5.807   1.830  20.237  0.00  0.00    +0.000 HD
ENDBRANCH  12  15
ENDBRANCH  11  12
ENDBRANCH   9  11
ENDBRANCH   1   9
BRANCH   6  21
ATOM     21  C   UNL     1      -0.922  10.773  22.151  0.00  0.00    +0.000 C 
BRANCH  21  22
ATOM     22  C   UNL     1      -1.538  11.991  22.800  0.00  0.00    +0.000 A 
ATOM     23  C   UNL     1      -2.838  11.930  23.322  0.00  0.00    +0.000 A 
ATOM     24  C   UNL     1      -3.397  13.036  23.964  0.00  0.00    +0.000 A 
ATOM     25  C   UNL     1      -2.665  14.213  24.093  0.00  0.00    +0.000 A 
ATOM     26  C   UNL     1      -1.373  14.287  23.574  0.00  0.00    +0.000 A 
ATOM     27  C   UNL     1      -0.811  13.181  22.932  0.00  0.00    +0.000 A 
ENDBRANCH  21  22
ENDBRANCH   6  21
TORSDOF 6
ENDMDL
MODEL 3
REMARK VINA RESULT:      -7.1      2.336      4.029
REMARK  Name = 
REMARK  7 active torsions:
REMARK  status: ('A' for Active; 'I' for Inactive)
REMARK    1  A    between atoms: C_1  and  N_2
REMARK    2  A    between atoms: N_2  and  C_3
REMARK    3  A    between atoms: N_2  and  S_19
REMARK    4  A    between atoms: C_3  and  C_4
REMARK    5  A    between atoms: C_9  and  C_10
REMARK    6  A    between atoms: C_10  and  C_11
REMARK    7  A    between atoms: S_19  and  C_22
REMARK                            x       y       z     vdW  Elec       q    Type
REMARK                         _______ _______ _______ _____ _____    ______ ____
ROOT
ATOM      1  C   UNL     1       2.757   7.387  18.648  0.00  0.00    +0.000 C 
ATOM      2  O   UNL     1       3.373   7.628  17.607  0.00  0.00    +0.000 OA
ATOM      3  N   UNL     1       1.755   8.236  19.109  0.00  0.00    +0.000 N 
ATOM      4  C   UNL     1       1.262   9.285  18.220  0.00  0.00    +0.000 C 
ATOM      5  C   UNL     1       1.488  10.657  18.836  0.00  0.00    +0.000 C 
ATOM      6  C   UNL     1       0.826  10.767  20.222  0.00  0.00    +0.000 C 
ATOM      7  C   UNL     1       1.365   9.630  21.114  0.00  0.00    +0.000 C 
ATOM      8  C   UNL     1       1.223   8.245  20.473  0.00  0.00    +0.000 C 
ENDROOT
BRANCH   1   9
ATOM      9  C   UNL     1       3.029   6.123  19.463  0.00  0.00    +0.000 C 
BRANCH   9  11
ATOM     10  C   UNL     1       2.484   3.836  18.692  0.00  0.00    +0.000 C 
ATOM     11  N   UNL     1       3.451   4.960  18.635  0.00  0.00    +0.000 NA
BRANCH  11  12
ATOM     12  S   UNL     1       5.065   4.505  18.937  0.00  0.00    +0.000 S 
ATOM     13  O   UNL     1       5.705   5.582  19.669  0.00  0.00    +0.000 OA
ATOM     14  O   UNL     1       5.066   3.153  19.457  0.00  0.00    +0.000 OA
BRANCH  12  15
ATOM     15  C   UNL     1       5.938   4.425  17.426  0.00  0.00    +0.000 A 
ATOM     16  C   UNL     1       7.279   4.707  17.245  0.00  0.00    +0.000 A 
ATOM     17  N   UNL     1       7.499   4.561  15.905  0.00  0.00    +0.000 N 
ATOM     18  C   UNL     1       6.315   4.202  15.325  0.00  0.00    +0.000 A 
ATOM     19  N   UNL     1       5.350   4.104  16.210  0.00  0.00    +0.000 NA
ATOM     20  H   UNL     1       8.376   4.704  15.421  0.00  0.00    +0.000 HD
ENDBRANCH  12  15
ENDBRANCH  11  12
ENDBRANCH   9  11
ENDBRANCH   1   9
BRANCH   6  21
ATOM     21  C   UNL     1      -0.719  10.737  20.178  0.00  0.00    +0.000 C 
BRANCH  21  22
ATOM     22  C   UNL     1      -1.413  11.797  21.001  0.00  0.00    +0.000 A 
ATOM     23  C   UNL     1      -1.180  11.884  22.381  0.00  0.00    +0.000 A 
ATOM     24  C   UNL     1      -1.781  12.888  23.141  0.00  0.00    +0.000 A 
ATOM     25  C   UNL     1      -2.621  13.816  22.532  0.00  0.00    +0.000 A 
ATOM     26  C   UNL     1      -2.865  13.737  21.162  0.00  0.00    +0.000 A 
ATOM     27  C   UNL     1      -2.263  12.733  20.400  0.00  0.00    +0.000 A 
ENDBRANCH  21  22
ENDBRANCH   6  21
TORSDOF 6
ENDMDL
MODEL 4
REMARK VINA RESULT:      -7.1      2.383      4.566
REMARK  Name = 
REMARK  7 active torsions:
REMARK  status: ('A' for Active; 'I' for Inactive)
REMARK    1  A    between atoms: C_1  and  N_2
REMARK    2  A    between atoms: N_2  and  C_3
REMARK    3  A    between atoms: N_2  and  S_19
REMARK    4  A    between atoms: C_3  and  C_4
REMARK    5  A    between atoms: C_9  and  C_10
REMARK    6  A    between atoms: C_10  and  C_11
REMARK    7  A    between atoms: S_19  and  C_22
REMARK                            x       y       z     vdW  Elec       q    Type
REMARK                         _______ _______ _______ _____ _____    ______ ____
ROOT
ATOM      1  C   UNL     1       2.138   6.435  19.554  0.00  0.00    +0.000 C 
ATOM      2  O   UNL     1       1.883   5.604  20.430  0.00  0.00    +0.000 OA
ATOM      3  N   UNL     1       1.889   7.791  19.747  0.00  0.00    +0.000 N 
ATOM      4  C   UNL     1       1.557   8.257  21.092  0.00  0.00    +0.000 C 
ATOM      5  C   UNL     1       0.180   8.904  21.107  0.00  0.00    +0.000 C 
ATOM      6  C   UNL     1       0.090  10.061  20.096  0.00  0.00    +0.000 C 
ATOM      7  C   UNL     1       0.467   9.522  18.700  0.00  0.00    +0.000 C 
ATOM      8  C   UNL     1       1.815   8.792  18.682  0.00  0.00    +0.000 C 
ENDROOT
BRANCH   1   9
ATOM      9  C   UNL     1       2.781   6.027  18.229  0.00  0.00    +0.000 C 
BRANCH   9  11
ATOM     10  C   UNL     1       4.935   6.905  17.385  0.00  0.00    +0.000 C 
ATOM     11  N   UNL     1       4.266   5.938  18.291  0.00  0.00    +0.000 NA
BRANCH  11  12
ATOM     12  S   UNL     1       4.824   4.336  18.133  0.00  0.00    +0.000 S 
ATOM     13  O   UNL     1       5.151   4.111  16.737  0.00  0.00    +0.000 OA
ATOM     14  O   UNL     1       5.804   4.091  19.171  0.00  0.00    +0.000 OA
BRANCH  12  15
ATOM     15  C   UNL     1       3.512   3.229  18.457  0.00  0.00    +0.000 A 
ATOM     16  C   UNL     1       2.632   2.715  17.524  0.00  0.00    +0.000 A 
ATOM     17  N   UNL     1       1.758   1.946  18.240  0.00  0.00    +0.000 N 
ATOM     18  C   UNL     1       2.125   2.014  19.555  0.00  0.00    +0.000 A 
ATOM     19  N   UNL     1       3.182   2.774  19.726  0.00  0.00    +0.000 NA
ATOM     20  H   UNL     1       0.972   1.429  17.871  0.00  0.00    +0.000 HD
ENDBRANCH  12  15
ENDBRANCH  11  12
ENDBRANCH   9  11
ENDBRANCH   1   9
BRANCH   6  21
ATOM     21  C   UNL     1       0.970  11.278  20.463  0.00  0.00    +0.000 C 
BRANCH  21  22
ATOM     22  C   UNL     1       0.305  12.323  21.327  0.00  0.00    +0.000 A 
ATOM     23  C   UNL     1      -0.695  11.953  22.238  0.00  0.00    +0.000 A 
ATOM     24  C   UNL     1      -1.283  12.905  23.073  0.00  0.00    +0.000 A 
ATOM     25  C   UNL     1      -0.878  14.235  23.009  0.00  0.00    +0.000 A 
ATOM     26  C   UNL     1       0.112  14.616  22.104  0.00  0.00    +0.000 A 
ATOM     27  C   UNL     1       0.702  13.665  21.269  0.00  0.00    +0.000 A 
ENDBRANCH  21  22
ENDBRANCH   6  21
TORSDOF 6
ENDMDL
MODEL 5
REMARK VINA RESULT:      -7.1      2.723      4.858
REMARK  Name = 
REMARK  7 active torsions:
REMARK  status: ('A' for Active; 'I' for Inactive)
REMARK    1  A    between atoms: C_1  and  N_2
REMARK    2  A    between atoms: N_2  and  C_3
REMARK    3  A    between atoms: N_2  and  S_19
REMARK    4  A    between atoms: C_3  and  C_4
REMARK    5  A    between atoms: C_9  and  C_10
REMARK    6  A    between atoms: C_10  and  C_11
REMARK    7  A    between atoms: S_19  and  C_22
REMARK                            x       y       z     vdW  Elec       q    Type
REMARK                         _______ _______ _______ _____ _____    ______ ____
ROOT
ATOM      1  C   UNL     1       2.194   6.613  19.386  0.00  0.00    +0.000 C 
ATOM      2  O   UNL     1       1.888   5.976  20.398  0.00  0.00    +0.000 OA
ATOM      3  N   UNL     1       2.008   7.991  19.314  0.00  0.00    +0.000 N 
ATOM      4  C   UNL     1       1.681   8.719  20.538  0.00  0.00    +0.000 C 
ATOM      5  C   UNL     1       0.337   9.417  20.401  0.00  0.00    +0.000 C 
ATOM      6  C   UNL     1       0.316  10.364  19.187  0.00  0.00    +0.000 C 
ATOM      7  C   UNL     1       0.684   9.553  17.927  0.00  0.00    +0.000 C 
ATOM      8  C   UNL     1       1.996   8.773  18.077  0.00  0.00    +0.000 C 
ENDROOT
BRANCH   1   9
ATOM      9  C   UNL     1       2.834   5.932  18.178  0.00  0.00    +0.000 C 
BRANCH   9  11
ATOM     10  C   UNL     1       5.062   6.644  17.370  0.00  0.00    +0.000 C 
ATOM     11  N   UNL     1       4.308   5.766  18.300  0.00  0.00    +0.000 NA
BRANCH  11  12
ATOM     12  S   UNL     1       4.780   4.129  18.247  0.00  0.00    +0.000 S 
ATOM     13  O   UNL     1       5.106   3.800  16.872  0.00  0.00    +0.000 OA
ATOM     14  O   UNL     1       5.737   3.898  19.309  0.00  0.00    +0.000 OA
BRANCH  12  15
ATOM     15  C   UNL     1       3.408   3.117  18.625  0.00  0.00    +0.000 A 
ATOM     16  C   UNL     1       2.618   2.443  17.713  0.00  0.00    +0.000 A 
ATOM     17  N   UNL     1       1.649   1.833  18.457  0.00  0.00    +0.000 N 
ATOM     18  C   UNL     1       1.873   2.146  19.769  0.00  0.00    +0.000 A 
ATOM     19  N   UNL     1       2.929   2.914  19.912  0.00  0.00    +0.000 NA
ATOM     20  H   UNL     1       0.892   1.262  18.106  0.00  0.00    +0.000 HD
ENDBRANCH  12  15
ENDBRANCH  11  12
ENDBRANCH   9  11
ENDBRANCH   1   9
BRANCH   6  21
ATOM     21  C   UNL     1       1.249  11.588  19.336  0.00  0.00    +0.000 C 
BRANCH  21  22
ATOM     22  C   UNL     1       0.567  12.880  19.720  0.00  0.00    +0.000 A 
ATOM     23  C   UNL     1       0.273  13.151  21.064  0.00  0.00    +0.000 A 
ATOM     24  C   UNL     1      -0.315  14.362  21.432  0.00  0.00    +0.000 A 
ATOM     25  C   UNL     1      -0.615  15.316  20.463  0.00  0.00    +0.000 A 
ATOM     26  C   UNL     1      -0.332  15.057  19.123  0.00  0.00    +0.000 A 
ATOM     27  C   UNL     1       0.258  13.846  18.753  0.00  0.00    +0.000 A 
ENDBRANCH  21  22
ENDBRANCH   6  21
TORSDOF 6
ENDMDL
MODEL 6
REMARK VINA RESULT:      -7.1      3.140      7.976
REMARK  Name = 
REMARK  7 active torsions:
REMARK  status: ('A' for Active; 'I' for Inactive)
REMARK    1  A    between atoms: C_1  and  N_2
REMARK    2  A    between atoms: N_2  and  C_3
REMARK    3  A    between atoms: N_2  and  S_19
REMARK    4  A    between atoms: C_3  and  C_4
REMARK    5  A    between atoms: C_9  and  C_10
REMARK    6  A    between atoms: C_10  and  C_11
REMARK    7  A    between atoms: S_19  and  C_22
REMARK                            x       y       z     vdW  Elec       q    Type
REMARK                         _______ _______ _______ _____ _____    ______ ____
ROOT
ATOM      1  C   UNL     1       5.387   4.085  19.009  0.00  0.00    +0.000 C 
ATOM      2  O   UNL     1       5.899   4.855  19.826  0.00  0.00    +0.000 OA
ATOM      3  N   UNL     1       5.755   4.108  17.666  0.00  0.00    +0.000 N 
ATOM      4  C   UNL     1       6.934   4.877  17.275  0.00  0.00    +0.000 C 
ATOM      5  C   UNL     1       6.556   5.963  16.278  0.00  0.00    +0.000 C 
ATOM      6  C   UNL     1       5.860   5.371  15.039  0.00  0.00    +0.000 C 
ATOM      7  C   UNL     1       4.637   4.556  15.506  0.00  0.00    +0.000 C 
ATOM      8  C   UNL     1       4.983   3.512  16.574  0.00  0.00    +0.000 C 
ENDROOT
BRANCH   1   9
ATOM      9  C   UNL     1       4.358   3.039  19.432  0.00  0.00    +0.000 C 
BRANCH   9  11
ATOM     10  C   UNL     1       2.941   2.625  21.418  0.00  0.00    +0.000 C 
ATOM     11  N   UNL     1       3.303   3.574  20.335  0.00  0.00    +0.000 NA
BRANCH  11  12
ATOM     12  S   UNL     1       1.966   4.188  19.474  0.00  0.00    +0.000 S 
ATOM     13  O   UNL     1       1.966   3.583  18.155  0.00  0.00    +0.000 OA
ATOM     14  O   UNL     1       0.798   4.103  20.326  0.00  0.00    +0.000 OA
BRANCH  12  15
ATOM     15  C   UNL     1       2.203   5.892  19.173  0.00  0.00    +0.000 A 
ATOM     16  C   UNL     1       1.936   6.920  20.057  0.00  0.00    +0.000 A 
ATOM     17  N   UNL     1       2.224   8.067  19.373  0.00  0.00    +0.000 N 
ATOM     18  C   UNL     1       2.647   7.711  18.123  0.00  0.00    +0.000 A 
ATOM     19  N   UNL     1       2.654   6.407  17.965  0.00  0.00    +0.000 NA
ATOM     20  H   UNL     1       2.130   9.012  19.719  0.00  0.00    +0.000 HD
ENDBRANCH  12  15
ENDBRANCH  11  12
ENDBRANCH   9  11
ENDBRANCH   1   9
BRANCH   6  21
ATOM     21  C   UNL     1       6.788   4.502  14.160  0.00  0.00    +0.000 C 
BRANCH  21  22
ATOM     22  C   UNL     1       6.101   3.723  13.062  0.00  0.00    +0.000 A 
ATOM     23  C   UNL     1       4.821   4.095  12.628  0.00  0.00    +0.000 A 
ATOM     24  C   UNL     1       4.198   3.410  11.584  0.00  0.00    +0.000 A 
ATOM     25  C   UNL     1       4.846   2.347  10.962  0.00  0.00    +0.000 A 
ATOM     26  C   UNL     1       6.117   1.964  11.388  0.00  0.00    +0.000 A 
ATOM     27  C   UNL     1       6.743   2.649  12.432  0.00  0.00    +0.000 A 
ENDBRANCH  21  22
ENDBRANCH   6  21
TORSDOF 6
ENDMDL
MODEL 7
REMARK VINA RESULT:      -7.1      2.531      3.908
REMARK  Name = 
REMARK  7 active torsions:
REMARK  status: ('A' for Active; 'I' for Inactive)
REMARK    1  A    between atoms: C_1  and  N_2
REMARK    2  A    between atoms: N_2  and  C_3
REMARK    3  A    between atoms: N_2  and  S_19
REMARK    4  A    between atoms: C_3  and  C_4
REMARK    5  A    between atoms: C_9  and  C_10
REMARK    6  A    between atoms: C_10  and  C_11
REMARK    7  A    between atoms: S_19  and  C_22
REMARK                            x       y       z     vdW  Elec       q    Type
REMARK                         _______ _______ _______ _____ _____    ______ ____
ROOT
ATOM      1  C   UNL     1       2.060   6.415  19.748  0.00  0.00    +0.000 C 
ATOM      2  O   UNL     1       1.795   5.555  20.593  0.00  0.00    +0.000 OA
ATOM      3  N   UNL     1       1.836   7.767  19.997  0.00  0.00    +0.000 N 
ATOM      4  C   UNL     1       1.521   8.186  21.361  0.00  0.00    +0.000 C 
ATOM      5  C   UNL     1       0.156   8.855  21.411  0.00  0.00    +0.000 C 
ATOM      6  C   UNL     1       0.081  10.053  20.447  0.00  0.00    +0.000 C 
ATOM      7  C   UNL     1       0.439   9.563  19.028  0.00  0.00    +0.000 C 
ATOM      8  C   UNL     1       1.773   8.810  18.972  0.00  0.00    +0.000 C 
ENDROOT
BRANCH   1   9
ATOM      9  C   UNL     1       2.687   6.049  18.404  0.00  0.00    +0.000 C 
BRANCH   9  11
ATOM     10  C   UNL     1       4.746   7.065  17.480  0.00  0.00    +0.000 C 
ATOM     11  N   UNL     1       4.176   6.066  18.418  0.00  0.00    +0.000 NA
BRANCH  11  12
ATOM     12  S   UNL     1       4.841   4.504  18.260  0.00  0.00    +0.000 S 
ATOM     13  O   UNL     1       5.704   4.267  19.402  0.00  0.00    +0.000 OA
ATOM     14  O   UNL     1       3.769   3.584  17.938  0.00  0.00    +0.000 OA
BRANCH  12  15
ATOM     15  C   UNL     1       5.917   4.468  16.884  0.00  0.00    +0.000 A 
ATOM     16  C   UNL     1       7.283   4.671  16.915  0.00  0.00    +0.000 A 
ATOM     17  N   UNL     1       7.687   4.601  15.611  0.00  0.00    +0.000 N 
ATOM     18  C   UNL     1       6.580   4.362  14.846  0.00  0.00    +0.000 A 
ATOM     19  N   UNL     1       5.493   4.270  15.577  0.00  0.00    +0.000 NA
ATOM     20  H   UNL     1       8.630   4.717  15.267  0.00  0.00    +0.000 HD
ENDBRANCH  12  15
ENDBRANCH  11  12
ENDBRANCH   9  11
ENDBRANCH   1   9
BRANCH   6  21
ATOM     21  C   UNL     1       0.985  11.239  20.855  0.00  0.00    +0.000 C 
BRANCH  21  22
ATOM     22  C   UNL     1       0.725  12.535  20.125  0.00  0.00    +0.000 A 
ATOM     23  C   UNL     1      -0.519  13.173  20.239  0.00  0.00    +0.000 A 
ATOM     24  C   UNL     1      -0.752  14.394  19.605  0.00  0.00    +0.000 A 
ATOM     25  C   UNL     1       0.253  14.992  18.850  0.00  0.00    +0.000 A 
ATOM     26  C   UNL     1       1.492  14.365  18.724  0.00  0.00    +0.000 A 
ATOM     27  C   UNL     1       1.728  13.144  19.360  0.00  0.00    +0.000 A 
ENDBRANCH  21  22
ENDBRANCH   6  21
TORSDOF 6
ENDMDL
MODEL 8
REMARK VINA RESULT:      -7.0      2.330      3.911
REMARK  Name = 
REMARK  7 active torsions:
REMARK  status: ('A' for Active; 'I' for Inactive)
REMARK    1  A    between atoms: C_1  and  N_2
REMARK    2  A    between atoms: N_2  and  C_3
REMARK    3  A    between atoms: N_2  and  S_19
REMARK    4  A    between atoms: C_3  and  C_4
REMARK    5  A    between atoms: C_9  and  C_10
REMARK    6  A    between atoms: C_10  and  C_11
REMARK    7  A    between atoms: S_19  and  C_22
REMARK                            x       y       z     vdW  Elec       q    Type
REMARK                         _______ _______ _______ _____ _____    ______ ____
ROOT
ATOM      1  C   UNL     1       2.444   7.537  18.954  0.00  0.00    +0.000 C 
ATOM      2  O   UNL     1       2.934   8.004  17.922  0.00  0.00    +0.000 OA
ATOM      3  N   UNL     1       1.555   8.276  19.731  0.00  0.00    +0.000 N 
ATOM      4  C   UNL     1       1.008   9.515  19.184  0.00  0.00    +0.000 C 
ATOM      5  C   UNL     1       1.384  10.698  20.063  0.00  0.00    +0.000 C 
ATOM      6  C   UNL     1       0.911  10.492  21.514  0.00  0.00    +0.000 C 
ATOM      7  C   UNL     1       1.500   9.165  22.038  0.00  0.00    +0.000 C 
ATOM      8  C   UNL     1       1.203   7.974  21.119  0.00  0.00    +0.000 C 
ENDROOT
BRANCH   1   9
ATOM      9  C   UNL     1       2.751   6.112  19.410  0.00  0.00    +0.000 C 
BRANCH   9  11
ATOM     10  C   UNL     1       1.666   4.429  17.957  0.00  0.00    +0.000 C 
ATOM     11  N   UNL     1       2.920   5.151  18.286  0.00  0.00    +0.000 NA
BRANCH  11  12
ATOM     12  S   UNL     1       4.271   4.135  18.503  0.00  0.00    +0.000 S 
ATOM     13  O   UNL     1       4.163   3.518  19.812  0.00  0.00    +0.000 OA
ATOM     14  O   UNL     1       4.425   3.323  17.313  0.00  0.00    +0.000 OA
BRANCH  12  15
ATOM     15  C   UNL     1       5.720   5.107  18.597  0.00  0.00    +0.000 A 
ATOM     16  C   UNL     1       6.142   6.030  17.660  0.00  0.00    +0.000 A 
ATOM     17  N   UNL     1       7.336   6.498  18.129  0.00  0.00    +0.000 N 
ATOM     18  C   UNL     1       7.598   5.861  19.310  0.00  0.00    +0.000 A 
ATOM     19  N   UNL     1       6.644   5.017  19.629  0.00  0.00    +0.000 NA
ATOM     20  H   UNL     1       7.931   7.183  17.682  0.00  0.00    +0.000 HD
ENDBRANCH  12  15
ENDBRANCH  11  12
ENDBRANCH   9  11
ENDBRANCH   1   9
BRANCH   6  21
ATOM     21  C   UNL     1      -0.626  10.506  21.676  0.00  0.00    +0.000 C 
BRANCH  21  22
ATOM     22  C   UNL     1      -1.196  11.726  22.360  0.00  0.00    +0.000 A 
ATOM     23  C   UNL     1      -2.370  11.625  23.120  0.00  0.00    +0.000 A 
ATOM     24  C   UNL     1      -2.879  12.738  23.793  0.00  0.00    +0.000 A 
ATOM     25  C   UNL     1      -2.221  13.962  23.714  0.00  0.00    +0.000 A 
ATOM     26  C   UNL     1      -1.056  14.076  22.957  0.00  0.00    +0.000 A 
ATOM     27  C   UNL     1      -0.545  12.964  22.284  0.00  0.00    +0.000 A 
ENDBRANCH  21  22
ENDBRANCH   6  21
TORSDOF 6
ENDMDL
MODEL 9
REMARK VINA RESULT:      -7.0      2.677      5.146
REMARK  Name = 
REMARK  7 active torsions:
REMARK  status: ('A' for Active; 'I' for Inactive)
REMARK    1  A    between atoms: C_1  and  N_2
REMARK    2  A    between atoms: N_2  and  C_3
REMARK    3  A    between atoms: N_2  and  S_19
REMARK    4  A    between atoms: C_3  and  C_4
REMARK    5  A    between atoms: C_9  and  C_10
REMARK    6  A    between atoms: C_10  and  C_11
REMARK    7  A    between atoms: S_19  and  C_22
REMARK                            x       y       z     vdW  Elec       q    Type
REMARK                         _______ _______ _______ _____ _____    ______ ____
ROOT
ATOM      1  C   UNL     1       2.301   6.806  19.683  0.00  0.00    +0.000 C 
ATOM      2  O   UNL     1       1.911   6.219  20.696  0.00  0.00    +0.000 OA
ATOM      3  N   UNL     1       2.006   8.149  19.466  0.00  0.00    +0.000 N 
ATOM      4  C   UNL     1       1.445   8.930  20.567  0.00  0.00    +0.000 C 
ATOM      5  C   UNL     1       0.077   9.479  20.189  0.00  0.00    +0.000 C 
ATOM      6  C   UNL     1       0.146  10.326  18.906  0.00  0.00    +0.000 C 
ATOM      7  C   UNL     1       0.760   9.465  17.783  0.00  0.00    +0.000 C 
ATOM      8  C   UNL     1       2.101   8.833  18.175  0.00  0.00    +0.000 C 
ENDROOT
BRANCH   1   9
ATOM      9  C   UNL     1       3.164   6.105  18.635  0.00  0.00    +0.000 C 
BRANCH   9  11
ATOM     10  C   UNL     1       5.614   5.776  18.752  0.00  0.00    +0.000 C 
ATOM     11  N   UNL     1       4.283   5.315  19.218  0.00  0.00    +0.000 NA
BRANCH  11  12
ATOM     12  S   UNL     1       4.036   3.635  19.063  0.00  0.00    +0.000 S 
ATOM     13  O   UNL     1       3.679   3.360  17.684  0.00  0.00    +0.000 OA
ATOM     14  O   UNL     1       5.149   2.952  19.689  0.00  0.00    +0.000 OA
BRANCH  12  15
ATOM     15  C   UNL     1       2.625   3.168  19.981  0.00  0.00    +0.000 A 
ATOM     16  C   UNL     1       1.334   3.072  19.496  0.00  0.00    +0.000 A 
ATOM     17  N   UNL     1       0.570   2.729  20.575  0.00  0.00    +0.000 N 
ATOM     18  C   UNL     1       1.398   2.628  21.657  0.00  0.00    +0.000 A 
ATOM     19  N   UNL     1       2.647   2.881  21.339  0.00  0.00    +0.000 NA
ATOM     20  H   UNL     1      -0.431   2.586  20.580  0.00  0.00    +0.000 HD
ENDBRANCH  12  15
ENDBRANCH  11  12
ENDBRANCH   9  11
ENDBRANCH   1   9
BRANCH   6  21
ATOM     21  C   UNL     1       0.936  11.645  19.072  0.00  0.00    +0.000 C 
BRANCH  21  22
ATOM     22  C   UNL     1       0.278  12.690  19.943  0.00  0.00    +0.000 A 
ATOM     23  C   UNL     1       0.976  13.247  21.024  0.00  0.00    +0.000 A 
ATOM     24  C   UNL     1       0.394  14.246  21.806  0.00  0.00    +0.000 A 
ATOM     25  C   UNL     1      -0.891  14.699  21.517  0.00  0.00    +0.000 A 
ATOM     26  C   UNL     1      -1.596  14.149  20.448  0.00  0.00    +0.000 A 
ATOM     27  C   UNL     1      -1.014  13.150  19.663  0.00  0.00    +0.000 A 
ENDBRANCH  21  22
ENDBRANCH   6  21
TORSDOF 6
ENDMDL
