MODEL 1
REMARK VINA RESULT:      -7.7      0.000      0.000
REMARK  Name = 
REMARK  16 active torsions:
REMARK  status: ('A' for Active; 'I' for Inactive)
REMARK    1  A    between atoms: N_1  and  CA_2
REMARK    2  A    between atoms: CA_2  and  CB_3
REMARK    3  A    between atoms: CA_2  and  C_11
REMARK    4  A    between atoms: CB_3  and  CG_4
REMARK    5  A    between atoms: CZ_7  and  OH_8
REMARK    6  A    between atoms: N_13  and  CA_14
REMARK    7  A    between atoms: CA_14  and  CB_15
REMARK    8  A    between atoms: CA_14  and  C_22
REMARK    9  A    between atoms: CB_15  and  CG_16
REMARK   10  A    between atoms: N_24  and  CA_25
REMARK   11  A    between atoms: CA_25  and  CB_26
REMARK   12  A    between atoms: CA_25  and  C_31
REMARK   13  A    between atoms: CB_26  and  CG_27
REMARK   14  A    between atoms: CG_27  and  CD_28
REMARK   15  A    between atoms: CD_28  and  OE2_30
REMARK   16  A    between atoms: C_31  and  OXT_33
REMARK                            x       y       z     vdW  Elec       q    Type
REMARK                         _______ _______ _______ _____ _____    ______ ____
ROOT
ATOM      1  CA  PHE A   2       2.656   7.032  18.840  0.00  0.00    +0.000 C 
ENDROOT
BRANCH   1   4
ATOM      2  C   TYR A   1       1.201   8.406  20.341  0.00  0.00    +0.000 C 
ATOM      3  O   TYR A   1       1.594   7.841  21.356  0.00  0.00    +0.000 OA
ATOM      4  N   PHE A   2       1.715   8.139  19.091  0.00  0.00    +0.000 N 
ATOM      5  H   PHE A   2       1.126   8.475  18.329  0.00  0.00    +0.000 HD
BRANCH   2   6
ATOM      6  CA  TYR A   1       0.096   9.491  20.345  0.00  0.00    +0.000 C 
BRANCH   6   7
ATOM      7  N   TYR A   1       0.254  10.392  21.522  0.00  0.00    +0.000 NA
ATOM      8  H1  TYR A   1       1.239  10.679  21.556  0.00  0.00    +0.000 HD
ATOM      9  H2  TYR A   1       0.132   9.863  22.383  0.00  0.00    +0.000 HD
ENDBRANCH   6   7
BRANCH   6  10
ATOM     10  CB  TYR A   1       0.125  10.236  18.997  0.00  0.00    +0.000 C 
BRANCH  10  11
ATOM     11  CG  TYR A   1      -1.227  10.514  18.385  0.00  0.00    +0.000 A 
ATOM     12  CD1 TYR A   1      -1.641   9.815  17.242  0.00  0.00    +0.000 A 
ATOM     13  CE1 TYR A   1      -2.909  10.026  16.698  0.00  0.00    +0.000 A 
ATOM     14  CZ  TYR A   1      -3.767  10.937  17.303  0.00  0.00    +0.000 A 
ATOM     15  CE2 TYR A   1      -3.377  11.639  18.436  0.00  0.00    +0.000 A 
ATOM     16  CD2 TYR A   1      -2.111  11.426  18.981  0.00  0.00    +0.000 A 
BRANCH  14  17
ATOM     17  OH  TYR A   1      -5.020  11.165  16.814  0.00  0.00    +0.000 OA
ATOM     18  HH  TYR A   1      -5.664  10.757  17.415  0.00  0.00    +0.000 HD
ENDBRANCH  14  17
ENDBRANCH  10  11
ENDBRANCH   6  10
ENDBRANCH   2   6
ENDBRANCH   1   4
BRANCH   1  19
ATOM     19  C   PHE A   2       3.640   7.400  17.702  0.00  0.00    +0.000 C 
ATOM     20  O   PHE A   2       3.492   8.371  16.965  0.00  0.00    +0.000 OA
ATOM     21  N   GLU A   3       4.673   6.504  17.524  0.00  0.00    +0.000 N 
ATOM     22  H   GLU A   3       4.587   5.587  17.952  0.00  0.00    +0.000 HD
BRANCH  21  23
ATOM     23  CA  GLU A   3       5.728   6.712  16.537  0.00  0.00    +0.000 C 
BRANCH  23  24
ATOM     24  C   GLU A   3       5.715   5.473  15.624  0.00  0.00    +0.000 C 
ATOM     25  O   GLU A   3       4.959   4.529  15.790  0.00  0.00    +0.000 OA
BRANCH  24  26
ATOM     26  OXT GLU A   3       6.582   5.536  14.597  0.00  0.00    +0.000 OA
ATOM     27  HXT GLU A   3       7.351   4.933  14.659  0.00  0.00    +0.000 HD
ENDBRANCH  24  26
ENDBRANCH  23  24
BRANCH  23  28
ATOM     28  CB  GLU A   3       7.102   6.873  17.211  0.00  0.00    +0.000 C 
BRANCH  28  29
ATOM     29  CG  GLU A   3       7.260   6.062  18.496  0.00  0.00    +0.000 C 
BRANCH  29  30
ATOM     30  CD  GLU A   3       7.428   4.590  18.191  0.00  0.00    +0.000 C 
ATOM     31  OE1 GLU A   3       8.489   4.127  17.808  0.00  0.00    +0.000 OA
BRANCH  30  32
ATOM     32  OE2 GLU A   3       6.338   3.853  18.478  0.00  0.00    +0.000 OA
ATOM     33  HE2 GLU A   3       6.521   2.943  18.778  0.00  0.00    +0.000 HD
ENDBRANCH  30  32
ENDBRANCH  29  30
ENDBRANCH  28  29
ENDBRANCH  23  28
ENDBRANCH  21  23
ENDBRANCH   1  19
BRANCH   1  34
ATOM     34  CB  PHE A   2       1.995   5.662  18.523  0.00  0.00    +0.000 C 
BRANCH  34  35
ATOM     35  CG  PHE A   2       2.205   4.637  19.621  0.00  0.00    +0.000 A 
ATOM     36  CD1 PHE A   2       3.388   3.897  19.688  0.00  0.00    +0.000 A 
ATOM     37  CE1 PHE A   2       3.494   2.826  20.577  0.00  0.00    +0.000 A 
ATOM     38  CZ  PHE A   2       2.422   2.482  21.397  0.00  0.00    +0.000 A 
ATOM     39  CE2 PHE A   2       1.263   3.248  21.380  0.00  0.00    +0.000 A 
ATOM     40  CD2 PHE A   2       1.183   4.346  20.530  0.00  0.00    +0.000 A 
ENDBRANCH  34  35
ENDBRANCH   1  34
TORSDOF 16
ENDMDL
MODEL 2
REMARK VINA RESULT:      -7.6      2.516      3.447
REMARK  Name = 
REMARK  16 active torsions:
REMARK  status: ('A' for Active; 'I' for Inactive)
REMARK    1  A    between atoms: N_1  and  CA_2
REMARK    2  A    between atoms: CA_2  and  CB_3
REMARK    3  A    between atoms: CA_2  and  C_11
REMARK    4  A    between atoms: CB_3  and  CG_4
REMARK    5  A    between atoms: CZ_7  and  OH_8
REMARK    6  A    between atoms: N_13  and  CA_14
REMARK    7  A    between atoms: CA_14  and  CB_15
REMARK    8  A    between atoms: CA_14  and  C_22
REMARK    9  A    between atoms: CB_15  and  CG_16
REMARK   10  A    between atoms: N_24  and  CA_25
REMARK   11  A    between atoms: CA_25  and  CB_26
REMARK   12  A    between atoms: CA_25  and  C_31
REMARK   13  A    between atoms: CB_26  and  CG_27
REMARK   14  A    between atoms: CG_27  and  CD_28
REMARK   15  A    between atoms: CD_28  and  OE2_30
REMARK   16  A    between atoms: C_31  and  OXT_33
REMARK                            x       y       z     vdW  Elec       q    Type
REMARK                         _______ _______ _______ _____ _____    ______ ____
ROOT
ATOM      1  CA  PHE A   2       3.267   6.725  18.224  0.00  0.00    +0.000 C 
ENDROOT
BRANCH   1   4
ATOM      2  C   TYR A   1       1.947   8.568  19.283  0.00  0.00    +0.000 C 
ATOM      3  O   TYR A   1       1.849   7.977  20.353  0.00  0.00    +0.000 OA
ATOM      4  N   PHE A   2       2.681   8.078  18.225  0.00  0.00    +0.000 N 
ATOM      5  H   PHE A   2       2.460   8.526  17.335  0.00  0.00    +0.000 HD
BRANCH   2   6
ATOM      6  CA  TYR A   1       1.274   9.933  18.999  0.00  0.00    +0.000 C 
BRANCH   6   7
ATOM      7  N   TYR A   1       1.495  10.339  17.581  0.00  0.00    +0.000 NA
ATOM      8  H1  TYR A   1       2.400  10.822  17.540  0.00  0.00    +0.000 HD
ATOM      9  H2  TYR A   1       0.828  11.063  17.320  0.00  0.00    +0.000 HD
ENDBRANCH   6   7
BRANCH   6  10
ATOM     10  CB  TYR A   1      -0.216   9.842  19.382  0.00  0.00    +0.000 C 
BRANCH  10  11
ATOM     11  CG  TYR A   1      -0.646  10.746  20.513  0.00  0.00    +0.000 A 
ATOM     12  CD1 TYR A   1      -1.256  11.979  20.237  0.00  0.00    +0.000 A 
ATOM     13  CE1 TYR A   1      -1.705  12.798  21.274  0.00  0.00    +0.000 A 
ATOM     14  CZ  TYR A   1      -1.546  12.382  22.590  0.00  0.00    +0.000 A 
ATOM     15  CE2 TYR A   1      -0.945  11.165  22.885  0.00  0.00    +0.000 A 
ATOM     16  CD2 TYR A   1      -0.499  10.344  21.848  0.00  0.00    +0.000 A 
BRANCH  14  17
ATOM     17  OH  TYR A   1      -1.981  13.144  23.634  0.00  0.00    +0.000 OA
ATOM     18  HH  TYR A   1      -2.758  12.714  24.027  0.00  0.00    +0.000 HD
ENDBRANCH  14  17
ENDBRANCH  10  11
ENDBRANCH   6  10
ENDBRANCH   2   6
ENDBRANCH   1   4
BRANCH   1  19
ATOM     19  C   PHE A   2       4.546   6.684  17.352  0.00  0.00    +0.000 C 
ATOM     20  O   PHE A   2       4.536   6.792  16.129  0.00  0.00    +0.000 OA
ATOM     21  N   GLU A   3       5.710   6.442  18.051  0.00  0.00    +0.000 N 
ATOM     22  H   GLU A   3       5.631   6.075  18.994  0.00  0.00    +0.000 HD
BRANCH  21  23
ATOM     23  CA  GLU A   3       7.019   6.423  17.406  0.00  0.00    +0.000 C 
BRANCH  23  24
ATOM     24  C   GLU A   3       7.556   4.989  17.562  0.00  0.00    +0.000 C 
ATOM     25  O   GLU A   3       7.612   4.410  18.634  0.00  0.00    +0.000 OA
BRANCH  24  26
ATOM     26  OXT GLU A   3       7.919   4.408  16.404  0.00  0.00    +0.000 OA
ATOM     27  HXT GLU A   3       7.709   3.454  16.329  0.00  0.00    +0.000 HD
ENDBRANCH  24  26
ENDBRANCH  23  24
BRANCH  23  28
ATOM     28  CB  GLU A   3       7.980   7.434  18.058  0.00  0.00    +0.000 C 
BRANCH  28  29
ATOM     29  CG  GLU A   3       7.757   8.877  17.610  0.00  0.00    +0.000 C 
BRANCH  29  30
ATOM     30  CD  GLU A   3       8.626   9.830  18.400  0.00  0.00    +0.000 C 
ATOM     31  OE1 GLU A   3       9.215   9.481  19.410  0.00  0.00    +0.000 OA
BRANCH  30  32
ATOM     32  OE2 GLU A   3       8.758  11.041  17.827  0.00  0.00    +0.000 OA
ATOM     33  HE2 GLU A   3       9.064  11.031  16.901  0.00  0.00    +0.000 HD
ENDBRANCH  30  32
ENDBRANCH  29  30
ENDBRANCH  28  29
ENDBRANCH  23  28
ENDBRANCH  21  23
ENDBRANCH   1  19
BRANCH   1  34
ATOM     34  CB  PHE A   2       2.306   5.588  17.777  0.00  0.00    +0.000 C 
BRANCH  34  35
ATOM     35  CG  PHE A   2       1.929   4.653  18.910  0.00  0.00    +0.000 A 
ATOM     36  CD1 PHE A   2       2.286   4.950  20.228  0.00  0.00    +0.000 A 
ATOM     37  CE1 PHE A   2       2.109   3.998  21.233  0.00  0.00    +0.000 A 
ATOM     38  CZ  PHE A   2       1.581   2.745  20.931  0.00  0.00    +0.000 A 
ATOM     39  CE2 PHE A   2       1.168   2.460  19.635  0.00  0.00    +0.000 A 
ATOM     40  CD2 PHE A   2       1.298   3.432  18.649  0.00  0.00    +0.000 A 
ENDBRANCH  34  35
ENDBRANCH   1  34
TORSDOF 16
ENDMDL
MODEL 3
REMARK VINA RESULT:      -7.6      1.848      2.592
REMARK  Name = 
REMARK  16 active torsions:
REMARK  status: ('A' for Active; 'I' for Inactive)
REMARK    1  A    between atoms: N_1  and  CA_2
REMARK    2  A    between atoms: CA_2  and  CB_3
REMARK    3  A    between atoms: CA_2  and  C_11
REMARK    4  A    between atoms: CB_3  and  CG_4
REMARK    5  A    between atoms: CZ_7  and  OH_8
REMARK    6  A    between atoms: N_13  and  CA_14
REMARK    7  A    between atoms: CA_14  and  CB_15
REMARK    8  A    between atoms: CA_14  and  C_22
REMARK    9  A    between atoms: CB_15  and  CG_16
REMARK   10  A    between atoms: N_24  and  CA_25
REMARK   11  A    between atoms: CA_25  and  CB_26
REMARK   12  A    between atoms: CA_25  and  C_31
REMARK   13  A    between atoms: CB_26  and  CG_27
REMARK   14  A    between atoms: CG_27  and  CD_28
REMARK   15  A    between atoms: CD_28  and  OE2_30
REMARK   16  A    between atoms: C_31  and  OXT_33
REMARK                            x       y       z     vdW  Elec       q    Type
REMARK                         _______ _______ _______ _____ _____    ______ ____
ROOT
ATOM      1  CA  PHE A   2       3.231   6.702  18.369  0.00  0.00    +0.000 C 
ENDROOT
BRANCH   1   4
ATOM      2  C   TYR A   1       1.849   8.488  19.446  0.00  0.00    +0.000 C 
ATOM      3  O   TYR A   1       1.858   7.933  20.539  0.00  0.00    +0.000 OA
ATOM      4  N   PHE A   2       2.550   8.010  18.360  0.00  0.00    +0.000 N 
ATOM      5  H   PHE A   2       2.245   8.407  17.472  0.00  0.00    +0.000 HD
BRANCH   2   6
ATOM      6  CA  TYR A   1       1.064   9.791  19.159  0.00  0.00    +0.000 C 
BRANCH   6   7
ATOM      7  N   TYR A   1       1.113  10.121  17.706  0.00  0.00    +0.000 NA
ATOM      8  H1  TYR A   1       1.909   9.612  17.304  0.00  0.00    +0.000 HD
ATOM      9  H2  TYR A   1       1.368  11.098  17.581  0.00  0.00    +0.000 HD
ENDBRANCH   6   7
BRANCH   6  10
ATOM     10  CB  TYR A   1      -0.370   9.638  19.702  0.00  0.00    +0.000 C 
BRANCH  10  11
ATOM     11  CG  TYR A   1      -1.443  10.317  18.886  0.00  0.00    +0.000 A 
ATOM     12  CD1 TYR A   1      -2.032   9.650  17.801  0.00  0.00    +0.000 A 
ATOM     13  CE1 TYR A   1      -3.061  10.248  17.071  0.00  0.00    +0.000 A 
ATOM     14  CZ  TYR A   1      -3.505  11.516  17.431  0.00  0.00    +0.000 A 
ATOM     15  CE2 TYR A   1      -2.936  12.193  18.501  0.00  0.00    +0.000 A 
ATOM     16  CD2 TYR A   1      -1.909  11.594  19.232  0.00  0.00    +0.000 A 
BRANCH  14  17
ATOM     17  OH  TYR A   1      -4.517  12.132  16.754  0.00  0.00    +0.000 OA
ATOM     18  HH  TYR A   1      -5.199  11.471  16.552  0.00  0.00    +0.000 HD
ENDBRANCH  14  17
ENDBRANCH  10  11
ENDBRANCH   6  10
ENDBRANCH   2   6
ENDBRANCH   1   4
BRANCH   1  19
ATOM     19  C   PHE A   2       4.473   6.727  17.445  0.00  0.00    +0.000 C 
ATOM     20  O   PHE A   2       4.417   6.949  16.239  0.00  0.00    +0.000 OA
ATOM     21  N   GLU A   3       5.660   6.406  18.070  0.00  0.00    +0.000 N 
ATOM     22  H   GLU A   3       5.613   5.953  18.978  0.00  0.00    +0.000 HD
BRANCH  21  23
ATOM     23  CA  GLU A   3       6.942   6.431  17.373  0.00  0.00    +0.000 C 
BRANCH  23  24
ATOM     24  C   GLU A   3       7.506   5.000  17.455  0.00  0.00    +0.000 C 
ATOM     25  O   GLU A   3       7.911   4.386  16.482  0.00  0.00    +0.000 OA
BRANCH  24  26
ATOM     26  OXT GLU A   3       7.555   4.499  18.702  0.00  0.00    +0.000 OA
ATOM     27  HXT GLU A   3       8.063   5.031  19.349  0.00  0.00    +0.000 HD
ENDBRANCH  24  26
ENDBRANCH  23  24
BRANCH  23  28
ATOM     28  CB  GLU A   3       7.914   7.432  18.022  0.00  0.00    +0.000 C 
BRANCH  28  29
ATOM     29  CG  GLU A   3       7.639   8.889  17.653  0.00  0.00    +0.000 C 
BRANCH  29  30
ATOM     30  CD  GLU A   3       8.586   9.820  18.377  0.00  0.00    +0.000 C 
ATOM     31  OE1 GLU A   3       9.225   9.461  19.352  0.00  0.00    +0.000 OA
BRANCH  30  32
ATOM     32  OE2 GLU A   3       8.721  11.021  17.783  0.00  0.00    +0.000 OA
ATOM     33  HE2 GLU A   3       8.558  11.028  16.821  0.00  0.00    +0.000 HD
ENDBRANCH  30  32
ENDBRANCH  29  30
ENDBRANCH  28  29
ENDBRANCH  23  28
ENDBRANCH  21  23
ENDBRANCH   1  19
BRANCH   1  34
ATOM     34  CB  PHE A   2       2.336   5.489  17.990  0.00  0.00    +0.000 C 
BRANCH  34  35
ATOM     35  CG  PHE A   2       2.296   4.424  19.070  0.00  0.00    +0.000 A 
ATOM     36  CD1 PHE A   2       1.290   4.432  20.040  0.00  0.00    +0.000 A 
ATOM     37  CE1 PHE A   2       1.369   3.573  21.137  0.00  0.00    +0.000 A 
ATOM     38  CZ  PHE A   2       2.452   2.706  21.276  0.00  0.00    +0.000 A 
ATOM     39  CE2 PHE A   2       3.426   2.649  20.287  0.00  0.00    +0.000 A 
ATOM     40  CD2 PHE A   2       3.313   3.471  19.171  0.00  0.00    +0.000 A 
ENDBRANCH  34  35
ENDBRANCH   1  34
TORSDOF 16
ENDMDL
MODEL 4
REMARK VINA RESULT:      -7.6      1.718      2.799
REMARK  Name = 
REMARK  16 active torsions:
REMARK  status: ('A' for Active; 'I' for Inactive)
REMARK    1  A    between atoms: N_1  and  CA_2
REMARK    2  A    between atoms: CA_2  and  CB_3
REMARK    3  A    between atoms: CA_2  and  C_11
REMARK    4  A    between atoms: CB_3  and  CG_4
REMARK    5  A    between atoms: CZ_7  and  OH_8
REMARK    6  A    between atoms: N_13  and  CA_14
REMARK    7  A    between atoms: CA_14  and  CB_15
REMARK    8  A    between atoms: CA_14  and  C_22
REMARK    9  A    between atoms: CB_15  and  CG_16
REMARK   10  A    between atoms: N_24  and  CA_25
REMARK   11  A    between atoms: CA_25  and  CB_26
REMARK   12  A    between atoms: CA_25  and  C_31
REMARK   13  A    between atoms: CB_26  and  CG_27
REMARK   14  A    between atoms: CG_27  and  CD_28
REMARK   15  A    between atoms: CD_28  and  OE2_30
REMARK   16  A    between atoms: C_31  and  OXT_33
REMARK                            x       y       z     vdW  Elec       q    Type
REMARK                         _______ _______ _______ _____ _____    ______ ____
ROOT
ATOM      1  CA  PHE A   2       2.757   6.673  19.831  0.00  0.00    +0.000 C 
ENDROOT
BRANCH   1   4
ATOM      2  C   TYR A   1       1.553   8.840  19.496  0.00  0.00    +0.000 C 
ATOM      3  O   TYR A   1       1.256   8.939  20.682  0.00  0.00    +0.000 OA
ATOM      4  N   PHE A   2       2.344   7.823  19.007  0.00  0.00    +0.000 N 
ATOM      5  H   PHE A   2       2.288   7.716  17.994  0.00  0.00    +0.000 HD
BRANCH   2   6
ATOM      6  CA  TYR A   1       1.089   9.847  18.416  0.00  0.00    +0.000 C 
BRANCH   6   7
ATOM      7  N   TYR A   1       2.190  10.117  17.447  0.00  0.00    +0.000 NA
ATOM      8  H1  TYR A   1       2.858   9.341  17.520  0.00  0.00    +0.000 HD
ATOM      9  H2  TYR A   1       2.731  10.924  17.753  0.00  0.00    +0.000 HD
ENDBRANCH   6   7
BRANCH   6  10
ATOM     10  CB  TYR A   1      -0.191   9.308  17.749  0.00  0.00    +0.000 C 
BRANCH  10  11
ATOM     11  CG  TYR A   1      -1.438  10.121  17.999  0.00  0.00    +0.000 A 
ATOM     12  CD1 TYR A   1      -1.419  11.175  18.925  0.00  0.00    +0.000 A 
ATOM     13  CE1 TYR A   1      -2.551  11.966  19.126  0.00  0.00    +0.000 A 
ATOM     14  CZ  TYR A   1      -3.705  11.705  18.396  0.00  0.00    +0.000 A 
ATOM     15  CE2 TYR A   1      -3.745  10.667  17.474  0.00  0.00    +0.000 A 
ATOM     16  CD2 TYR A   1      -2.612   9.877  17.271  0.00  0.00    +0.000 A 
BRANCH  14  17
ATOM     17  OH  TYR A   1      -4.830  12.461  18.551  0.00  0.00    +0.000 OA
ATOM     18  HH  TYR A   1      -4.629  13.371  18.277  0.00  0.00    +0.000 HD
ENDBRANCH  14  17
ENDBRANCH  10  11
ENDBRANCH   6  10
ENDBRANCH   2   6
ENDBRANCH   1   4
BRANCH   1  19
ATOM     19  C   PHE A   2       4.023   6.004  19.241  0.00  0.00    +0.000 C 
ATOM     20  O   PHE A   2       4.717   5.202  19.859  0.00  0.00    +0.000 OA
ATOM     21  N   GLU A   3       4.361   6.433  17.975  0.00  0.00    +0.000 N 
ATOM     22  H   GLU A   3       3.937   7.291  17.633  0.00  0.00    +0.000 HD
BRANCH  21  23
ATOM     23  CA  GLU A   3       5.490   5.876  17.235  0.00  0.00    +0.000 C 
BRANCH  23  24
ATOM     24  C   GLU A   3       6.717   6.724  17.618  0.00  0.00    +0.000 C 
ATOM     25  O   GLU A   3       7.009   7.766  17.055  0.00  0.00    +0.000 OA
BRANCH  24  26
ATOM     26  OXT GLU A   3       7.419   6.239  18.657  0.00  0.00    +0.000 OA
ATOM     27  HXT GLU A   3       6.884   5.860  19.385  0.00  0.00    +0.000 HD
ENDBRANCH  24  26
ENDBRANCH  23  24
BRANCH  23  28
ATOM     28  CB  GLU A   3       5.247   5.930  15.717  0.00  0.00    +0.000 C 
BRANCH  28  29
ATOM     29  CG  GLU A   3       5.326   4.568  15.028  0.00  0.00    +0.000 C 
BRANCH  29  30
ATOM     30  CD  GLU A   3       6.590   4.450  14.206  0.00  0.00    +0.000 C 
ATOM     31  OE1 GLU A   3       7.550   5.180  14.388  0.00  0.00    +0.000 OA
BRANCH  30  32
ATOM     32  OE2 GLU A   3       6.578   3.415  13.345  0.00  0.00    +0.000 OA
ATOM     33  HE2 GLU A   3       7.401   2.891  13.315  0.00  0.00    +0.000 HD
ENDBRANCH  30  32
ENDBRANCH  29  30
ENDBRANCH  28  29
ENDBRANCH  23  28
ENDBRANCH  21  23
ENDBRANCH   1  19
BRANCH   1  34
ATOM     34  CB  PHE A   2       1.664   5.591  20.054  0.00  0.00    +0.000 C 
BRANCH  34  35
ATOM     35  CG  PHE A   2       1.899   4.335  19.237  0.00  0.00    +0.000 A 
ATOM     36  CD1 PHE A   2       2.222   3.129  19.863  0.00  0.00    +0.000 A 
ATOM     37  CE1 PHE A   2       2.626   2.031  19.101  0.00  0.00    +0.000 A 
ATOM     38  CZ  PHE A   2       2.716   2.131  17.714  0.00  0.00    +0.000 A 
ATOM     39  CE2 PHE A   2       2.340   3.308  17.078  0.00  0.00    +0.000 A 
ATOM     40  CD2 PHE A   2       1.888   4.380  17.839  0.00  0.00    +0.000 A 
ENDBRANCH  34  35
ENDBRANCH   1  34
TORSDOF 16
ENDMDL
MODEL 5
REMARK VINA RESULT:      -7.5      1.577      2.293
REMARK  Name = 
REMARK  16 active torsions:
REMARK  status: ('A' for Active; 'I' for Inactive)
REMARK    1  A    between atoms: N_1  and  CA_2
REMARK    2  A    between atoms: CA_2  and  CB_3
REMARK    3  A    between atoms: CA_2  and  C_11
REMARK    4  A    between atoms: CB_3  and  CG_4
REMARK    5  A    between atoms: CZ_7  and  OH_8
REMARK    6  A    between atoms: N_13  and  CA_14
REMARK    7  A    between atoms: CA_14  and  CB_15
REMARK    8  A    between atoms: CA_14  and  C_22
REMARK    9  A    between atoms: CB_15  and  CG_16
REMARK   10  A    between atoms: N_24  and  CA_25
REMARK   11  A    between atoms: CA_25  and  CB_26
REMARK   12  A    between atoms: CA_25  and  C_31
REMARK   13  A    between atoms: CB_26  and  CG_27
REMARK   14  A    between atoms: CG_27  and  CD_28
REMARK   15  A    between atoms: CD_28  and  OE2_30
REMARK   16  A    between atoms: C_31  and  OXT_33
REMARK                            x       y       z     vdW  Elec       q    Type
REMARK                         _______ _______ _______ _____ _____    ______ ____
ROOT
ATOM      1  CA  PHE A   2       2.059   7.076  20.269  0.00  0.00    +0.000 C 
ENDROOT
BRANCH   1   4
ATOM      2  C   TYR A   1       1.095   9.256  21.029  0.00  0.00    +0.000 C 
ATOM      3  O   TYR A   1       1.226   8.979  22.217  0.00  0.00    +0.000 OA
ATOM      4  N   PHE A   2       1.542   8.434  20.018  0.00  0.00    +0.000 N 
ATOM      5  H   PHE A   2       1.138   8.653  19.107  0.00  0.00    +0.000 HD
BRANCH   2   6
ATOM      6  CA  TYR A   1       0.428  10.560  20.527  0.00  0.00    +0.000 C 
BRANCH   6   7
ATOM      7  N   TYR A   1       1.167  11.752  21.033  0.00  0.00    +0.000 NA
ATOM      8  H1  TYR A   1       0.651  12.584  20.726  0.00  0.00    +0.000 HD
ATOM      9  H2  TYR A   1       2.060  11.836  20.550  0.00  0.00    +0.000 HD
ENDBRANCH   6   7
BRANCH   6  10
ATOM     10  CB  TYR A   1       0.331  10.509  18.990  0.00  0.00    +0.000 C 
BRANCH  10  11
ATOM     11  CG  TYR A   1      -1.067  10.617  18.430  0.00  0.00    +0.000 A 
ATOM     12  CD1 TYR A   1      -1.985  11.518  18.992  0.00  0.00    +0.000 A 
ATOM     13  CE1 TYR A   1      -3.263  11.663  18.449  0.00  0.00    +0.000 A 
ATOM     14  CZ  TYR A   1      -3.623  10.909  17.339  0.00  0.00    +0.000 A 
ATOM     15  CE2 TYR A   1      -2.730  10.012  16.767  0.00  0.00    +0.000 A 
ATOM     16  CD2 TYR A   1      -1.451   9.868  17.307  0.00  0.00    +0.000 A 
BRANCH  14  17
ATOM     17  OH  TYR A   1      -4.856  11.028  16.769  0.00  0.00    +0.000 OA
ATOM     18  HH  TYR A   1      -5.202  11.914  16.967  0.00  0.00    +0.000 HD
ENDBRANCH  14  17
ENDBRANCH  10  11
ENDBRANCH   6  10
ENDBRANCH   2   6
ENDBRANCH   1   4
BRANCH   1  19
ATOM     19  C   PHE A   2       2.841   6.553  19.039  0.00  0.00    +0.000 C 
ATOM     20  O   PHE A   2       2.437   6.658  17.884  0.00  0.00    +0.000 OA
ATOM     21  N   GLU A   3       4.009   5.886  19.342  0.00  0.00    +0.000 N 
ATOM     22  H   GLU A   3       4.145   5.575  20.299  0.00  0.00    +0.000 HD
BRANCH  21  23
ATOM     23  CA  GLU A   3       4.906   5.371  18.312  0.00  0.00    +0.000 C 
BRANCH  23  24
ATOM     24  C   GLU A   3       4.638   3.858  18.224  0.00  0.00    +0.000 C 
ATOM     25  O   GLU A   3       4.002   3.344  17.318  0.00  0.00    +0.000 OA
BRANCH  24  26
ATOM     26  OXT GLU A   3       5.205   3.140  19.211  0.00  0.00    +0.000 OA
ATOM     27  HXT GLU A   3       4.775   2.282  19.405  0.00  0.00    +0.000 HD
ENDBRANCH  24  26
ENDBRANCH  23  24
BRANCH  23  28
ATOM     28  CB  GLU A   3       6.379   5.640  18.667  0.00  0.00    +0.000 C 
BRANCH  28  29
ATOM     29  CG  GLU A   3       7.204   6.196  17.506  0.00  0.00    +0.000 C 
BRANCH  29  30
ATOM     30  CD  GLU A   3       7.860   7.504  17.886  0.00  0.00    +0.000 C 
ATOM     31  OE1 GLU A   3       7.667   8.531  17.256  0.00  0.00    +0.000 OA
BRANCH  30  32
ATOM     32  OE2 GLU A   3       8.579   7.436  19.023  0.00  0.00    +0.000 OA
ATOM     33  HE2 GLU A   3       8.675   6.542  19.400  0.00  0.00    +0.000 HD
ENDBRANCH  30  32
ENDBRANCH  29  30
ENDBRANCH  28  29
ENDBRANCH  23  28
ENDBRANCH  21  23
ENDBRANCH   1  19
BRANCH   1  34
ATOM     34  CB  PHE A   2       0.988   6.026  20.678  0.00  0.00    +0.000 C 
BRANCH  34  35
ATOM     35  CG  PHE A   2       1.467   4.597  20.512  0.00  0.00    +0.000 A 
ATOM     36  CD1 PHE A   2       1.048   3.827  19.424  0.00  0.00    +0.000 A 
ATOM     37  CE1 PHE A   2       1.334   2.462  19.382  0.00  0.00    +0.000 A 
ATOM     38  CZ  PHE A   2       2.033   1.855  20.424  0.00  0.00    +0.000 A 
ATOM     39  CE2 PHE A   2       2.505   2.623  21.481  0.00  0.00    +0.000 A 
ATOM     40  CD2 PHE A   2       2.262   3.992  21.491  0.00  0.00    +0.000 A 
ENDBRANCH  34  35
ENDBRANCH   1  34
TORSDOF 16
ENDMDL
MODEL 6
REMARK VINA RESULT:      -7.5      3.005      4.208
REMARK  Name = 
REMARK  16 active torsions:
REMARK  status: ('A' for Active; 'I' for Inactive)
REMARK    1  A    between atoms: N_1  and  CA_2
REMARK    2  A    between atoms: CA_2  and  CB_3
REMARK    3  A    between atoms: CA_2  and  C_11
REMARK    4  A    between atoms: CB_3  and  CG_4
REMARK    5  A    between atoms: CZ_7  and  OH_8
REMARK    6  A    between atoms: N_13  and  CA_14
REMARK    7  A    between atoms: CA_14  and  CB_15
REMARK    8  A    between atoms: CA_14  and  C_22
REMARK    9  A    between atoms: CB_15  and  CG_16
REMARK   10  A    between atoms: N_24  and  CA_25
REMARK   11  A    between atoms: CA_25  and  CB_26
REMARK   12  A    between atoms: CA_25  and  C_31
REMARK   13  A    between atoms: CB_26  and  CG_27
REMARK   14  A    between atoms: CG_27  and  CD_28
REMARK   15  A    between atoms: CD_28  and  OE2_30
REMARK   16  A    between atoms: C_31  and  OXT_33
REMARK                            x       y       z     vdW  Elec       q    Type
REMARK                         _______ _______ _______ _____ _____    ______ ____
ROOT
ATOM      1  CA  PHE A   2       3.301   6.849  18.062  0.00  0.00    +0.000 C 
ENDROOT
BRANCH   1   4
ATOM      2  C   TYR A   1       1.838   8.744  18.786  0.00  0.00    +0.000 C 
ATOM      3  O   TYR A   1       1.710   8.304  19.924  0.00  0.00    +0.000 OA
ATOM      4  N   PHE A   2       2.651   8.154  17.844  0.00  0.00    +0.000 N 
ATOM      5  H   PHE A   2       2.457   8.461  16.890  0.00  0.00    +0.000 HD
BRANCH   2   6
ATOM      6  CA  TYR A   1       1.115  10.017  18.281  0.00  0.00    +0.000 C 
BRANCH   6   7
ATOM      7  N   TYR A   1      -0.149   9.655  17.578  0.00  0.00    +0.000 NA
ATOM      8  H1  TYR A   1      -0.045   8.692  17.240  0.00  0.00    +0.000 HD
ATOM      9  H2  TYR A   1      -0.236  10.199  16.721  0.00  0.00    +0.000 HD
ENDBRANCH   6   7
BRANCH   6  10
ATOM     10  CB  TYR A   1       0.899  10.972  19.471  0.00  0.00    +0.000 C 
BRANCH  10  11
ATOM     11  CG  TYR A   1       1.720  12.239  19.436  0.00  0.00    +0.000 A 
ATOM     12  CD1 TYR A   1       1.889  13.002  20.602  0.00  0.00    +0.000 A 
ATOM     13  CE1 TYR A   1       2.688  14.146  20.594  0.00  0.00    +0.000 A 
ATOM     14  CZ  TYR A   1       3.322  14.528  19.417  0.00  0.00    +0.000 A 
ATOM     15  CE2 TYR A   1       3.168  13.787  18.252  0.00  0.00    +0.000 A 
ATOM     16  CD2 TYR A   1       2.372  12.641  18.261  0.00  0.00    +0.000 A 
BRANCH  14  17
ATOM     17  OH  TYR A   1       4.122  15.631  19.367  0.00  0.00    +0.000 OA
ATOM     18  HH  TYR A   1       4.570  15.649  18.505  0.00  0.00    +0.000 HD
ENDBRANCH  14  17
ENDBRANCH  10  11
ENDBRANCH   6  10
ENDBRANCH   2   6
ENDBRANCH   1   4
BRANCH   1  19
ATOM     19  C   PHE A   2       4.634   6.765  17.277  0.00  0.00    +0.000 C 
ATOM     20  O   PHE A   2       4.701   6.786  16.051  0.00  0.00    +0.000 OA
ATOM     21  N   GLU A   3       5.753   6.590  18.064  0.00  0.00    +0.000 N 
ATOM     22  H   GLU A   3       5.618   6.289  19.024  0.00  0.00    +0.000 HD
BRANCH  21  23
ATOM     23  CA  GLU A   3       7.101   6.544  17.506  0.00  0.00    +0.000 C 
BRANCH  23  24
ATOM     24  C   GLU A   3       7.620   5.115  17.749  0.00  0.00    +0.000 C 
ATOM     25  O   GLU A   3       7.779   4.644  18.864  0.00  0.00    +0.000 OA
BRANCH  24  26
ATOM     26  OXT GLU A   3       7.843   4.411  16.625  0.00  0.00    +0.000 OA
ATOM     27  HXT GLU A   3       7.541   4.837  15.796  0.00  0.00    +0.000 HD
ENDBRANCH  24  26
ENDBRANCH  23  24
BRANCH  23  28
ATOM     28  CB  GLU A   3       8.022   7.576  18.180  0.00  0.00    +0.000 C 
BRANCH  28  29
ATOM     29  CG  GLU A   3       7.918   8.980  17.587  0.00  0.00    +0.000 C 
BRANCH  29  30
ATOM     30  CD  GLU A   3       8.692   9.979  18.417  0.00  0.00    +0.000 C 
ATOM     31  OE1 GLU A   3       9.281   9.654  19.435  0.00  0.00    +0.000 OA
BRANCH  30  32
ATOM     32  OE2 GLU A   3       8.745  11.208  17.871  0.00  0.00    +0.000 OA
ATOM     33  HE2 GLU A   3       9.623  11.633  17.891  0.00  0.00    +0.000 HD
ENDBRANCH  30  32
ENDBRANCH  29  30
ENDBRANCH  28  29
ENDBRANCH  23  28
ENDBRANCH  21  23
ENDBRANCH   1  19
BRANCH   1  34
ATOM     34  CB  PHE A   2       2.428   5.610  17.722  0.00  0.00    +0.000 C 
BRANCH  34  35
ATOM     35  CG  PHE A   2       2.017   4.820  18.950  0.00  0.00    +0.000 A 
ATOM     36  CD1 PHE A   2       2.551   5.126  20.204  0.00  0.00    +0.000 A 
ATOM     37  CE1 PHE A   2       2.321   4.277  21.288  0.00  0.00    +0.000 A 
ATOM     38  CZ  PHE A   2       1.563   3.119  21.128  0.00  0.00    +0.000 A 
ATOM     39  CE2 PHE A   2       0.979   2.838  19.900  0.00  0.00    +0.000 A 
ATOM     40  CD2 PHE A   2       1.168   3.715  18.837  0.00  0.00    +0.000 A 
ENDBRANCH  34  35
ENDBRANCH   1  34
TORSDOF 16
ENDMDL
MODEL 7
REMARK VINA RESULT:      -7.5      1.250      2.203
REMARK  Name = 
REMARK  16 active torsions:
REMARK  status: ('A' for Active; 'I' for Inactive)
REMARK    1  A    between atoms: N_1  and  CA_2
REMARK    2  A    between atoms: CA_2  and  CB_3
REMARK    3  A    between atoms: CA_2  and  C_11
REMARK    4  A    between atoms: CB_3  and  CG_4
REMARK    5  A    between atoms: CZ_7  and  OH_8
REMARK    6  A    between atoms: N_13  and  CA_14
REMARK    7  A    between atoms: CA_14  and  CB_15
REMARK    8  A    between atoms: CA_14  and  C_22
REMARK    9  A    between atoms: CB_15  and  CG_16
REMARK   10  A    between atoms: N_24  and  CA_25
REMARK   11  A    between atoms: CA_25  and  CB_26
REMARK   12  A    between atoms: CA_25  and  C_31
REMARK   13  A    between atoms: CB_26  and  CG_27
REMARK   14  A    between atoms: CG_27  and  CD_28
REMARK   15  A    between atoms: CD_28  and  OE2_30
REMARK   16  A    between atoms: C_31  and  OXT_33
REMARK                            x       y       z     vdW  Elec       q    Type
REMARK                         _______ _______ _______ _____ _____    ______ ____
ROOT
ATOM      1  CA  PHE A   2       2.005   6.886  20.200  0.00  0.00    +0.000 C 
ENDROOT
BRANCH   1   4
ATOM      2  C   TYR A   1       1.158   9.075  21.064  0.00  0.00    +0.000 C 
ATOM      3  O   TYR A   1       1.266   8.734  22.237  0.00  0.00    +0.000 OA
ATOM      4  N   PHE A   2       1.565   8.281  20.015  0.00  0.00    +0.000 N 
ATOM      5  H   PHE A   2       1.179   8.567  19.114  0.00  0.00    +0.000 HD
BRANCH   2   6
ATOM      6  CA  TYR A   1       0.566  10.437  20.625  0.00  0.00    +0.000 C 
BRANCH   6   7
ATOM      7  N   TYR A   1       1.370  11.560  21.187  0.00  0.00    +0.000 NA
ATOM      8  H1  TYR A   1       1.632  12.170  20.405  0.00  0.00    +0.000 HD
ATOM      9  H2  TYR A   1       2.265  11.210  21.525  0.00  0.00    +0.000 HD
ENDBRANCH   6   7
BRANCH   6  10
ATOM     10  CB  TYR A   1       0.470  10.466  19.088  0.00  0.00    +0.000 C 
BRANCH  10  11
ATOM     11  CG  TYR A   1      -0.921  10.659  18.533  0.00  0.00    +0.000 A 
ATOM     12  CD1 TYR A   1      -1.374   9.860  17.472  0.00  0.00    +0.000 A 
ATOM     13  CE1 TYR A   1      -2.676   9.995  16.986  0.00  0.00    +0.000 A 
ATOM     14  CZ  TYR A   1      -3.527  10.929  17.565  0.00  0.00    +0.000 A 
ATOM     15  CE2 TYR A   1      -3.098  11.729  18.616  0.00  0.00    +0.000 A 
ATOM     16  CD2 TYR A   1      -1.798  11.593  19.104  0.00  0.00    +0.000 A 
BRANCH  14  17
ATOM     17  OH  TYR A   1      -4.811  11.084  17.130  0.00  0.00    +0.000 OA
ATOM     18  HH  TYR A   1      -5.393  11.142  17.905  0.00  0.00    +0.000 HD
ENDBRANCH  14  17
ENDBRANCH  10  11
ENDBRANCH   6  10
ENDBRANCH   2   6
ENDBRANCH   1   4
BRANCH   1  19
ATOM     19  C   PHE A   2       2.691   6.355  18.917  0.00  0.00    +0.000 C 
ATOM     20  O   PHE A   2       2.131   6.289  17.826  0.00  0.00    +0.000 OA
ATOM     21  N   GLU A   3       3.974   5.886  19.104  0.00  0.00    +0.000 N 
ATOM     22  H   GLU A   3       4.277   5.693  20.054  0.00  0.00    +0.000 HD
BRANCH  21  23
ATOM     23  CA  GLU A   3       4.798   5.399  18.002  0.00  0.00    +0.000 C 
BRANCH  23  24
ATOM     24  C   GLU A   3       5.904   4.537  18.637  0.00  0.00    +0.000 C 
ATOM     25  O   GLU A   3       7.092   4.798  18.539  0.00  0.00    +0.000 OA
BRANCH  24  26
ATOM     26  OXT GLU A   3       5.447   3.492  19.350  0.00  0.00    +0.000 OA
ATOM     27  HXT GLU A   3       5.643   3.521  20.310  0.00  0.00    +0.000 HD
ENDBRANCH  24  26
ENDBRANCH  23  24
BRANCH  23  28
ATOM     28  CB  GLU A   3       5.410   6.563  17.203  0.00  0.00    +0.000 C 
BRANCH  28  29
ATOM     29  CG  GLU A   3       5.245   6.430  15.690  0.00  0.00    +0.000 C 
BRANCH  29  30
ATOM     30  CD  GLU A   3       6.084   5.292  15.150  0.00  0.00    +0.000 C 
ATOM     31  OE1 GLU A   3       5.608   4.417  14.447  0.00  0.00    +0.000 OA
BRANCH  30  32
ATOM     32  OE2 GLU A   3       7.394   5.405  15.438  0.00  0.00    +0.000 OA
ATOM     33  HE2 GLU A   3       7.628   5.254  16.373  0.00  0.00    +0.000 HD
ENDBRANCH  30  32
ENDBRANCH  29  30
ENDBRANCH  28  29
ENDBRANCH  23  28
ENDBRANCH  21  23
ENDBRANCH   1  19
BRANCH   1  34
ATOM     34  CB  PHE A   2       0.891   5.893  20.632  0.00  0.00    +0.000 C 
BRANCH  34  35
ATOM     35  CG  PHE A   2       1.333   4.444  20.569  0.00  0.00    +0.000 A 
ATOM     36  CD1 PHE A   2       2.245   3.936  21.497  0.00  0.00    +0.000 A 
ATOM     37  CE1 PHE A   2       2.793   2.665  21.317  0.00  0.00    +0.000 A 
ATOM     38  CZ  PHE A   2       2.440   1.896  20.211  0.00  0.00    +0.000 A 
ATOM     39  CE2 PHE A   2       1.489   2.367  19.314  0.00  0.00    +0.000 A 
ATOM     40  CD2 PHE A   2       0.908   3.612  19.528  0.00  0.00    +0.000 A 
ENDBRANCH  34  35
ENDBRANCH   1  34
TORSDOF 16
ENDMDL
MODEL 8
REMARK VINA RESULT:      -7.4      1.018      1.330
REMARK  Name = 
REMARK  16 active torsions:
REMARK  status: ('A' for Active; 'I' for Inactive)
REMARK    1  A    between atoms: N_1  and  CA_2
REMARK    2  A    between atoms: CA_2  and  CB_3
REMARK    3  A    between atoms: CA_2  and  C_11
REMARK    4  A    between atoms: CB_3  and  CG_4
REMARK    5  A    between atoms: CZ_7  and  OH_8
REMARK    6  A    between atoms: N_13  and  CA_14
REMARK    7  A    between atoms: CA_14  and  CB_15
REMARK    8  A    between atoms: CA_14  and  C_22
REMARK    9  A    between atoms: CB_15  and  CG_16
REMARK   10  A    between atoms: N_24  and  CA_25
REMARK   11  A    between atoms: CA_25  and  CB_26
REMARK   12  A    between atoms: CA_25  and  C_31
REMARK   13  A    between atoms: CB_26  and  CG_27
REMARK   14  A    between atoms: CG_27  and  CD_28
REMARK   15  A    between atoms: CD_28  and  OE2_30
REMARK   16  A    between atoms: C_31  and  OXT_33
REMARK                            x       y       z     vdW  Elec       q    Type
REMARK                         _______ _______ _______ _____ _____    ______ ____
ROOT
ATOM      1  CA  PHE A   2       2.556   6.908  18.704  0.00  0.00    +0.000 C 
ENDROOT
BRANCH   1   4
ATOM      2  C   TYR A   1       1.260   8.542  20.085  0.00  0.00    +0.000 C 
ATOM      3  O   TYR A   1       1.590   8.016  21.143  0.00  0.00    +0.000 OA
ATOM      4  N   PHE A   2       1.741   8.126  18.863  0.00  0.00    +0.000 N 
ATOM      5  H   PHE A   2       1.192   8.465  18.073  0.00  0.00    +0.000 HD
BRANCH   2   6
ATOM      6  CA  TYR A   1       0.280   9.737  19.998  0.00  0.00    +0.000 C 
BRANCH   6   7
ATOM      7  N   TYR A   1       0.726  10.844  20.892  0.00  0.00    +0.000 NA
ATOM      8  H1  TYR A   1       1.684  11.091  20.617  0.00  0.00    +0.000 HD
ATOM      9  H2  TYR A   1       0.835  10.497  21.844  0.00  0.00    +0.000 HD
ENDBRANCH   6   7
BRANCH   6  10
ATOM     10  CB  TYR A   1       0.143  10.162  18.524  0.00  0.00    +0.000 C 
BRANCH  10  11
ATOM     11  CG  TYR A   1      -1.267  10.454  18.066  0.00  0.00    +0.000 A 
ATOM     12  CD1 TYR A   1      -1.818   9.747  16.986  0.00  0.00    +0.000 A 
ATOM     13  CE1 TYR A   1      -3.137   9.971  16.588  0.00  0.00    +0.000 A 
ATOM     14  CZ  TYR A   1      -3.908  10.903  17.274  0.00  0.00    +0.000 A 
ATOM     15  CE2 TYR A   1      -3.382  11.612  18.346  0.00  0.00    +0.000 A 
ATOM     16  CD2 TYR A   1      -2.064  11.386  18.746  0.00  0.00    +0.000 A 
BRANCH  14  17
ATOM     17  OH  TYR A   1      -5.205  11.144  16.928  0.00  0.00    +0.000 OA
ATOM     18  HH  TYR A   1      -5.328  10.890  15.999  0.00  0.00    +0.000 HD
ENDBRANCH  14  17
ENDBRANCH  10  11
ENDBRANCH   6  10
ENDBRANCH   2   6
ENDBRANCH   1   4
BRANCH   1  19
ATOM     19  C   PHE A   2       3.782   7.185  17.799  0.00  0.00    +0.000 C 
ATOM     20  O   PHE A   2       4.008   8.274  17.279  0.00  0.00    +0.000 OA
ATOM     21  N   GLU A   3       4.578   6.085  17.558  0.00  0.00    +0.000 N 
ATOM     22  H   GLU A   3       4.196   5.166  17.763  0.00  0.00    +0.000 HD
BRANCH  21  23
ATOM     23  CA  GLU A   3       5.807   6.166  16.774  0.00  0.00    +0.000 C 
BRANCH  23  24
ATOM     24  C   GLU A   3       5.419   5.816  15.326  0.00  0.00    +0.000 C 
ATOM     25  O   GLU A   3       5.201   6.660  14.472  0.00  0.00    +0.000 OA
BRANCH  24  26
ATOM     26  OXT GLU A   3       5.382   4.497  15.069  0.00  0.00    +0.000 OA
ATOM     27  HXT GLU A   3       5.982   4.190  14.358  0.00  0.00    +0.000 HD
ENDBRANCH  24  26
ENDBRANCH  23  24
BRANCH  23  28
ATOM     28  CB  GLU A   3       6.872   5.187  17.299  0.00  0.00    +0.000 C 
BRANCH  28  29
ATOM     29  CG  GLU A   3       7.783   5.780  18.373  0.00  0.00    +0.000 C 
BRANCH  29  30
ATOM     30  CD  GLU A   3       7.293   5.422  19.758  0.00  0.00    +0.000 C 
ATOM     31  OE1 GLU A   3       6.124   5.153  19.980  0.00  0.00    +0.000 OA
BRANCH  30  32
ATOM     32  OE2 GLU A   3       8.277   5.335  20.673  0.00  0.00    +0.000 OA
ATOM     33  HE2 GLU A   3       8.130   4.678  21.379  0.00  0.00    +0.000 HD
ENDBRANCH  30  32
ENDBRANCH  29  30
ENDBRANCH  28  29
ENDBRANCH  23  28
ENDBRANCH  21  23
ENDBRANCH   1  19
BRANCH   1  34
ATOM     34  CB  PHE A   2       1.792   5.667  18.163  0.00  0.00    +0.000 C 
BRANCH  34  35
ATOM     35  CG  PHE A   2       1.695   4.544  19.177  0.00  0.00    +0.000 A 
ATOM     36  CD1 PHE A   2       1.889   4.794  20.538  0.00  0.00    +0.000 A 
ATOM     37  CE1 PHE A   2       1.992   3.732  21.438  0.00  0.00    +0.000 A 
ATOM     38  CZ  PHE A   2       1.908   2.416  20.987  0.00  0.00    +0.000 A 
ATOM     39  CE2 PHE A   2       1.657   2.158  19.645  0.00  0.00    +0.000 A 
ATOM     40  CD2 PHE A   2       1.503   3.222  18.763  0.00  0.00    +0.000 A 
ENDBRANCH  34  35
ENDBRANCH   1  34
TORSDOF 16
ENDMDL
MODEL 9
REMARK VINA RESULT:      -7.4      2.741      3.856
REMARK  Name = 
REMARK  16 active torsions:
REMARK  status: ('A' for Active; 'I' for Inactive)
REMARK    1  A    between atoms: N_1  and  CA_2
REMARK    2  A    between atoms: CA_2  and  CB_3
REMARK    3  A    between atoms: CA_2  and  C_11
REMARK    4  A    between atoms: CB_3  and  CG_4
REMARK    5  A    between atoms: CZ_7  and  OH_8
REMARK    6  A    between atoms: N_13  and  CA_14
REMARK    7  A    between atoms: CA_14  and  CB_15
REMARK    8  A    between atoms: CA_14  and  C_22
REMARK    9  A    between atoms: CB_15  and  CG_16
REMARK   10  A    between atoms: N_24  and  CA_25
REMARK   11  A    between atoms: CA_25  and  CB_26
REMARK   12  A    between atoms: CA_25  and  C_31
REMARK   13  A    between atoms: CB_26  and  CG_27
REMARK   14  A    between atoms: CG_27  and  CD_28
REMARK   15  A    between atoms: CD_28  and  OE2_30
REMARK   16  A    between atoms: C_31  and  OXT_33
REMARK                            x       y       z     vdW  Elec       q    Type
REMARK                         _______ _______ _______ _____ _____    ______ ____
ROOT
ATOM      1  CA  PHE A   2       3.085   6.641  18.445  0.00  0.00    +0.000 C 
ENDROOT
BRANCH   1   4
ATOM      2  C   TYR A   1       1.835   8.745  18.968  0.00  0.00    +0.000 C 
ATOM      3  O   TYR A   1       1.530   8.367  20.094  0.00  0.00    +0.000 OA
ATOM      4  N   PHE A   2       2.650   8.015  18.131  0.00  0.00    +0.000 N 
ATOM      5  H   PHE A   2       2.601   8.311  17.155  0.00  0.00    +0.000 HD
BRANCH   2   6
ATOM      6  CA  TYR A   1       1.355  10.086  18.361  0.00  0.00    +0.000 C 
BRANCH   6   7
ATOM      7  N   TYR A   1       0.093   9.888  17.592  0.00  0.00    +0.000 NA
ATOM      8  H1  TYR A   1      -0.384  10.796  17.549  0.00  0.00    +0.000 HD
ATOM      9  H2  TYR A   1      -0.551   9.307  18.127  0.00  0.00    +0.000 HD
ENDBRANCH   6   7
BRANCH   6  10
ATOM     10  CB  TYR A   1       1.224  11.124  19.491  0.00  0.00    +0.000 C 
BRANCH  10  11
ATOM     11  CG  TYR A   1       1.510  12.552  19.090  0.00  0.00    +0.000 A 
ATOM     12  CD1 TYR A   1       0.620  13.576  19.446  0.00  0.00    +0.000 A 
ATOM     13  CE1 TYR A   1       0.901  14.906  19.126  0.00  0.00    +0.000 A 
ATOM     14  CZ  TYR A   1       2.077  15.211  18.451  0.00  0.00    +0.000 A 
ATOM     15  CE2 TYR A   1       2.972  14.212  18.091  0.00  0.00    +0.000 A 
ATOM     16  CD2 TYR A   1       2.693  12.884  18.413  0.00  0.00    +0.000 A 
BRANCH  14  17
ATOM     17  OH  TYR A   1       2.398  16.498  18.131  0.00  0.00    +0.000 OA
ATOM     18  HH  TYR A   1       2.667  16.525  17.198  0.00  0.00    +0.000 HD
ENDBRANCH  14  17
ENDBRANCH  10  11
ENDBRANCH   6  10
ENDBRANCH   2   6
ENDBRANCH   1   4
BRANCH   1  19
ATOM     19  C   PHE A   2       4.533   6.400  17.952  0.00  0.00    +0.000 C 
ATOM     20  O   PHE A   2       5.111   7.139  17.159  0.00  0.00    +0.000 OA
ATOM     21  N   GLU A   3       5.113   5.240  18.420  0.00  0.00    +0.000 N 
ATOM     22  H   GLU A   3       4.506   4.533  18.824  0.00  0.00    +0.000 HD
BRANCH  21  23
ATOM     23  CA  GLU A   3       6.491   4.873  18.107  0.00  0.00    +0.000 C 
BRANCH  23  24
ATOM     24  C   GLU A   3       7.384   5.744  19.010  0.00  0.00    +0.000 C 
ATOM     25  O   GLU A   3       7.631   5.466  20.172  0.00  0.00    +0.000 OA
BRANCH  24  26
ATOM     26  OXT GLU A   3       7.907   6.819  18.393  0.00  0.00    +0.000 OA
ATOM     27  HXT GLU A   3       7.335   7.235  17.716  0.00  0.00    +0.000 HD
ENDBRANCH  24  26
ENDBRANCH  23  24
BRANCH  23  28
ATOM     28  CB  GLU A   3       6.815   5.123  16.623  0.00  0.00    +0.000 C 
BRANCH  28  29
ATOM     29  CG  GLU A   3       6.238   4.070  15.678  0.00  0.00    +0.000 C 
BRANCH  29  30
ATOM     30  CD  GLU A   3       6.630   4.355  14.245  0.00  0.00    +0.000 C 
ATOM     31  OE1 GLU A   3       7.202   5.384  13.925  0.00  0.00    +0.000 OA
BRANCH  30  32
ATOM     32  OE2 GLU A   3       6.380   3.334  13.405  0.00  0.00    +0.000 OA
ATOM     33  HE2 GLU A   3       7.068   2.643  13.375  0.00  0.00    +0.000 HD
ENDBRANCH  30  32
ENDBRANCH  29  30
ENDBRANCH  28  29
ENDBRANCH  23  28
ENDBRANCH  21  23
ENDBRANCH   1  19
BRANCH   1  34
ATOM     34  CB  PHE A   2       2.164   5.515  17.899  0.00  0.00    +0.000 C 
BRANCH  34  35
ATOM     35  CG  PHE A   2       1.959   4.386  18.890  0.00  0.00    +0.000 A 
ATOM     36  CD1 PHE A   2       1.582   3.113  18.452  0.00  0.00    +0.000 A 
ATOM     37  CE1 PHE A   2       1.207   2.138  19.377  0.00  0.00    +0.000 A 
ATOM     38  CZ  PHE A   2       1.201   2.425  20.741  0.00  0.00    +0.000 A 
ATOM     39  CE2 PHE A   2       1.631   3.667  21.189  0.00  0.00    +0.000 A 
ATOM     40  CD2 PHE A   2       2.053   4.617  20.266  0.00  0.00    +0.000 A 
ENDBRANCH  34  35
ENDBRANCH   1  34
TORSDOF 16
ENDMDL
