MODEL 1
REMARK VINA RESULT:      -6.6      0.000      0.000
REMARK  Name = 
REMARK  3 active torsions:
REMARK  status: ('A' for Active; 'I' for Inactive)
REMARK    1  A    between atoms: N_2  and  C_3
REMARK    2  A    between atoms: C_6  and  C_7
REMARK    3  A    between atoms: C_8  and  C_9
REMARK                            x       y       z     vdW  Elec       q    Type
REMARK                         _______ _______ _______ _____ _____    ______ ____
ROOT
ATOM      1  C   UNL     1      10.055  13.503  18.784  0.00  0.00    +0.000 A 
ATOM      2  C   UNL     1      10.705  12.558  19.571  0.00  0.00    +0.000 A 
ATOM      3  C   UNL     1      10.316  11.219  19.483  0.00  0.00    +0.000 A 
ATOM      4  C   UNL     1       9.276  10.827  18.623  0.00  0.00    +0.000 A 
ATOM      5  C   UNL     1       8.656  11.800  17.823  0.00  0.00    +0.000 A 
ATOM      6  C   UNL     1       9.038  13.140  17.906  0.00  0.00    +0.000 A 
ENDROOT
BRANCH   1   8
ATOM      7  C   UNL     1      10.751  15.961  18.944  0.00  0.00    +0.000 C 
ATOM      8  N   UNL     1      10.431  14.836  18.871  0.00  0.00    +0.000 NA
ENDBRANCH   1   8
BRANCH   4   9
ATOM      9  C   UNL     1       8.913   9.405  18.562  0.00  0.00    +0.000 C 
ATOM     10  C   UNL     1       8.039   8.867  17.693  0.00  0.00    +0.000 C 
BRANCH  10  11
ATOM     11  C   UNL     1       7.684   7.438  17.688  0.00  0.00    +0.000 A 
ATOM     12  C   UNL     1       7.978   6.635  18.785  0.00  0.00    +0.000 A 
ATOM     13  C   UNL     1       7.633   5.284  18.741  0.00  0.00    +0.000 A 
ATOM     14  C   UNL     1       7.007   4.778  17.609  0.00  0.00    +0.000 A 
ATOM     15  C   UNL     1       6.751   5.647  16.563  0.00  0.00    +0.000 A 
ATOM     16  N   UNL     1       7.074   6.957  16.579  0.00  0.00    +0.000 NA
ENDBRANCH  10  11
ENDBRANCH   4   9
TORSDOF 3
ENDMDL
MODEL 2
REMARK VINA RESULT:      -6.4      7.486      9.574
REMARK  Name = 
REMARK  3 active torsions:
REMARK  status: ('A' for Active; 'I' for Inactive)
REMARK    1  A    between atoms: N_2  and  C_3
REMARK    2  A    between atoms: C_6  and  C_7
REMARK    3  A    between atoms: C_8  and  C_9
REMARK                            x       y       z     vdW  Elec       q    Type
REMARK                         _______ _______ _______ _____ _____    ______ ____
ROOT
ATOM      1  C   UNL     1       2.776   3.195  19.625  0.00  0.00    +0.000 A 
ATOM      2  C   UNL     1       2.069   3.108  18.430  0.00  0.00    +0.000 A 
ATOM      3  C   UNL     1       2.713   3.436  17.234  0.00  0.00    +0.000 A 
ATOM      4  C   UNL     1       4.053   3.859  17.233  0.00  0.00    +0.000 A 
ATOM      5  C   UNL     1       4.749   3.913  18.451  0.00  0.00    +0.000 A 
ATOM      6  C   UNL     1       4.111   3.588  19.650  0.00  0.00    +0.000 A 
ENDROOT
BRANCH   1   8
ATOM      7  C   UNL     1       1.600   2.613  21.822  0.00  0.00    +0.000 C 
ATOM      8  N   UNL     1       2.140   2.878  20.816  0.00  0.00    +0.000 NA
ENDBRANCH   1   8
BRANCH   4   9
ATOM      9  C   UNL     1       4.687   4.182  15.948  0.00  0.00    +0.000 C 
ATOM     10  C   UNL     1       5.934   3.829  15.589  0.00  0.00    +0.000 C 
BRANCH  10  11
ATOM     11  C   UNL     1       6.538   4.202  14.300  0.00  0.00    +0.000 A 
ATOM     12  C   UNL     1       6.156   3.554  13.129  0.00  0.00    +0.000 A 
ATOM     13  C   UNL     1       6.756   3.929  11.927  0.00  0.00    +0.000 A 
ATOM     14  C   UNL     1       7.714   4.935  11.929  0.00  0.00    +0.000 A 
ATOM     15  C   UNL     1       8.034   5.527  13.137  0.00  0.00    +0.000 A 
ATOM     16  N   UNL     1       7.470   5.184  14.314  0.00  0.00    +0.000 NA
ENDBRANCH  10  11
ENDBRANCH   4   9
TORSDOF 3
ENDMDL
MODEL 3
REMARK VINA RESULT:      -6.3      7.458      9.521
REMARK  Name = 
REMARK  3 active torsions:
REMARK  status: ('A' for Active; 'I' for Inactive)
REMARK    1  A    between atoms: N_2  and  C_3
REMARK    2  A    between atoms: C_6  and  C_7
REMARK    3  A    between atoms: C_8  and  C_9
REMARK                            x       y       z     vdW  Elec       q    Type
REMARK                         _______ _______ _______ _____ _____    ______ ____
ROOT
ATOM      1  C   UNL     1       2.585   3.282  19.732  0.00  0.00    +0.000 A 
ATOM      2  C   UNL     1       3.962   3.139  19.597  0.00  0.00    +0.000 A 
ATOM      3  C   UNL     1       4.557   3.425  18.365  0.00  0.00    +0.000 A 
ATOM      4  C   UNL     1       3.780   3.841  17.272  0.00  0.00    +0.000 A 
ATOM      5  C   UNL     1       2.396   4.001  17.445  0.00  0.00    +0.000 A 
ATOM      6  C   UNL     1       1.794   3.716  18.672  0.00  0.00    +0.000 A 
ENDROOT
BRANCH   1   8
ATOM      7  C   UNL     1       1.478   2.746  21.977  0.00  0.00    +0.000 C 
ATOM      8  N   UNL     1       1.987   2.992  20.950  0.00  0.00    +0.000 NA
ENDBRANCH   1   8
BRANCH   4   9
ATOM      9  C   UNL     1       4.456   4.139  16.002  0.00  0.00    +0.000 C 
ATOM     10  C   UNL     1       5.749   3.884  15.735  0.00  0.00    +0.000 C 
BRANCH  10  11
ATOM     11  C   UNL     1       6.391   4.227  14.456  0.00  0.00    +0.000 A 
ATOM     12  C   UNL     1       6.011   3.585  13.281  0.00  0.00    +0.000 A 
ATOM     13  C   UNL     1       6.647   3.931  12.090  0.00  0.00    +0.000 A 
ATOM     14  C   UNL     1       7.639   4.904  12.105  0.00  0.00    +0.000 A 
ATOM     15  C   UNL     1       7.955   5.492  13.317  0.00  0.00    +0.000 A 
ATOM     16  N   UNL     1       7.356   5.176  14.484  0.00  0.00    +0.000 NA
ENDBRANCH  10  11
ENDBRANCH   4   9
TORSDOF 3
ENDMDL
MODEL 4
REMARK VINA RESULT:      -6.3      0.863      1.440
REMARK  Name = 
REMARK  3 active torsions:
REMARK  status: ('A' for Active; 'I' for Inactive)
REMARK    1  A    between atoms: N_2  and  C_3
REMARK    2  A    between atoms: C_6  and  C_7
REMARK    3  A    between atoms: C_8  and  C_9
REMARK                            x       y       z     vdW  Elec       q    Type
REMARK                         _______ _______ _______ _____ _____    ______ ____
ROOT
ATOM      1  C   UNL     1       9.733  12.853  19.241  0.00  0.00    +0.000 A 
ATOM      2  C   UNL     1       9.214  12.451  18.014  0.00  0.00    +0.000 A 
ATOM      3  C   UNL     1       8.870  11.110  17.829  0.00  0.00    +0.000 A 
ATOM      4  C   UNL     1       9.055  10.172  18.858  0.00  0.00    +0.000 A 
ATOM      5  C   UNL     1       9.558  10.610  20.093  0.00  0.00    +0.000 A 
ATOM      6  C   UNL     1       9.905  11.949  20.286  0.00  0.00    +0.000 A 
ENDROOT
BRANCH   1   8
ATOM      7  C   UNL     1      10.383  15.304  19.591  0.00  0.00    +0.000 C 
ATOM      8  N   UNL     1      10.084  14.182  19.430  0.00  0.00    +0.000 NA
ENDBRANCH   1   8
BRANCH   4   9
ATOM      9  C   UNL     1       8.668   8.776  18.615  0.00  0.00    +0.000 C 
ATOM     10  C   UNL     1       7.769   8.370  17.701  0.00  0.00    +0.000 C 
BRANCH  10  11
ATOM     11  C   UNL     1       7.391   6.960  17.513  0.00  0.00    +0.000 A 
ATOM     12  C   UNL     1       6.979   6.189  18.595  0.00  0.00    +0.000 A 
ATOM     13  C   UNL     1       6.636   4.855  18.379  0.00  0.00    +0.000 A 
ATOM     14  C   UNL     1       6.714   4.331  17.094  0.00  0.00    +0.000 A 
ATOM     15  C   UNL     1       7.133   5.168  16.075  0.00  0.00    +0.000 A 
ATOM     16  N   UNL     1       7.471   6.461  16.256  0.00  0.00    +0.000 NA
ENDBRANCH  10  11
ENDBRANCH   4   9
TORSDOF 3
ENDMDL
MODEL 5
REMARK VINA RESULT:      -6.2      1.922      7.585
REMARK  Name = 
REMARK  3 active torsions:
REMARK  status: ('A' for Active; 'I' for Inactive)
REMARK    1  A    between atoms: N_2  and  C_3
REMARK    2  A    between atoms: C_6  and  C_7
REMARK    3  A    between atoms: C_8  and  C_9
REMARK                            x       y       z     vdW  Elec       q    Type
REMARK                         _______ _______ _______ _____ _____    ______ ____
ROOT
ATOM      1  C   UNL     1       5.947   5.354  17.519  0.00  0.00    +0.000 A 
ATOM      2  C   UNL     1       6.888   5.120  18.517  0.00  0.00    +0.000 A 
ATOM      3  C   UNL     1       7.790   6.134  18.851  0.00  0.00    +0.000 A 
ATOM      4  C   UNL     1       7.759   7.371  18.186  0.00  0.00    +0.000 A 
ATOM      5  C   UNL     1       6.783   7.587  17.200  0.00  0.00    +0.000 A 
ATOM      6  C   UNL     1       5.880   6.579  16.859  0.00  0.00    +0.000 A 
ENDROOT
BRANCH   1   8
ATOM      7  C   UNL     1       4.302   3.499  16.888  0.00  0.00    +0.000 C 
ATOM      8  N   UNL     1       5.054   4.350  17.176  0.00  0.00    +0.000 NA
ENDBRANCH   1   8
BRANCH   4   9
ATOM      9  C   UNL     1       8.723   8.406  18.583  0.00  0.00    +0.000 C 
ATOM     10  C   UNL     1       8.565   9.727  18.385  0.00  0.00    +0.000 C 
BRANCH  10  11
ATOM     11  C   UNL     1       9.573  10.726  18.775  0.00  0.00    +0.000 A 
ATOM     12  C   UNL     1      10.358  11.349  17.810  0.00  0.00    +0.000 A 
ATOM     13  C   UNL     1      11.308  12.286  18.217  0.00  0.00    +0.000 A 
ATOM     14  C   UNL     1      11.445  12.572  19.570  0.00  0.00    +0.000 A 
ATOM     15  C   UNL     1      10.623  11.907  20.463  0.00  0.00    +0.000 A 
ATOM     16  N   UNL     1       9.697  10.997  20.095  0.00  0.00    +0.000 NA
ENDBRANCH  10  11
ENDBRANCH   4   9
TORSDOF 3
ENDMDL
MODEL 6
REMARK VINA RESULT:      -6.2      1.886      7.502
REMARK  Name = 
REMARK  3 active torsions:
REMARK  status: ('A' for Active; 'I' for Inactive)
REMARK    1  A    between atoms: N_2  and  C_3
REMARK    2  A    between atoms: C_6  and  C_7
REMARK    3  A    between atoms: C_8  and  C_9
REMARK                            x       y       z     vdW  Elec       q    Type
REMARK                         _______ _______ _______ _____ _____    ______ ____
ROOT
ATOM      1  C   UNL     1       5.914   5.393  17.538  0.00  0.00    +0.000 A 
ATOM      2  C   UNL     1       6.869   5.150  18.520  0.00  0.00    +0.000 A 
ATOM      3  C   UNL     1       7.791   6.152  18.832  0.00  0.00    +0.000 A 
ATOM      4  C   UNL     1       7.768   7.385  18.159  0.00  0.00    +0.000 A 
ATOM      5  C   UNL     1       6.777   7.610  17.189  0.00  0.00    +0.000 A 
ATOM      6  C   UNL     1       5.853   6.613  16.871  0.00  0.00    +0.000 A 
ENDROOT
BRANCH   1   8
ATOM      7  C   UNL     1       4.225   3.563  16.947  0.00  0.00    +0.000 C 
ATOM      8  N   UNL     1       5.000   4.399  17.218  0.00  0.00    +0.000 NA
ENDBRANCH   1   8
BRANCH   4   9
ATOM      9  C   UNL     1       8.754   8.408  18.531  0.00  0.00    +0.000 C 
ATOM     10  C   UNL     1       8.569   9.736  18.426  0.00  0.00    +0.000 C 
BRANCH  10  11
ATOM     11  C   UNL     1       9.599  10.724  18.785  0.00  0.00    +0.000 A 
ATOM     12  C   UNL     1       9.792  11.091  20.114  0.00  0.00    +0.000 A 
ATOM     13  C   UNL     1      10.772  12.036  20.415  0.00  0.00    +0.000 A 
ATOM     14  C   UNL     1      11.528  12.585  19.386  0.00  0.00    +0.000 A 
ATOM     15  C   UNL     1      11.271  12.163  18.094  0.00  0.00    +0.000 A 
ATOM     16  N   UNL     1      10.329  11.252  17.774  0.00  0.00    +0.000 NA
ENDBRANCH  10  11
ENDBRANCH   4   9
TORSDOF 3
ENDMDL
MODEL 7
REMARK VINA RESULT:      -6.2      1.254      1.675
REMARK  Name = 
REMARK  3 active torsions:
REMARK  status: ('A' for Active; 'I' for Inactive)
REMARK    1  A    between atoms: N_2  and  C_3
REMARK    2  A    between atoms: C_6  and  C_7
REMARK    3  A    between atoms: C_8  and  C_9
REMARK                            x       y       z     vdW  Elec       q    Type
REMARK                         _______ _______ _______ _____ _____    ______ ____
ROOT
ATOM      1  C   UNL     1       9.780  12.065  19.376  0.00  0.00    +0.000 A 
ATOM      2  C   UNL     1       9.907  10.802  19.943  0.00  0.00    +0.000 A 
ATOM      3  C   UNL     1       9.242   9.723  19.355  0.00  0.00    +0.000 A 
ATOM      4  C   UNL     1       8.445   9.907  18.213  0.00  0.00    +0.000 A 
ATOM      5  C   UNL     1       8.355  11.188  17.647  0.00  0.00    +0.000 A 
ATOM      6  C   UNL     1       9.016  12.272  18.230  0.00  0.00    +0.000 A 
ENDROOT
BRANCH   1   8
ATOM      7  C   UNL     1      10.981  14.051  20.455  0.00  0.00    +0.000 C 
ATOM      8  N   UNL     1      10.431  13.142  19.959  0.00  0.00    +0.000 NA
ENDBRANCH   1   8
BRANCH   4   9
ATOM      9  C   UNL     1       7.775   8.737  17.628  0.00  0.00    +0.000 C 
ATOM     10  C   UNL     1       7.903   7.473  18.066  0.00  0.00    +0.000 C 
BRANCH  10  11
ATOM     11  C   UNL     1       7.234   6.327  17.428  0.00  0.00    +0.000 A 
ATOM     12  C   UNL     1       6.376   5.513  18.163  0.00  0.00    +0.000 A 
ATOM     13  C   UNL     1       5.766   4.433  17.526  0.00  0.00    +0.000 A 
ATOM     14  C   UNL     1       6.027   4.198  16.182  0.00  0.00    +0.000 A 
ATOM     15  C   UNL     1       6.892   5.057  15.527  0.00  0.00    +0.000 A 
ATOM     16  N   UNL     1       7.496   6.108  16.118  0.00  0.00    +0.000 NA
ENDBRANCH  10  11
ENDBRANCH   4   9
TORSDOF 3
ENDMDL
MODEL 8
REMARK VINA RESULT:      -6.1      1.822      7.498
REMARK  Name = 
REMARK  3 active torsions:
REMARK  status: ('A' for Active; 'I' for Inactive)
REMARK    1  A    between atoms: N_2  and  C_3
REMARK    2  A    between atoms: C_6  and  C_7
REMARK    3  A    between atoms: C_8  and  C_9
REMARK                            x       y       z     vdW  Elec       q    Type
REMARK                         _______ _______ _______ _____ _____    ______ ____
ROOT
ATOM      1  C   UNL     1       6.127   5.295  18.541  0.00  0.00    +0.000 A 
ATOM      2  C   UNL     1       7.323   5.539  19.208  0.00  0.00    +0.000 A 
ATOM      3  C   UNL     1       8.052   6.689  18.895  0.00  0.00    +0.000 A 
ATOM      4  C   UNL     1       7.594   7.585  17.914  0.00  0.00    +0.000 A 
ATOM      5  C   UNL     1       6.372   7.325  17.275  0.00  0.00    +0.000 A 
ATOM      6  C   UNL     1       5.638   6.177  17.581  0.00  0.00    +0.000 A 
ENDROOT
BRANCH   1   8
ATOM      7  C   UNL     1       4.786   3.185  19.092  0.00  0.00    +0.000 C 
ATOM      8  N   UNL     1       5.402   4.151  18.840  0.00  0.00    +0.000 NA
ENDBRANCH   1   8
BRANCH   4   9
ATOM      9  C   UNL     1       8.394   8.785  17.630  0.00  0.00    +0.000 C 
ATOM     10  C   UNL     1       8.526   9.839  18.455  0.00  0.00    +0.000 C 
BRANCH  10  11
ATOM     11  C   UNL     1       9.316  11.034  18.115  0.00  0.00    +0.000 A 
ATOM     12  C   UNL     1      10.704  10.966  18.046  0.00  0.00    +0.000 A 
ATOM     13  C   UNL     1      11.419  12.120  17.729  0.00  0.00    +0.000 A 
ATOM     14  C   UNL     1      10.730  13.303  17.488  0.00  0.00    +0.000 A 
ATOM     15  C   UNL     1       9.350  13.282  17.576  0.00  0.00    +0.000 A 
ATOM     16  N   UNL     1       8.634  12.180  17.883  0.00  0.00    +0.000 NA
ENDBRANCH  10  11
ENDBRANCH   4   9
TORSDOF 3
ENDMDL
MODEL 9
REMARK VINA RESULT:      -6.1      6.644      8.415
REMARK  Name = 
REMARK  3 active torsions:
REMARK  status: ('A' for Active; 'I' for Inactive)
REMARK    1  A    between atoms: N_2  and  C_3
REMARK    2  A    between atoms: C_6  and  C_7
REMARK    3  A    between atoms: C_8  and  C_9
REMARK                            x       y       z     vdW  Elec       q    Type
REMARK                         _______ _______ _______ _____ _____    ______ ____
ROOT
ATOM      1  C   UNL     1       7.010   5.103  14.729  0.00  0.00    +0.000 A 
ATOM      2  C   UNL     1       7.563   5.197  16.002  0.00  0.00    +0.000 A 
ATOM      3  C   UNL     1       6.771   4.889  17.111  0.00  0.00    +0.000 A 
ATOM      4  C   UNL     1       5.430   4.501  16.951  0.00  0.00    +0.000 A 
ATOM      5  C   UNL     1       4.906   4.392  15.653  0.00  0.00    +0.000 A 
ATOM      6  C   UNL     1       5.691   4.699  14.540  0.00  0.00    +0.000 A 
ENDROOT
BRANCH   1   8
ATOM      7  C   UNL     1       8.442   5.678  12.688  0.00  0.00    +0.000 C 
ATOM      8  N   UNL     1       7.788   5.415  13.624  0.00  0.00    +0.000 NA
ENDBRANCH   1   8
BRANCH   4   9
ATOM      9  C   UNL     1       4.644   4.179  18.150  0.00  0.00    +0.000 C 
ATOM     10  C   UNL     1       3.531   3.425  18.165  0.00  0.00    +0.000 C 
BRANCH  10  11
ATOM     11  C   UNL     1       2.759   3.152  19.389  0.00  0.00    +0.000 A 
ATOM     12  C   UNL     1       1.391   3.401  19.429  0.00  0.00    +0.000 A 
ATOM     13  C   UNL     1       0.694   3.138  20.608  0.00  0.00    +0.000 A 
ATOM     14  C   UNL     1       1.380   2.636  21.707  0.00  0.00    +0.000 A 
ATOM     15  C   UNL     1       2.740   2.417  21.581  0.00  0.00    +0.000 A 
ATOM     16  N   UNL     1       3.439   2.663  20.453  0.00  0.00    +0.000 NA
ENDBRANCH  10  11
ENDBRANCH   4   9
TORSDOF 3
ENDMDL
