MODEL 1
REMARK VINA RESULT:      -7.6      0.000      0.000
REMARK  Name = 
REMARK  7 active torsions:
REMARK  status: ('A' for Active; 'I' for Inactive)
REMARK    1  A    between atoms: C_1  and  C_2
REMARK    2  A    between atoms: C_2  and  C_4
REMARK    3  A    between atoms: C_5  and  O_6
REMARK    4  A    between atoms: C_13  and  C_14
REMARK    5  A    between atoms: C_15  and  O_16
REMARK    6  A    between atoms: C_18  and  C_19
REMARK    7  A    between atoms: C_24  and  C_25
REMARK                            x       y       z     vdW  Elec       q    Type
REMARK                         _______ _______ _______ _____ _____    ______ ____
ROOT
ATOM      1  C   UNL     1      -3.294  14.688  24.020  0.00  0.00    +0.000 C 
ATOM      2  C   UNL     1      -3.843  13.515  24.404  0.00  0.00    +0.000 C 
ATOM      3  C   UNL     1      -4.284  12.676  23.339  0.00  0.00    +0.000 C 
ATOM      4  C   UNL     1      -3.276  12.735  22.461  0.00  0.00    +0.000 C 
ATOM      5  O   UNL     1      -2.025  12.218  22.809  0.00  0.00    +0.000 OA
ATOM      6  C   UNL     1      -1.488  11.898  21.615  0.00  0.00    +0.000 A 
ATOM      7  C   UNL     1      -0.688  10.825  21.343  0.00  0.00    +0.000 A 
ATOM      8  C   UNL     1      -0.735  10.380  20.024  0.00  0.00    +0.000 A 
ATOM      9  C   UNL     1      -1.499  10.877  18.968  0.00  0.00    +0.000 A 
ATOM     10  C   UNL     1      -1.522  10.156  17.652  0.00  0.00    +0.000 C 
ATOM     11  C   UNL     1      -2.286  11.991  19.276  0.00  0.00    +0.000 A 
ATOM     12  C   UNL     1      -2.197  12.518  20.587  0.00  0.00    +0.000 A 
ATOM     13  C   UNL     1      -3.255  13.653  21.215  0.00  0.00    +0.000 C 
ATOM     14  C   UNL     1      -2.763  14.777  20.202  0.00  0.00    +0.000 C 
ATOM     15  C   UNL     1      -3.145  14.920  22.487  0.00  0.00    +0.000 C 
ATOM     16  O   UNL     1      -3.108  16.137  22.226  0.00  0.00    +0.000 OA
ATOM     17  O   UNL     1       0.027   9.217  19.910  0.00  0.00    +0.000 OA
ATOM     18  C   UNL     1       0.485   8.902  21.188  0.00  0.00    +0.000 C 
ATOM     19  C   UNL     1       1.235   7.852  21.559  0.00  0.00    +0.000 C 
ATOM     20  C   UNL     1       0.037   9.932  22.185  0.00  0.00    +0.000 C 
ATOM     21  O   UNL     1       0.289   9.904  23.382  0.00  0.00    +0.000 OA
ENDROOT
BRANCH  19  22
ATOM     22  C   UNL     1       1.782   6.904  20.658  0.00  0.00    +0.000 A 
ATOM     23  C   UNL     1       1.823   5.527  20.570  0.00  0.00    +0.000 A 
ATOM     24  C   UNL     1       2.459   5.179  19.353  0.00  0.00    +0.000 A 
ATOM     25  C   UNL     1       2.812   6.353  18.731  0.00  0.00    +0.000 A 
ATOM     26  N   UNL     1       2.422   7.390  19.535  0.00  0.00    +0.000 N 
ATOM     27  H   UNL     1       2.554   8.368  19.313  0.00  0.00    +0.000 HD
ENDBRANCH  19  22
BRANCH   1  29
ATOM     28  C   UNL     1      -3.735  16.886  25.354  0.00  0.00    +0.000 C 
ATOM     29  C   UNL     1      -2.955  15.615  25.130  0.00  0.00    +0.000 C 
ATOM     30  O   UNL     1      -2.121  15.250  25.968  0.00  0.00    +0.000 OA
ENDBRANCH   1  29
BRANCH   2  31
ATOM     31  O   UNL     1      -3.881  12.992  25.668  0.00  0.00    +0.000 OA
ATOM     32  H   UNL     1      -4.228  12.073  25.595  0.00  0.00    +0.000 HD
ENDBRANCH   2  31
BRANCH  11  33
ATOM     33  O   UNL     1      -3.226  12.457  18.391  0.00  0.00    +0.000 OA
ATOM     34  H   UNL     1      -3.357  11.805  17.682  0.00  0.00    +0.000 HD
ENDBRANCH  11  33
TORSDOF 4
ENDMDL
MODEL 2
REMARK VINA RESULT:      -7.3      3.288      5.049
REMARK  Name = 
REMARK  7 active torsions:
REMARK  status: ('A' for Active; 'I' for Inactive)
REMARK    1  A    between atoms: C_1  and  C_2
REMARK    2  A    between atoms: C_2  and  C_4
REMARK    3  A    between atoms: C_5  and  O_6
REMARK    4  A    between atoms: C_13  and  C_14
REMARK    5  A    between atoms: C_15  and  O_16
REMARK    6  A    between atoms: C_18  and  C_19
REMARK    7  A    between atoms: C_24  and  C_25
REMARK                            x       y       z     vdW  Elec       q    Type
REMARK                         _______ _______ _______ _____ _____    ______ ____
ROOT
ATOM      1  C   UNL     1       0.966  16.420  19.287  0.00  0.00    +0.000 C 
ATOM      2  C   UNL     1       2.240  16.061  19.560  0.00  0.00    +0.000 C 
ATOM      3  C   UNL     1       2.398  15.203  20.687  0.00  0.00    +0.000 C 
ATOM      4  C   UNL     1       1.424  14.300  20.529  0.00  0.00    +0.000 C 
ATOM      5  O   UNL     1       1.456  13.434  19.433  0.00  0.00    +0.000 OA
ATOM      6  C   UNL     1       0.765  12.364  19.873  0.00  0.00    +0.000 A 
ATOM      7  C   UNL     1       1.019  11.053  19.584  0.00  0.00    +0.000 A 
ATOM      8  C   UNL     1       0.590  10.147  20.550  0.00  0.00    +0.000 A 
ATOM      9  C   UNL     1      -0.042  10.410  21.766  0.00  0.00    +0.000 A 
ATOM     10  C   UNL     1      -0.287   9.297  22.741  0.00  0.00    +0.000 C 
ATOM     11  C   UNL     1      -0.310  11.759  22.017  0.00  0.00    +0.000 A 
ATOM     12  C   UNL     1       0.040  12.698  21.017  0.00  0.00    +0.000 A 
ATOM     13  C   UNL     1       0.056  14.355  21.251  0.00  0.00    +0.000 C 
ATOM     14  C   UNL     1      -1.522  14.415  21.447  0.00  0.00    +0.000 C 
ATOM     15  C   UNL     1      -0.143  15.788  20.181  0.00  0.00    +0.000 C 
ATOM     16  O   UNL     1      -1.160  16.507  20.197  0.00  0.00    +0.000 OA
ATOM     17  O   UNL     1       1.015   8.868  20.192  0.00  0.00    +0.000 OA
ATOM     18  C   UNL     1       1.777   9.000  19.033  0.00  0.00    +0.000 C 
ATOM     19  C   UNL     1       2.407   8.033  18.347  0.00  0.00    +0.000 C 
ATOM     20  C   UNL     1       1.821  10.432  18.583  0.00  0.00    +0.000 C 
ATOM     21  O   UNL     1       2.424  10.838  17.599  0.00  0.00    +0.000 OA
ENDROOT
BRANCH  19  22
ATOM     22  C   UNL     1       2.318   6.651  18.650  0.00  0.00    +0.000 A 
ATOM     23  C   UNL     1       2.147   5.486  17.930  0.00  0.00    +0.000 A 
ATOM     24  C   UNL     1       2.240   4.393  18.827  0.00  0.00    +0.000 A 
ATOM     25  C   UNL     1       2.447   4.915  20.082  0.00  0.00    +0.000 A 
ATOM     26  N   UNL     1       2.470   6.279  19.971  0.00  0.00    +0.000 N 
ATOM     27  H   UNL     1       2.615   6.913  20.746  0.00  0.00    +0.000 HD
ENDBRANCH  19  22
BRANCH   1  29
ATOM     28  C   UNL     1      -0.443  17.481  17.366  0.00  0.00    +0.000 C 
ATOM     29  C   UNL     1       0.815  17.414  18.196  0.00  0.00    +0.000 C 
ATOM     30  O   UNL     1       1.676  18.296  18.078  0.00  0.00    +0.000 OA
ENDBRANCH   1  29
BRANCH   2  31
ATOM     31  O   UNL     1       3.349  16.303  18.796  0.00  0.00    +0.000 OA
ATOM     32  H   UNL     1       3.824  17.065  19.203  0.00  0.00    +0.000 HD
ENDBRANCH   2  31
BRANCH  11  33
ATOM     33  O   UNL     1      -0.748  12.173  23.250  0.00  0.00    +0.000 OA
ATOM     34  H   UNL     1      -0.489  11.522  23.923  0.00  0.00    +0.000 HD
ENDBRANCH  11  33
TORSDOF 4
ENDMDL
MODEL 3
REMARK VINA RESULT:      -7.2      2.681      3.225
REMARK  Name = 
REMARK  7 active torsions:
REMARK  status: ('A' for Active; 'I' for Inactive)
REMARK    1  A    between atoms: C_1  and  C_2
REMARK    2  A    between atoms: C_2  and  C_4
REMARK    3  A    between atoms: C_5  and  O_6
REMARK    4  A    between atoms: C_13  and  C_14
REMARK    5  A    between atoms: C_15  and  O_16
REMARK    6  A    between atoms: C_18  and  C_19
REMARK    7  A    between atoms: C_24  and  C_25
REMARK                            x       y       z     vdW  Elec       q    Type
REMARK                         _______ _______ _______ _____ _____    ______ ____
ROOT
ATOM      1  C   UNL     1      -6.417  14.859  22.127  0.00  0.00    +0.000 C 
ATOM      2  C   UNL     1      -6.298  13.718  22.840  0.00  0.00    +0.000 C 
ATOM      3  C   UNL     1      -6.418  12.516  22.083  0.00  0.00    +0.000 C 
ATOM      4  C   UNL     1      -5.672  12.757  20.999  0.00  0.00    +0.000 C 
ATOM      5  O   UNL     1      -4.293  12.940  21.135  0.00  0.00    +0.000 OA
ATOM      6  C   UNL     1      -3.818  12.567  19.931  0.00  0.00    +0.000 A 
ATOM      7  C   UNL     1      -2.647  11.908  19.684  0.00  0.00    +0.000 A 
ATOM      8  C   UNL     1      -2.641  11.144  18.519  0.00  0.00    +0.000 A 
ATOM      9  C   UNL     1      -3.670  10.958  17.598  0.00  0.00    +0.000 A 
ATOM     10  C   UNL     1      -3.511   9.967  16.482  0.00  0.00    +0.000 C 
ATOM     11  C   UNL     1      -4.845  11.667  17.868  0.00  0.00    +0.000 A 
ATOM     12  C   UNL     1      -4.856  12.518  19.000  0.00  0.00    +0.000 A 
ATOM     13  C   UNL     1      -6.238  13.217  19.634  0.00  0.00    +0.000 C 
ATOM     14  C   UNL     1      -6.461  14.119  18.342  0.00  0.00    +0.000 C 
ATOM     15  C   UNL     1      -6.583  14.704  20.585  0.00  0.00    +0.000 C 
ATOM     16  O   UNL     1      -7.156  15.698  20.101  0.00  0.00    +0.000 OA
ATOM     17  O   UNL     1      -1.441  10.436  18.450  0.00  0.00    +0.000 OA
ATOM     18  C   UNL     1      -0.736  10.709  19.621  0.00  0.00    +0.000 C 
ATOM     19  C   UNL     1       0.458  10.224  19.995  0.00  0.00    +0.000 C 
ATOM     20  C   UNL     1      -1.491  11.678  20.484  0.00  0.00    +0.000 C 
ATOM     21  O   UNL     1      -1.112  12.088  21.573  0.00  0.00    +0.000 OA
ENDROOT
BRANCH  19  22
ATOM     22  C   UNL     1       1.273   9.395  19.185  0.00  0.00    +0.000 A 
ATOM     23  C   UNL     1       1.826   9.474  17.923  0.00  0.00    +0.000 A 
ATOM     24  C   UNL     1       2.637   8.331  17.721  0.00  0.00    +0.000 A 
ATOM     25  C   UNL     1       2.547   7.564  18.858  0.00  0.00    +0.000 A 
ATOM     26  N   UNL     1       1.704   8.201  19.729  0.00  0.00    +0.000 N 
ATOM     27  H   UNL     1       1.466   7.857  20.650  0.00  0.00    +0.000 HD
ENDBRANCH  19  22
BRANCH   1  29
ATOM     28  C   UNL     1      -7.707  16.831  23.247  0.00  0.00    +0.000 C 
ATOM     29  C   UNL     1      -6.422  16.106  22.933  0.00  0.00    +0.000 C 
ATOM     30  O   UNL     1      -5.369  16.458  23.480  0.00  0.00    +0.000 OA
ENDBRANCH   1  29
BRANCH   2  31
ATOM     31  O   UNL     1      -5.931  13.597  24.153  0.00  0.00    +0.000 OA
ATOM     32  H   UNL     1      -6.701  13.222  24.639  0.00  0.00    +0.000 HD
ENDBRANCH   2  31
BRANCH  11  33
ATOM     33  O   UNL     1      -5.994  11.427  17.156  0.00  0.00    +0.000 OA
ATOM     34  H   UNL     1      -6.064  12.065  16.426  0.00  0.00    +0.000 HD
ENDBRANCH  11  33
TORSDOF 4
ENDMDL
MODEL 4
REMARK VINA RESULT:      -7.1      1.737      2.045
REMARK  Name = 
REMARK  7 active torsions:
REMARK  status: ('A' for Active; 'I' for Inactive)
REMARK    1  A    between atoms: C_1  and  C_2
REMARK    2  A    between atoms: C_2  and  C_4
REMARK    3  A    between atoms: C_5  and  O_6
REMARK    4  A    between atoms: C_13  and  C_14
REMARK    5  A    between atoms: C_15  and  O_16
REMARK    6  A    between atoms: C_18  and  C_19
REMARK    7  A    between atoms: C_24  and  C_25
REMARK                            x       y       z     vdW  Elec       q    Type
REMARK                         _______ _______ _______ _____ _____    ______ ____
ROOT
ATOM      1  C   UNL     1      -3.203  14.028  22.605  0.00  0.00    +0.000 C 
ATOM      2  C   UNL     1      -3.981  13.056  22.078  0.00  0.00    +0.000 C 
ATOM      3  C   UNL     1      -3.624  12.646  20.760  0.00  0.00    +0.000 C 
ATOM      4  C   UNL     1      -2.292  12.535  20.819  0.00  0.00    +0.000 C 
ATOM      5  O   UNL     1      -1.715  11.569  21.648  0.00  0.00    +0.000 OA
ATOM      6  C   UNL     1      -0.529  11.331  21.053  0.00  0.00    +0.000 A 
ATOM      7  C   UNL     1       0.112  10.128  20.966  0.00  0.00    +0.000 A 
ATOM      8  C   UNL     1       0.964   9.998  19.871  0.00  0.00    +0.000 A 
ATOM      9  C   UNL     1       1.225  10.922  18.861  0.00  0.00    +0.000 A 
ATOM     10  C   UNL     1       2.063  10.528  17.680  0.00  0.00    +0.000 C 
ATOM     11  C   UNL     1       0.572  12.151  18.996  0.00  0.00    +0.000 A 
ATOM     12  C   UNL     1      -0.237  12.345  20.142  0.00  0.00    +0.000 A 
ATOM     13  C   UNL     1      -1.303  13.621  20.331  0.00  0.00    +0.000 C 
ATOM     14  C   UNL     1      -0.127  14.692  20.377  0.00  0.00    +0.000 C 
ATOM     15  C   UNL     1      -1.993  14.497  21.744  0.00  0.00    +0.000 C 
ATOM     16  O   UNL     1      -1.656  15.656  22.049  0.00  0.00    +0.000 OA
ATOM     17  O   UNL     1       1.457   8.693  19.835  0.00  0.00    +0.000 OA
ATOM     18  C   UNL     1       0.844   7.995  20.873  0.00  0.00    +0.000 C 
ATOM     19  C   UNL     1       0.999   6.702  21.200  0.00  0.00    +0.000 C 
ATOM     20  C   UNL     1      -0.067   8.895  21.657  0.00  0.00    +0.000 C 
ATOM     21  O   UNL     1      -0.738   8.546  22.618  0.00  0.00    +0.000 OA
ENDROOT
BRANCH  19  22
ATOM     22  C   UNL     1       1.920   5.825  20.574  0.00  0.00    +0.000 A 
ATOM     23  C   UNL     1       1.985   4.469  20.323  0.00  0.00    +0.000 A 
ATOM     24  C   UNL     1       3.150   4.215  19.558  0.00  0.00    +0.000 A 
ATOM     25  C   UNL     1       3.784   5.421  19.374  0.00  0.00    +0.000 A 
ATOM     26  N   UNL     1       3.048   6.385  20.010  0.00  0.00    +0.000 N 
ATOM     27  H   UNL     1       3.286   7.368  20.026  0.00  0.00    +0.000 HD
ENDBRANCH  19  22
BRANCH   1  29
ATOM     28  C   UNL     1      -4.556  15.749  24.023  0.00  0.00    +0.000 C 
ATOM     29  C   UNL     1      -3.653  14.545  23.922  0.00  0.00    +0.000 C 
ATOM     30  O   UNL     1      -3.403  13.878  24.934  0.00  0.00    +0.000 OA
ENDBRANCH   1  29
BRANCH   2  31
ATOM     31  O   UNL     1      -4.953  12.337  22.716  0.00  0.00    +0.000 OA
ATOM     32  H   UNL     1      -4.569  12.012  23.564  0.00  0.00    +0.000 HD
ENDBRANCH   2  31
BRANCH  11  33
ATOM     33  O   UNL     1       0.586  13.073  17.979  0.00  0.00    +0.000 OA
ATOM     34  H   UNL     1       0.784  12.628  17.139  0.00  0.00    +0.000 HD
ENDBRANCH  11  33
TORSDOF 4
ENDMDL
MODEL 5
REMARK VINA RESULT:      -6.8      2.186      2.475
REMARK  Name = 
REMARK  7 active torsions:
REMARK  status: ('A' for Active; 'I' for Inactive)
REMARK    1  A    between atoms: C_1  and  C_2
REMARK    2  A    between atoms: C_2  and  C_4
REMARK    3  A    between atoms: C_5  and  O_6
REMARK    4  A    between atoms: C_13  and  C_14
REMARK    5  A    between atoms: C_15  and  O_16
REMARK    6  A    between atoms: C_18  and  C_19
REMARK    7  A    between atoms: C_24  and  C_25
REMARK                            x       y       z     vdW  Elec       q    Type
REMARK                         _______ _______ _______ _____ _____    ______ ____
ROOT
ATOM      1  C   UNL     1      -0.110  15.666  22.529  0.00  0.00    +0.000 C 
ATOM      2  C   UNL     1      -0.870  14.826  23.266  0.00  0.00    +0.000 C 
ATOM      3  C   UNL     1      -1.746  13.988  22.516  0.00  0.00    +0.000 C 
ATOM      4  C   UNL     1      -0.975  13.553  21.513  0.00  0.00    +0.000 C 
ATOM      5  O   UNL     1       0.125  12.737  21.791  0.00  0.00    +0.000 OA
ATOM      6  C   UNL     1       0.281  12.041  20.647  0.00  0.00    +0.000 A 
ATOM      7  C   UNL     1       0.670  10.737  20.533  0.00  0.00    +0.000 A 
ATOM      8  C   UNL     1       0.218  10.090  19.386  0.00  0.00    +0.000 A 
ATOM      9  C   UNL     1      -0.584  10.596  18.364  0.00  0.00    +0.000 A 
ATOM     10  C   UNL     1      -1.090   9.685  17.284  0.00  0.00    +0.000 C 
ATOM     11  C   UNL     1      -0.943  11.941  18.500  0.00  0.00    +0.000 A 
ATOM     12  C   UNL     1      -0.430  12.649  19.613  0.00  0.00    +0.000 A 
ATOM     13  C   UNL     1      -0.967  14.161  20.090  0.00  0.00    +0.000 C 
ATOM     14  C   UNL     1      -0.409  14.855  18.771  0.00  0.00    +0.000 C 
ATOM     15  C   UNL     1      -0.235  15.543  20.981  0.00  0.00    +0.000 C 
ATOM     16  O   UNL     1       0.085  16.611  20.426  0.00  0.00    +0.000 OA
ATOM     17  O   UNL     1       0.580   8.744  19.452  0.00  0.00    +0.000 OA
ATOM     18  C   UNL     1       1.196   8.547  20.687  0.00  0.00    +0.000 C 
ATOM     19  C   UNL     1       1.682   7.402  21.191  0.00  0.00    +0.000 C 
ATOM     20  C   UNL     1       1.279   9.835  21.454  0.00  0.00    +0.000 C 
ATOM     21  O   UNL     1       1.764   9.955  22.571  0.00  0.00    +0.000 OA
ENDROOT
BRANCH  19  22
ATOM     22  C   UNL     1       1.736   6.176  20.482  0.00  0.00    +0.000 A 
ATOM     23  C   UNL     1       1.201   4.913  20.640  0.00  0.00    +0.000 A 
ATOM     24  C   UNL     1       1.562   4.134  19.514  0.00  0.00    +0.000 A 
ATOM     25  C   UNL     1       2.328   4.932  18.698  0.00  0.00    +0.000 A 
ATOM     26  N   UNL     1       2.448   6.156  19.299  0.00  0.00    +0.000 N 
ATOM     27  H   UNL     1       2.957   6.938  18.908  0.00  0.00    +0.000 HD
ENDBRANCH  19  22
BRANCH   1  29
ATOM     28  C   UNL     1       0.166  17.983  23.695  0.00  0.00    +0.000 C 
ATOM     29  C   UNL     1       0.705  16.627  23.314  0.00  0.00    +0.000 C 
ATOM     30  O   UNL     1       1.779  16.238  23.789  0.00  0.00    +0.000 OA
ENDBRANCH   1  29
BRANCH   2  31
ATOM     31  O   UNL     1      -0.780  14.593  24.611  0.00  0.00    +0.000 OA
ATOM     32  H   UNL     1      -1.538  14.015  24.859  0.00  0.00    +0.000 HD
ENDBRANCH   2  31
BRANCH  11  33
ATOM     33  O   UNL     1      -1.881  12.508  17.675  0.00  0.00    +0.000 OA
ATOM     34  H   UNL     1      -2.702  11.988  17.709  0.00  0.00    +0.000 HD
ENDBRANCH  11  33
TORSDOF 4
ENDMDL
MODEL 6
REMARK VINA RESULT:      -6.7      2.761      4.578
REMARK  Name = 
REMARK  7 active torsions:
REMARK  status: ('A' for Active; 'I' for Inactive)
REMARK    1  A    between atoms: C_1  and  C_2
REMARK    2  A    between atoms: C_2  and  C_4
REMARK    3  A    between atoms: C_5  and  O_6
REMARK    4  A    between atoms: C_13  and  C_14
REMARK    5  A    between atoms: C_15  and  O_16
REMARK    6  A    between atoms: C_18  and  C_19
REMARK    7  A    between atoms: C_24  and  C_25
REMARK                            x       y       z     vdW  Elec       q    Type
REMARK                         _______ _______ _______ _____ _____    ______ ____
ROOT
ATOM      1  C   UNL     1      -0.275  15.972  19.801  0.00  0.00    +0.000 C 
ATOM      2  C   UNL     1       1.054  15.848  20.006  0.00  0.00    +0.000 C 
ATOM      3  C   UNL     1       1.425  14.916  21.020  0.00  0.00    +0.000 C 
ATOM      4  C   UNL     1       0.643  13.860  20.771  0.00  0.00    +0.000 C 
ATOM      5  O   UNL     1       0.801  13.149  19.577  0.00  0.00    +0.000 OA
ATOM      6  C   UNL     1       0.353  11.919  19.897  0.00  0.00    +0.000 A 
ATOM      7  C   UNL     1       0.849  10.728  19.448  0.00  0.00    +0.000 A 
ATOM      8  C   UNL     1       0.647   9.650  20.306  0.00  0.00    +0.000 A 
ATOM      9  C   UNL     1       0.026   9.639  21.554  0.00  0.00    +0.000 A 
ATOM     10  C   UNL     1       0.046   8.395  22.393  0.00  0.00    +0.000 C 
ATOM     11  C   UNL     1      -0.493  10.869  21.971  0.00  0.00    +0.000 A 
ATOM     12  C   UNL     1      -0.377  11.967  21.085  0.00  0.00    +0.000 A 
ATOM     13  C   UNL     1      -0.678  13.556  21.517  0.00  0.00    +0.000 C 
ATOM     14  C   UNL     1      -2.228  13.275  21.745  0.00  0.00    +0.000 C 
ATOM     15  C   UNL     1      -1.200  15.032  20.630  0.00  0.00    +0.000 C 
ATOM     16  O   UNL     1      -2.338  15.525  20.750  0.00  0.00    +0.000 OA
ATOM     17  O   UNL     1       1.301   8.532  19.789  0.00  0.00    +0.000 OA
ATOM     18  C   UNL     1       1.975   8.946  18.641  0.00  0.00    +0.000 C 
ATOM     19  C   UNL     1       2.755   8.211  17.833  0.00  0.00    +0.000 C 
ATOM     20  C   UNL     1       1.717  10.400  18.366  0.00  0.00    +0.000 C 
ATOM     21  O   UNL     1       2.187  11.029  17.428  0.00  0.00    +0.000 OA
ENDROOT
BRANCH  19  22
ATOM     22  C   UNL     1       2.954   6.814  17.970  0.00  0.00    +0.000 A 
ATOM     23  C   UNL     1       2.156   5.718  18.235  0.00  0.00    +0.000 A 
ATOM     24  C   UNL     1       2.957   4.554  18.144  0.00  0.00    +0.000 A 
ATOM     25  C   UNL     1       4.235   4.964  17.844  0.00  0.00    +0.000 A 
ATOM     26  N   UNL     1       4.230   6.331  17.763  0.00  0.00    +0.000 N 
ATOM     27  H   UNL     1       5.042   6.893  17.546  0.00  0.00    +0.000 HD
ENDBRANCH  19  22
BRANCH   1  29
ATOM     28  C   UNL     1      -1.101  18.398  19.313  0.00  0.00    +0.000 C 
ATOM     29  C   UNL     1      -0.665  17.034  18.839  0.00  0.00    +0.000 C 
ATOM     30  O   UNL     1      -0.475  16.835  17.632  0.00  0.00    +0.000 OA
ENDBRANCH   1  29
BRANCH   2  31
ATOM     31  O   UNL     1       2.062  16.394  19.259  0.00  0.00    +0.000 OA
ATOM     32  H   UNL     1       2.026  15.974  18.368  0.00  0.00    +0.000 HD
ENDBRANCH   2  31
BRANCH  11  33
ATOM     33  O   UNL     1      -0.954  11.043  23.252  0.00  0.00    +0.000 OA
ATOM     34  H   UNL     1      -1.467  10.263  23.522  0.00  0.00    +0.000 HD
ENDBRANCH  11  33
TORSDOF 4
ENDMDL
MODEL 7
REMARK VINA RESULT:      -6.7      1.696      2.021
REMARK  Name = 
REMARK  7 active torsions:
REMARK  status: ('A' for Active; 'I' for Inactive)
REMARK    1  A    between atoms: C_1  and  C_2
REMARK    2  A    between atoms: C_2  and  C_4
REMARK    3  A    between atoms: C_5  and  O_6
REMARK    4  A    between atoms: C_13  and  C_14
REMARK    5  A    between atoms: C_15  and  O_16
REMARK    6  A    between atoms: C_18  and  C_19
REMARK    7  A    between atoms: C_24  and  C_25
REMARK                            x       y       z     vdW  Elec       q    Type
REMARK                         _______ _______ _______ _____ _____    ______ ____
ROOT
ATOM      1  C   UNL     1      -4.515  15.220  23.426  0.00  0.00    +0.000 C 
ATOM      2  C   UNL     1      -4.436  14.053  24.103  0.00  0.00    +0.000 C 
ATOM      3  C   UNL     1      -4.842  12.900  23.369  0.00  0.00    +0.000 C 
ATOM      4  C   UNL     1      -4.260  13.070  22.177  0.00  0.00    +0.000 C 
ATOM      5  O   UNL     1      -2.866  13.064  22.081  0.00  0.00    +0.000 OA
ATOM      6  C   UNL     1      -2.652  12.665  20.812  0.00  0.00    +0.000 A 
ATOM      7  C   UNL     1      -1.639  11.863  20.368  0.00  0.00    +0.000 A 
ATOM      8  C   UNL     1      -1.929  11.139  19.214  0.00  0.00    +0.000 A 
ATOM      9  C   UNL     1      -3.113  11.119  18.477  0.00  0.00    +0.000 A 
ATOM     10  C   UNL     1      -3.277  10.148  17.345  0.00  0.00    +0.000 C 
ATOM     11  C   UNL     1      -4.119  11.970  18.945  0.00  0.00    +0.000 A 
ATOM     12  C   UNL     1      -3.826  12.781  20.068  0.00  0.00    +0.000 A 
ATOM     13  C   UNL     1      -4.976  13.640  20.929  0.00  0.00    +0.000 C 
ATOM     14  C   UNL     1      -5.284  14.601  19.698  0.00  0.00    +0.000 C 
ATOM     15  C   UNL     1      -4.953  15.132  21.933  0.00  0.00    +0.000 C 
ATOM     16  O   UNL     1      -5.456  16.208  21.557  0.00  0.00    +0.000 OA
ATOM     17  O   UNL     1      -0.866  10.278  18.941  0.00  0.00    +0.000 OA
ATOM     18  C   UNL     1       0.053  10.421  19.979  0.00  0.00    +0.000 C 
ATOM     19  C   UNL     1       1.216   9.771  20.145  0.00  0.00    +0.000 C 
ATOM     20  C   UNL     1      -0.409  11.458  20.962  0.00  0.00    +0.000 C 
ATOM     21  O   UNL     1       0.197  11.782  21.974  0.00  0.00    +0.000 OA
ENDROOT
BRANCH  19  22
ATOM     22  C   UNL     1       1.765   8.863  19.204  0.00  0.00    +0.000 A 
ATOM     23  C   UNL     1       2.141   8.915  17.877  0.00  0.00    +0.000 A 
ATOM     24  C   UNL     1       2.721   7.670  17.531  0.00  0.00    +0.000 A 
ATOM     25  C   UNL     1       2.668   6.874  18.651  0.00  0.00    +0.000 A 
ATOM     26  N   UNL     1       2.069   7.593  19.651  0.00  0.00    +0.000 N 
ATOM     27  H   UNL     1       1.911   7.247  20.588  0.00  0.00    +0.000 HD
ENDBRANCH  19  22
BRANCH   1  29
ATOM     28  C   UNL     1      -3.031  17.309  23.914  0.00  0.00    +0.000 C 
ATOM     29  C   UNL     1      -4.216  16.432  24.230  0.00  0.00    +0.000 C 
ATOM     30  O   UNL     1      -5.048  16.802  25.068  0.00  0.00    +0.000 OA
ENDBRANCH   1  29
BRANCH   2  31
ATOM     31  O   UNL     1      -3.877  13.846  25.334  0.00  0.00    +0.000 OA
ATOM     32  H   UNL     1      -3.110  13.240  25.210  0.00  0.00    +0.000 HD
ENDBRANCH   2  31
BRANCH  11  33
ATOM     33  O   UNL     1      -5.391  11.906  18.434  0.00  0.00    +0.000 OA
ATOM     34  H   UNL     1      -5.349  11.762  17.474  0.00  0.00    +0.000 HD
ENDBRANCH  11  33
TORSDOF 4
ENDMDL
MODEL 8
REMARK VINA RESULT:      -6.7      3.659      5.537
REMARK  Name = 
REMARK  7 active torsions:
REMARK  status: ('A' for Active; 'I' for Inactive)
REMARK    1  A    between atoms: C_1  and  C_2
REMARK    2  A    between atoms: C_2  and  C_4
REMARK    3  A    between atoms: C_5  and  O_6
REMARK    4  A    between atoms: C_13  and  C_14
REMARK    5  A    between atoms: C_15  and  O_16
REMARK    6  A    between atoms: C_18  and  C_19
REMARK    7  A    between atoms: C_24  and  C_25
REMARK                            x       y       z     vdW  Elec       q    Type
REMARK                         _______ _______ _______ _____ _____    ______ ____
ROOT
ATOM      1  C   UNL     1       2.127  15.609  18.981  0.00  0.00    +0.000 C 
ATOM      2  C   UNL     1       3.319  15.074  19.325  0.00  0.00    +0.000 C 
ATOM      3  C   UNL     1       3.292  14.219  20.465  0.00  0.00    +0.000 C 
ATOM      4  C   UNL     1       2.207  13.463  20.260  0.00  0.00    +0.000 C 
ATOM      5  O   UNL     1       2.171  12.586  19.172  0.00  0.00    +0.000 OA
ATOM      6  C   UNL     1       1.310  11.634  19.581  0.00  0.00    +0.000 A 
ATOM      7  C   UNL     1       1.386  10.296  19.315  0.00  0.00    +0.000 A 
ATOM      8  C   UNL     1       0.780   9.476  20.262  0.00  0.00    +0.000 A 
ATOM      9  C   UNL     1       0.129   9.844  21.440  0.00  0.00    +0.000 A 
ATOM     10  C   UNL     1      -0.325   8.791  22.408  0.00  0.00    +0.000 C 
ATOM     11  C   UNL     1       0.047  11.221  21.668  0.00  0.00    +0.000 A 
ATOM     12  C   UNL     1       0.582  12.085  20.682  0.00  0.00    +0.000 A 
ATOM     13  C   UNL     1       0.826  13.726  20.906  0.00  0.00    +0.000 C 
ATOM     14  C   UNL     1      -0.735  14.016  21.016  0.00  0.00    +0.000 C 
ATOM     15  C   UNL     1       0.893  15.157  19.818  0.00  0.00    +0.000 C 
ATOM     16  O   UNL     1      -0.009  16.015  19.774  0.00  0.00    +0.000 OA
ATOM     17  O   UNL     1       1.033   8.143  19.935  0.00  0.00    +0.000 OA
ATOM     18  C   UNL     1       1.866   8.147  18.818  0.00  0.00    +0.000 C 
ATOM     19  C   UNL     1       2.384   7.090  18.174  0.00  0.00    +0.000 C 
ATOM     20  C   UNL     1       2.141   9.552  18.363  0.00  0.00    +0.000 C 
ATOM     21  O   UNL     1       2.848   9.852  17.410  0.00  0.00    +0.000 OA
ENDROOT
BRANCH  19  22
ATOM     22  C   UNL     1       2.081   5.740  18.481  0.00  0.00    +0.000 A 
ATOM     23  C   UNL     1       1.904   4.574  17.762  0.00  0.00    +0.000 A 
ATOM     24  C   UNL     1       1.706   3.514  18.680  0.00  0.00    +0.000 A 
ATOM     25  C   UNL     1       1.747   4.057  19.942  0.00  0.00    +0.000 A 
ATOM     26  N   UNL     1       1.950   5.405  19.814  0.00  0.00    +0.000 N 
ATOM     27  H   UNL     1       2.029   6.048  20.590  0.00  0.00    +0.000 HD
ENDBRANCH  19  22
BRANCH   1  29
ATOM     28  C   UNL     1       1.526  17.953  18.007  0.00  0.00    +0.000 C 
ATOM     29  C   UNL     1       2.179  16.600  17.877  0.00  0.00    +0.000 C 
ATOM     30  O   UNL     1       2.903  16.358  16.902  0.00  0.00    +0.000 OA
ENDBRANCH   1  29
BRANCH   2  31
ATOM     31  O   UNL     1       4.490  15.143  18.621  0.00  0.00    +0.000 OA
ATOM     32  H   UNL     1       4.656  16.093  18.419  0.00  0.00    +0.000 HD
ENDBRANCH   2  31
BRANCH  11  33
ATOM     33  O   UNL     1      -0.390  11.712  22.873  0.00  0.00    +0.000 OA
ATOM     34  H   UNL     1      -0.828  12.569  22.735  0.00  0.00    +0.000 HD
ENDBRANCH  11  33
TORSDOF 4
ENDMDL
MODEL 9
REMARK VINA RESULT:      -6.5      2.000      2.495
REMARK  Name = 
REMARK  7 active torsions:
REMARK  status: ('A' for Active; 'I' for Inactive)
REMARK    1  A    between atoms: C_1  and  C_2
REMARK    2  A    between atoms: C_2  and  C_4
REMARK    3  A    between atoms: C_5  and  O_6
REMARK    4  A    between atoms: C_13  and  C_14
REMARK    5  A    between atoms: C_15  and  O_16
REMARK    6  A    between atoms: C_18  and  C_19
REMARK    7  A    between atoms: C_24  and  C_25
REMARK                            x       y       z     vdW  Elec       q    Type
REMARK                         _______ _______ _______ _____ _____    ______ ____
ROOT
ATOM      1  C   UNL     1      -3.896  13.790  22.456  0.00  0.00    +0.000 C 
ATOM      2  C   UNL     1      -4.455  12.930  21.577  0.00  0.00    +0.000 C 
ATOM      3  C   UNL     1      -3.851  12.907  20.286  0.00  0.00    +0.000 C 
ATOM      4  C   UNL     1      -2.541  12.894  20.558  0.00  0.00    +0.000 C 
ATOM      5  O   UNL     1      -1.982  11.795  21.218  0.00  0.00    +0.000 OA
ATOM      6  C   UNL     1      -0.699  11.817  20.808  0.00  0.00    +0.000 A 
ATOM      7  C   UNL     1       0.094  10.736  20.549  0.00  0.00    +0.000 A 
ATOM      8  C   UNL     1       1.114  10.965  19.629  0.00  0.00    +0.000 A 
ATOM      9  C   UNL     1       1.411  12.138  18.938  0.00  0.00    +0.000 A 
ATOM     10  C   UNL     1       2.464  12.135  17.869  0.00  0.00    +0.000 C 
ATOM     11  C   UNL     1       0.596  13.232  19.246  0.00  0.00    +0.000 A 
ATOM     12  C   UNL     1      -0.398  13.055  20.238  0.00  0.00    +0.000 A 
ATOM     13  C   UNL     1      -1.632  14.146  20.535  0.00  0.00    +0.000 C 
ATOM     14  C   UNL     1      -0.619  15.260  21.051  0.00  0.00    +0.000 C 
ATOM     15  C   UNL     1      -2.635  14.565  21.969  0.00  0.00    +0.000 C 
ATOM     16  O   UNL     1      -2.497  15.628  22.602  0.00  0.00    +0.000 OA
ATOM     17  O   UNL     1       1.766   9.759  19.367  0.00  0.00    +0.000 OA
ATOM     18  C   UNL     1       1.092   8.767  20.076  0.00  0.00    +0.000 C 
ATOM     19  C   UNL     1       1.354   7.451  20.102  0.00  0.00    +0.000 C 
ATOM     20  C   UNL     1      -0.035   9.355  20.877  0.00  0.00    +0.000 C 
ATOM     21  O   UNL     1      -0.798   8.713  21.587  0.00  0.00    +0.000 OA
ENDROOT
BRANCH  19  22
ATOM     22  C   UNL     1       2.463   6.844  19.461  0.00  0.00    +0.000 A 
ATOM     23  C   UNL     1       3.093   6.969  18.238  0.00  0.00    +0.000 A 
ATOM     24  C   UNL     1       4.231   6.125  18.238  0.00  0.00    +0.000 A 
ATOM     25  C   UNL     1       4.262   5.487  19.454  0.00  0.00    +0.000 A 
ATOM     26  N   UNL     1       3.179   5.908  20.179  0.00  0.00    +0.000 N 
ATOM     27  H   UNL     1       2.964   5.600  21.118  0.00  0.00    +0.000 HD
ENDBRANCH  19  22
BRANCH   1  29
ATOM     28  C   UNL     1      -5.677  14.948  23.971  0.00  0.00    +0.000 C 
ATOM     29  C   UNL     1      -4.605  13.909  23.755  0.00  0.00    +0.000 C 
ATOM     30  O   UNL     1      -4.414  13.037  24.613  0.00  0.00    +0.000 OA
ENDBRANCH   1  29
BRANCH   2  31
ATOM     31  O   UNL     1      -5.417  11.992  21.835  0.00  0.00    +0.000 OA
ATOM     32  H   UNL     1      -5.096  11.135  21.470  0.00  0.00    +0.000 HD
ENDBRANCH   2  31
BRANCH  11  33
ATOM     33  O   UNL     1       0.653  14.385  18.503  0.00  0.00    +0.000 OA
ATOM     34  H   UNL     1       0.058  14.309  17.738  0.00  0.00    +0.000 HD
ENDBRANCH  11  33
TORSDOF 4
ENDMDL
