MODEL 1
REMARK VINA RESULT:      -8.3      0.000      0.000
REMARK  Name = 
REMARK  4 active torsions:
REMARK  status: ('A' for Active; 'I' for Inactive)
REMARK    1  A    between atoms: C_5  and  C_6
REMARK    2  A    between atoms: C_6  and  N_7
REMARK    3  A    between atoms: C_12  and  C_13
REMARK    4  A    between atoms: C_13  and  N_14
REMARK                            x       y       z     vdW  Elec       q    Type
REMARK                         _______ _______ _______ _____ _____    ______ ____
ROOT
ATOM      1  N   UNL     1       1.829   6.905  20.171  0.00  0.00    +0.000 NA
ATOM      2  C   UNL     1       1.754   5.486  20.523  0.00  0.00    +0.000 C 
ATOM      3  C   UNL     1       2.953   4.589  20.205  0.00  0.00    +0.000 C 
ATOM      4  N   UNL     1       3.740   5.089  19.109  0.00  0.00    +0.000 N 
ATOM      5  N   UNL     1       4.761   4.365  18.621  0.00  0.00    +0.000 NA
ATOM      6  C   UNL     1       5.330   5.176  17.714  0.00  0.00    +0.000 A 
ATOM      7  C   UNL     1       4.641   6.412  17.630  0.00  0.00    +0.000 A 
ATOM      8  C   UNL     1       3.629   6.328  18.563  0.00  0.00    +0.000 A 
ATOM      9  C   UNL     1       2.583   7.287  18.983  0.00  0.00    +0.000 C 
ENDROOT
BRANCH   1  10
ATOM     10  C   UNL     1       1.867   7.861  21.273  0.00  0.00    +0.000 C 
BRANCH  10  15
ATOM     11  F   UNL     1      -1.750  12.115  20.399  0.00  0.00    +0.000 F 
ATOM     12  C   UNL     1      -0.870  11.129  20.614  0.00  0.00    +0.000 A 
ATOM     13  C   UNL     1      -0.192  10.576  19.532  0.00  0.00    +0.000 A 
ATOM     14  C   UNL     1       0.709   9.529  19.745  0.00  0.00    +0.000 A 
ATOM     15  C   UNL     1       0.930   9.028  21.042  0.00  0.00    +0.000 A 
ATOM     16  C   UNL     1       0.257   9.625  22.114  0.00  0.00    +0.000 A 
ATOM     17  F   UNL     1       0.469   9.181  23.361  0.00  0.00    +0.000 F 
ATOM     18  C   UNL     1      -0.644  10.663  21.902  0.00  0.00    +0.000 A 
ATOM     19  F   UNL     1      -1.299  11.205  22.938  0.00  0.00    +0.000 F 
ENDBRANCH  10  15
ENDBRANCH   1  10
BRANCH   6  20
ATOM     20  C   UNL     1       6.581   4.770  16.979  0.00  0.00    +0.000 C 
BRANCH  20  21
ATOM     21  N   UNL     1       7.028   5.650  15.910  0.00  0.00    +0.000 N 
ATOM     22  C   UNL     1       6.950   5.068  14.654  0.00  0.00    +0.000 A 
ATOM     23  N   UNL     1       5.998   4.163  14.390  0.00  0.00    +0.000 NA
ATOM     24  C   UNL     1       5.961   3.644  13.148  0.00  0.00    +0.000 A 
ATOM     25  C   UNL     1       6.851   3.985  12.164  0.00  0.00    +0.000 A 
ATOM     26  C   UNL     1       7.797   4.907  12.530  0.00  0.00    +0.000 A 
ATOM     27  N   UNL     1       7.873   5.458  13.761  0.00  0.00    +0.000 NA
ATOM     28  H   UNL     1       7.953   6.040  16.018  0.00  0.00    +0.000 HD
ENDBRANCH  20  21
ENDBRANCH   6  20
TORSDOF 4
ENDMDL
MODEL 2
REMARK VINA RESULT:      -8.3      4.896      7.386
REMARK  Name = 
REMARK  4 active torsions:
REMARK  status: ('A' for Active; 'I' for Inactive)
REMARK    1  A    between atoms: C_5  and  C_6
REMARK    2  A    between atoms: C_6  and  N_7
REMARK    3  A    between atoms: C_12  and  C_13
REMARK    4  A    between atoms: C_13  and  N_14
REMARK                            x       y       z     vdW  Elec       q    Type
REMARK                         _______ _______ _______ _____ _____    ______ ____
ROOT
ATOM      1  N   UNL     1       4.645   4.093  16.264  0.00  0.00    +0.000 NA
ATOM      2  C   UNL     1       5.642   4.097  15.192  0.00  0.00    +0.000 C 
ATOM      3  C   UNL     1       6.954   4.852  15.415  0.00  0.00    +0.000 C 
ATOM      4  N   UNL     1       6.819   5.920  16.371  0.00  0.00    +0.000 N 
ATOM      5  N   UNL     1       7.843   6.760  16.599  0.00  0.00    +0.000 NA
ATOM      6  C   UNL     1       7.412   7.528  17.612  0.00  0.00    +0.000 A 
ATOM      7  C   UNL     1       6.099   7.168  18.005  0.00  0.00    +0.000 A 
ATOM      8  C   UNL     1       5.754   6.109  17.193  0.00  0.00    +0.000 A 
ATOM      9  C   UNL     1       4.537   5.270  17.116  0.00  0.00    +0.000 C 
ENDROOT
BRANCH   1  10
ATOM     10  C   UNL     1       4.382   2.817  16.921  0.00  0.00    +0.000 C 
BRANCH  10  15
ATOM     11  F   UNL     1       0.481   3.149  20.998  0.00  0.00    +0.000 F 
ATOM     12  C   UNL     1       1.415   3.101  20.039  0.00  0.00    +0.000 A 
ATOM     13  C   UNL     1       1.053   3.371  18.723  0.00  0.00    +0.000 A 
ATOM     14  C   UNL     1       2.016   3.297  17.714  0.00  0.00    +0.000 A 
ATOM     15  C   UNL     1       3.345   2.947  18.017  0.00  0.00    +0.000 A 
ATOM     16  C   UNL     1       3.687   2.711  19.354  0.00  0.00    +0.000 A 
ATOM     17  F   UNL     1       4.952   2.399  19.670  0.00  0.00    +0.000 F 
ATOM     18  C   UNL     1       2.728   2.778  20.358  0.00  0.00    +0.000 A 
ATOM     19  F   UNL     1       3.068   2.524  21.629  0.00  0.00    +0.000 F 
ENDBRANCH  10  15
ENDBRANCH   1  10
BRANCH   6  20
ATOM     20  C   UNL     1       8.306   8.568  18.237  0.00  0.00    +0.000 C 
BRANCH  20  21
ATOM     21  N   UNL     1       8.515   9.794  17.480  0.00  0.00    +0.000 N 
ATOM     22  C   UNL     1       9.019  10.832  18.248  0.00  0.00    +0.000 A 
ATOM     23  N   UNL     1       9.823  10.571  19.288  0.00  0.00    +0.000 NA
ATOM     24  C   UNL     1      10.296  11.619  19.988  0.00  0.00    +0.000 A 
ATOM     25  C   UNL     1       9.982  12.920  19.695  0.00  0.00    +0.000 A 
ATOM     26  C   UNL     1       9.143  13.089  18.624  0.00  0.00    +0.000 A 
ATOM     27  N   UNL     1       8.646  12.070  17.891  0.00  0.00    +0.000 NA
ATOM     28  H   UNL     1       7.713  10.140  16.973  0.00  0.00    +0.000 HD
ENDBRANCH  20  21
ENDBRANCH   6  20
TORSDOF 4
ENDMDL
MODEL 3
REMARK VINA RESULT:      -8.2      5.339      7.475
REMARK  Name = 
REMARK  4 active torsions:
REMARK  status: ('A' for Active; 'I' for Inactive)
REMARK    1  A    between atoms: C_5  and  C_6
REMARK    2  A    between atoms: C_6  and  N_7
REMARK    3  A    between atoms: C_12  and  C_13
REMARK    4  A    between atoms: C_13  and  N_14
REMARK                            x       y       z     vdW  Elec       q    Type
REMARK                         _______ _______ _______ _____ _____    ______ ____
ROOT
ATOM      1  N   UNL     1       4.507   5.342  17.184  0.00  0.00    +0.000 NA
ATOM      2  C   UNL     1       5.306   4.456  18.033  0.00  0.00    +0.000 C 
ATOM      3  C   UNL     1       6.413   5.070  18.893  0.00  0.00    +0.000 C 
ATOM      4  N   UNL     1       6.915   6.304  18.347  0.00  0.00    +0.000 N 
ATOM      5  N   UNL     1       7.969   6.916  18.911  0.00  0.00    +0.000 NA
ATOM      6  C   UNL     1       8.076   8.069  18.231  0.00  0.00    +0.000 A 
ATOM      7  C   UNL     1       7.084   8.164  17.224  0.00  0.00    +0.000 A 
ATOM      8  C   UNL     1       6.336   7.011  17.342  0.00  0.00    +0.000 A 
ATOM      9  C   UNL     1       5.148   6.518  16.610  0.00  0.00    +0.000 C 
ENDROOT
BRANCH   1  10
ATOM     10  C   UNL     1       3.098   5.502  17.532  0.00  0.00    +0.000 C 
BRANCH  10  15
ATOM     11  F   UNL     1       1.488   2.355  21.942  0.00  0.00    +0.000 F 
ATOM     12  C   UNL     1       1.900   3.087  20.899  0.00  0.00    +0.000 A 
ATOM     13  C   UNL     1       2.297   4.404  21.108  0.00  0.00    +0.000 A 
ATOM     14  C   UNL     1       2.703   5.183  20.021  0.00  0.00    +0.000 A 
ATOM     15  C   UNL     1       2.707   4.647  18.719  0.00  0.00    +0.000 A 
ATOM     16  C   UNL     1       2.332   3.311  18.544  0.00  0.00    +0.000 A 
ATOM     17  F   UNL     1       2.351   2.771  17.316  0.00  0.00    +0.000 F 
ATOM     18  C   UNL     1       1.922   2.537  19.624  0.00  0.00    +0.000 A 
ATOM     19  F   UNL     1       1.541   1.266  19.433  0.00  0.00    +0.000 F 
ENDBRANCH  10  15
ENDBRANCH   1  10
BRANCH   6  20
ATOM     20  C   UNL     1       9.105   9.104  18.608  0.00  0.00    +0.000 C 
BRANCH  20  21
ATOM     21  N   UNL     1       8.878  10.459  18.125  0.00  0.00    +0.000 N 
ATOM     22  C   UNL     1       9.587  11.417  18.832  0.00  0.00    +0.000 A 
ATOM     23  N   UNL     1      10.776  11.114  19.370  0.00  0.00    +0.000 NA
ATOM     24  C   UNL     1      11.427  12.090  20.032  0.00  0.00    +0.000 A 
ATOM     25  C   UNL     1      10.924  13.355  20.188  0.00  0.00    +0.000 A 
ATOM     26  C   UNL     1       9.697  13.568  19.617  0.00  0.00    +0.000 A 
ATOM     27  N   UNL     1       9.008  12.622  18.942  0.00  0.00    +0.000 NA
ATOM     28  H   UNL     1       7.913  10.754  18.077  0.00  0.00    +0.000 HD
ENDBRANCH  20  21
ENDBRANCH   6  20
TORSDOF 4
ENDMDL
MODEL 4
REMARK VINA RESULT:      -8.1      4.192      8.770
REMARK  Name = 
REMARK  4 active torsions:
REMARK  status: ('A' for Active; 'I' for Inactive)
REMARK    1  A    between atoms: C_5  and  C_6
REMARK    2  A    between atoms: C_6  and  N_7
REMARK    3  A    between atoms: C_12  and  C_13
REMARK    4  A    between atoms: C_13  and  N_14
REMARK                            x       y       z     vdW  Elec       q    Type
REMARK                         _______ _______ _______ _____ _____    ______ ____
ROOT
ATOM      1  N   UNL     1       4.100   6.357  17.905  0.00  0.00    +0.000 NA
ATOM      2  C   UNL     1       3.840   6.114  19.325  0.00  0.00    +0.000 C 
ATOM      3  C   UNL     1       2.584   6.722  19.954  0.00  0.00    +0.000 C 
ATOM      4  N   UNL     1       2.137   7.902  19.261  0.00  0.00    +0.000 N 
ATOM      5  N   UNL     1       1.118   8.629  19.747  0.00  0.00    +0.000 NA
ATOM      6  C   UNL     1       0.901   9.557  18.801  0.00  0.00    +0.000 A 
ATOM      7  C   UNL     1       1.809   9.410  17.722  0.00  0.00    +0.000 A 
ATOM      8  C   UNL     1       2.581   8.314  18.045  0.00  0.00    +0.000 A 
ATOM      9  C   UNL     1       3.682   7.629  17.331  0.00  0.00    +0.000 C 
ENDROOT
BRANCH   1  10
ATOM     10  C   UNL     1       4.021   5.207  17.010  0.00  0.00    +0.000 C 
BRANCH  10  15
ATOM     11  F   UNL     1       1.568   0.838  19.625  0.00  0.00    +0.000 F 
ATOM     12  C   UNL     1       2.143   1.859  18.977  0.00  0.00    +0.000 A 
ATOM     13  C   UNL     1       3.528   1.889  18.849  0.00  0.00    +0.000 A 
ATOM     14  C   UNL     1       4.138   2.964  18.197  0.00  0.00    +0.000 A 
ATOM     15  C   UNL     1       3.363   4.016  17.674  0.00  0.00    +0.000 A 
ATOM     16  C   UNL     1       1.970   3.943  17.789  0.00  0.00    +0.000 A 
ATOM     17  F   UNL     1       1.209   4.922  17.278  0.00  0.00    +0.000 F 
ATOM     18  C   UNL     1       1.363   2.877  18.444  0.00  0.00    +0.000 A 
ATOM     19  F   UNL     1       0.029   2.837  18.568  0.00  0.00    +0.000 F 
ENDBRANCH  10  15
ENDBRANCH   1  10
BRANCH   6  20
ATOM     20  C   UNL     1      -0.232  10.544  18.921  0.00  0.00    +0.000 C 
BRANCH  20  21
ATOM     21  N   UNL     1      -0.710  11.145  17.684  0.00  0.00    +0.000 N 
ATOM     22  C   UNL     1      -2.090  11.254  17.627  0.00  0.00    +0.000 A 
ATOM     23  N   UNL     1      -2.798  11.438  18.750  0.00  0.00    +0.000 NA
ATOM     24  C   UNL     1      -4.135  11.552  18.631  0.00  0.00    +0.000 A 
ATOM     25  C   UNL     1      -4.791  11.475  17.431  0.00  0.00    +0.000 A 
ATOM     26  C   UNL     1      -3.987  11.272  16.340  0.00  0.00    +0.000 A 
ATOM     27  N   UNL     1      -2.643  11.154  16.409  0.00  0.00    +0.000 NA
ATOM     28  H   UNL     1      -0.394  10.708  16.830  0.00  0.00    +0.000 HD
ENDBRANCH  20  21
ENDBRANCH   6  20
TORSDOF 4
ENDMDL
MODEL 5
REMARK VINA RESULT:      -8.1      4.669     10.033
REMARK  Name = 
REMARK  4 active torsions:
REMARK  status: ('A' for Active; 'I' for Inactive)
REMARK    1  A    between atoms: C_5  and  C_6
REMARK    2  A    between atoms: C_6  and  N_7
REMARK    3  A    between atoms: C_12  and  C_13
REMARK    4  A    between atoms: C_13  and  N_14
REMARK                            x       y       z     vdW  Elec       q    Type
REMARK                         _______ _______ _______ _____ _____    ______ ____
ROOT
ATOM      1  N   UNL     1       2.143   8.067  18.946  0.00  0.00    +0.000 NA
ATOM      2  C   UNL     1       1.883   7.974  20.384  0.00  0.00    +0.000 C 
ATOM      3  C   UNL     1       0.617   8.626  20.942  0.00  0.00    +0.000 C 
ATOM      4  N   UNL     1       0.154   9.718  20.125  0.00  0.00    +0.000 N 
ATOM      5  N   UNL     1      -0.878  10.477  20.530  0.00  0.00    +0.000 NA
ATOM      6  C   UNL     1      -1.106  11.295  19.489  0.00  0.00    +0.000 A 
ATOM      7  C   UNL     1      -0.194  11.046  18.433  0.00  0.00    +0.000 A 
ATOM      8  C   UNL     1       0.595  10.004  18.873  0.00  0.00    +0.000 A 
ATOM      9  C   UNL     1       1.707   9.263  18.237  0.00  0.00    +0.000 C 
ENDROOT
BRANCH   1  10
ATOM     10  C   UNL     1       2.084   6.826  18.179  0.00  0.00    +0.000 C 
BRANCH  10  15
ATOM     11  F   UNL     1       7.155   4.333  18.060  0.00  0.00    +0.000 F 
ATOM     12  C   UNL     1       5.943   4.902  18.065  0.00  0.00    +0.000 A 
ATOM     13  C   UNL     1       5.730   6.054  17.314  0.00  0.00    +0.000 A 
ATOM     14  C   UNL     1       4.475   6.669  17.335  0.00  0.00    +0.000 A 
ATOM     15  C   UNL     1       3.430   6.136  18.113  0.00  0.00    +0.000 A 
ATOM     16  C   UNL     1       3.665   4.960  18.834  0.00  0.00    +0.000 A 
ATOM     17  F   UNL     1       2.678   4.420  19.564  0.00  0.00    +0.000 F 
ATOM     18  C   UNL     1       4.915   4.351  18.818  0.00  0.00    +0.000 A 
ATOM     19  F   UNL     1       5.129   3.239  19.535  0.00  0.00    +0.000 F 
ENDBRANCH  10  15
ENDBRANCH   1  10
BRANCH   6  20
ATOM     20  C   UNL     1      -2.254  12.271  19.501  0.00  0.00    +0.000 C 
BRANCH  20  21
ATOM     21  N   UNL     1      -3.228  12.150  18.426  0.00  0.00    +0.000 N 
ATOM     22  C   UNL     1      -4.508  11.864  18.876  0.00  0.00    +0.000 A 
ATOM     23  N   UNL     1      -4.917  12.316  20.070  0.00  0.00    +0.000 NA
ATOM     24  C   UNL     1      -6.175  12.022  20.448  0.00  0.00    +0.000 A 
ATOM     25  C   UNL     1      -7.035  11.280  19.683  0.00  0.00    +0.000 A 
ATOM     26  C   UNL     1      -6.525  10.850  18.485  0.00  0.00    +0.000 A 
ATOM     27  N   UNL     1      -5.272  11.121  18.062  0.00  0.00    +0.000 NA
ATOM     28  H   UNL     1      -2.999  11.490  17.696  0.00  0.00    +0.000 HD
ENDBRANCH  20  21
ENDBRANCH   6  20
TORSDOF 4
ENDMDL
MODEL 6
REMARK VINA RESULT:      -8.0      5.282      7.587
REMARK  Name = 
REMARK  4 active torsions:
REMARK  status: ('A' for Active; 'I' for Inactive)
REMARK    1  A    between atoms: C_5  and  C_6
REMARK    2  A    between atoms: C_6  and  N_7
REMARK    3  A    between atoms: C_12  and  C_13
REMARK    4  A    between atoms: C_13  and  N_14
REMARK                            x       y       z     vdW  Elec       q    Type
REMARK                         _______ _______ _______ _____ _____    ______ ____
ROOT
ATOM      1  N   UNL     1       5.779   4.800  16.353  0.00  0.00    +0.000 NA
ATOM      2  C   UNL     1       6.644   4.049  17.265  0.00  0.00    +0.000 C 
ATOM      3  C   UNL     1       7.368   4.810  18.379  0.00  0.00    +0.000 C 
ATOM      4  N   UNL     1       7.580   6.196  18.052  0.00  0.00    +0.000 N 
ATOM      5  N   UNL     1       8.304   6.982  18.865  0.00  0.00    +0.000 NA
ATOM      6  C   UNL     1       8.188   8.204  18.322  0.00  0.00    +0.000 A 
ATOM      7  C   UNL     1       7.394   8.170  17.149  0.00  0.00    +0.000 A 
ATOM      8  C   UNL     1       7.000   6.856  17.016  0.00  0.00    +0.000 A 
ATOM      9  C   UNL     1       6.143   6.171  16.022  0.00  0.00    +0.000 C 
ENDROOT
BRANCH   1  10
ATOM     10  C   UNL     1       4.347   4.530  16.424  0.00  0.00    +0.000 C 
BRANCH  10  15
ATOM     11  F   UNL     1       2.284   4.660  21.685  0.00  0.00    +0.000 F 
ATOM     12  C   UNL     1       2.803   4.623  20.451  0.00  0.00    +0.000 A 
ATOM     13  C   UNL     1       3.128   5.818  19.815  0.00  0.00    +0.000 A 
ATOM     14  C   UNL     1       3.646   5.789  18.517  0.00  0.00    +0.000 A 
ATOM     15  C   UNL     1       3.834   4.565  17.849  0.00  0.00    +0.000 A 
ATOM     16  C   UNL     1       3.527   3.379  18.525  0.00  0.00    +0.000 A 
ATOM     17  F   UNL     1       3.720   2.199  17.918  0.00  0.00    +0.000 F 
ATOM     18  C   UNL     1       3.006   3.407  19.814  0.00  0.00    +0.000 A 
ATOM     19  F   UNL     1       2.693   2.261  20.437  0.00  0.00    +0.000 F 
ENDBRANCH  10  15
ENDBRANCH   1  10
BRANCH   6  20
ATOM     20  C   UNL     1       8.798   9.413  18.985  0.00  0.00    +0.000 C 
BRANCH  20  21
ATOM     21  N   UNL     1       9.185  10.512  18.113  0.00  0.00    +0.000 N 
ATOM     22  C   UNL     1       9.677  11.610  18.802  0.00  0.00    +0.000 A 
ATOM     23  N   UNL     1      10.336  11.440  19.957  0.00  0.00    +0.000 NA
ATOM     24  C   UNL     1      10.805  12.541  20.574  0.00  0.00    +0.000 A 
ATOM     25  C   UNL     1      10.628  13.808  20.085  0.00  0.00    +0.000 A 
ATOM     26  C   UNL     1       9.932  13.885  18.907  0.00  0.00    +0.000 A 
ATOM     27  N   UNL     1       9.444  12.810  18.251  0.00  0.00    +0.000 NA
ATOM     28  H   UNL     1       8.476  10.837  17.472  0.00  0.00    +0.000 HD
ENDBRANCH  20  21
ENDBRANCH   6  20
TORSDOF 4
ENDMDL
MODEL 7
REMARK VINA RESULT:      -8.0      4.437      6.227
REMARK  Name = 
REMARK  4 active torsions:
REMARK  status: ('A' for Active; 'I' for Inactive)
REMARK    1  A    between atoms: C_5  and  C_6
REMARK    2  A    between atoms: C_6  and  N_7
REMARK    3  A    between atoms: C_12  and  C_13
REMARK    4  A    between atoms: C_13  and  N_14
REMARK                            x       y       z     vdW  Elec       q    Type
REMARK                         _______ _______ _______ _____ _____    ______ ____
ROOT
ATOM      1  N   UNL     1       4.531   4.108  17.414  0.00  0.00    +0.000 NA
ATOM      2  C   UNL     1       5.194   3.802  18.683  0.00  0.00    +0.000 C 
ATOM      3  C   UNL     1       6.049   4.886  19.341  0.00  0.00    +0.000 C 
ATOM      4  N   UNL     1       6.567   5.834  18.389  0.00  0.00    +0.000 N 
ATOM      5  N   UNL     1       7.433   6.783  18.779  0.00  0.00    +0.000 NA
ATOM      6  C   UNL     1       7.599   7.542  17.683  0.00  0.00    +0.000 A 
ATOM      7  C   UNL     1       6.836   7.045  16.597  0.00  0.00    +0.000 A 
ATOM      8  C   UNL     1       6.163   5.949  17.097  0.00  0.00    +0.000 A 
ATOM      9  C   UNL     1       5.194   5.014  16.485  0.00  0.00    +0.000 C 
ENDROOT
BRANCH   1  10
ATOM     10  C   UNL     1       3.073   4.178  17.427  0.00  0.00    +0.000 C 
BRANCH  10  15
ATOM     11  F   UNL     1       1.303   7.608  21.556  0.00  0.00    +0.000 F 
ATOM     12  C   UNL     1       1.693   6.798  20.563  0.00  0.00    +0.000 A 
ATOM     13  C   UNL     1       1.638   5.420  20.749  0.00  0.00    +0.000 A 
ATOM     14  C   UNL     1       2.068   4.569  19.728  0.00  0.00    +0.000 A 
ATOM     15  C   UNL     1       2.560   5.095  18.518  0.00  0.00    +0.000 A 
ATOM     16  C   UNL     1       2.573   6.483  18.348  0.00  0.00    +0.000 A 
ATOM     17  F   UNL     1       3.015   7.007  17.195  0.00  0.00    +0.000 F 
ATOM     18  C   UNL     1       2.152   7.331  19.366  0.00  0.00    +0.000 A 
ATOM     19  F   UNL     1       2.196   8.660  19.194  0.00  0.00    +0.000 F 
ENDBRANCH  10  15
ENDBRANCH   1  10
BRANCH   6  20
ATOM     20  C   UNL     1       8.449   8.786  17.716  0.00  0.00    +0.000 C 
BRANCH  20  21
ATOM     21  N   UNL     1       8.821   9.290  19.030  0.00  0.00    +0.000 N 
ATOM     22  C   UNL     1       9.363  10.565  18.992  0.00  0.00    +0.000 A 
ATOM     23  N   UNL     1       8.969  11.437  18.054  0.00  0.00    +0.000 NA
ATOM     24  C   UNL     1       9.517  12.667  18.076  0.00  0.00    +0.000 A 
ATOM     25  C   UNL     1      10.458  13.052  18.994  0.00  0.00    +0.000 A 
ATOM     26  C   UNL     1      10.810  12.090  19.906  0.00  0.00    +0.000 A 
ATOM     27  N   UNL     1      10.286  10.846  19.925  0.00  0.00    +0.000 NA
ATOM     28  H   UNL     1       9.441   8.702  19.568  0.00  0.00    +0.000 HD
ENDBRANCH  20  21
ENDBRANCH   6  20
TORSDOF 4
ENDMDL
MODEL 8
REMARK VINA RESULT:      -8.0      3.064      4.328
REMARK  Name = 
REMARK  4 active torsions:
REMARK  status: ('A' for Active; 'I' for Inactive)
REMARK    1  A    between atoms: C_5  and  C_6
REMARK    2  A    between atoms: C_6  and  N_7
REMARK    3  A    between atoms: C_12  and  C_13
REMARK    4  A    between atoms: C_13  and  N_14
REMARK                            x       y       z     vdW  Elec       q    Type
REMARK                         _______ _______ _______ _____ _____    ______ ____
ROOT
ATOM      1  N   UNL     1       0.283   9.888  20.083  0.00  0.00    +0.000 NA
ATOM      2  C   UNL     1       0.261   8.764  21.021  0.00  0.00    +0.000 C 
ATOM      3  C   UNL     1       1.394   7.737  20.958  0.00  0.00    +0.000 C 
ATOM      4  N   UNL     1       2.002   7.666  19.654  0.00  0.00    +0.000 N 
ATOM      5  N   UNL     1       2.933   6.735  19.389  0.00  0.00    +0.000 NA
ATOM      6  C   UNL     1       3.354   7.040  18.151  0.00  0.00    +0.000 A 
ATOM      7  C   UNL     1       2.663   8.167  17.639  0.00  0.00    +0.000 A 
ATOM      8  C   UNL     1       1.809   8.558  18.648  0.00  0.00    +0.000 A 
ATOM      9  C   UNL     1       0.842   9.674  18.755  0.00  0.00    +0.000 C 
ENDROOT
BRANCH   1  10
ATOM     10  C   UNL     1       0.493  11.218  20.646  0.00  0.00    +0.000 C 
BRANCH  10  15
ATOM     11  F   UNL     1      -4.166  13.462  22.927  0.00  0.00    +0.000 F 
ATOM     12  C   UNL     1      -3.078  12.902  22.383  0.00  0.00    +0.000 A 
ATOM     13  C   UNL     1      -2.082  12.402  23.216  0.00  0.00    +0.000 A 
ATOM     14  C   UNL     1      -0.932  11.840  22.656  0.00  0.00    +0.000 A 
ATOM     15  C   UNL     1      -0.773  11.780  21.259  0.00  0.00    +0.000 A 
ATOM     16  C   UNL     1      -1.805  12.262  20.446  0.00  0.00    +0.000 A 
ATOM     17  F   UNL     1      -1.686  12.195  19.112  0.00  0.00    +0.000 F 
ATOM     18  C   UNL     1      -2.946  12.828  21.003  0.00  0.00    +0.000 A 
ATOM     19  F   UNL     1      -3.913  13.308  20.208  0.00  0.00    +0.000 F 
ENDBRANCH  10  15
ENDBRANCH   1  10
BRANCH   6  20
ATOM     20  C   UNL     1       4.475   6.274  17.497  0.00  0.00    +0.000 C 
BRANCH  20  21
ATOM     21  N   UNL     1       5.238   5.374  18.350  0.00  0.00    +0.000 N 
ATOM     22  C   UNL     1       4.672   4.113  18.458  0.00  0.00    +0.000 A 
ATOM     23  N   UNL     1       3.975   3.598  17.435  0.00  0.00    +0.000 NA
ATOM     24  C   UNL     1       3.462   2.362  17.591  0.00  0.00    +0.000 A 
ATOM     25  C   UNL     1       3.609   1.628  18.738  0.00  0.00    +0.000 A 
ATOM     26  C   UNL     1       4.325   2.241  19.734  0.00  0.00    +0.000 A 
ATOM     27  N   UNL     1       4.859   3.476  19.623  0.00  0.00    +0.000 NA
ATOM     28  H   UNL     1       5.434   5.710  19.281  0.00  0.00    +0.000 HD
ENDBRANCH  20  21
ENDBRANCH   6  20
TORSDOF 4
ENDMDL
MODEL 9
REMARK VINA RESULT:      -7.9      6.779      7.853
REMARK  Name = 
REMARK  4 active torsions:
REMARK  status: ('A' for Active; 'I' for Inactive)
REMARK    1  A    between atoms: C_5  and  C_6
REMARK    2  A    between atoms: C_6  and  N_7
REMARK    3  A    between atoms: C_12  and  C_13
REMARK    4  A    between atoms: C_13  and  N_14
REMARK                            x       y       z     vdW  Elec       q    Type
REMARK                         _______ _______ _______ _____ _____    ______ ____
ROOT
ATOM      1  N   UNL     1      10.264  13.791  20.742  0.00  0.00    +0.000 NA
ATOM      2  C   UNL     1       9.825  14.420  19.496  0.00  0.00    +0.000 C 
ATOM      3  C   UNL     1       8.924  13.621  18.551  0.00  0.00    +0.000 C 
ATOM      4  N   UNL     1       9.094  12.198  18.700  0.00  0.00    +0.000 N 
ATOM      5  N   UNL     1       8.468  11.350  17.868  0.00  0.00    +0.000 NA
ATOM      6  C   UNL     1       8.750  10.137  18.370  0.00  0.00    +0.000 A 
ATOM      7  C   UNL     1       9.574  10.237  19.520  0.00  0.00    +0.000 A 
ATOM      8  C   UNL     1       9.759  11.589  19.716  0.00  0.00    +0.000 A 
ATOM      9  C   UNL     1      10.492  12.352  20.751  0.00  0.00    +0.000 C 
ENDROOT
BRANCH   1  10
ATOM     10  C   UNL     1       9.750  14.353  21.987  0.00  0.00    +0.000 C 
BRANCH  10  15
ATOM     11  F   UNL     1       5.588  11.304  24.294  0.00  0.00    +0.000 F 
ATOM     12  C   UNL     1       6.573  12.007  23.721  0.00  0.00    +0.000 A 
ATOM     13  C   UNL     1       7.892  11.750  24.086  0.00  0.00    +0.000 A 
ATOM     14  C   UNL     1       8.924  12.496  23.512  0.00  0.00    +0.000 A 
ATOM     15  C   UNL     1       8.640  13.508  22.575  0.00  0.00    +0.000 A 
ATOM     16  C   UNL     1       7.308  13.722  22.204  0.00  0.00    +0.000 A 
ATOM     17  F   UNL     1       7.014  14.663  21.295  0.00  0.00    +0.000 F 
ATOM     18  C   UNL     1       6.280  12.984  22.780  0.00  0.00    +0.000 A 
ATOM     19  F   UNL     1       5.007  13.221  22.432  0.00  0.00    +0.000 F 
ENDBRANCH  10  15
ENDBRANCH   1  10
BRANCH   6  20
ATOM     20  C   UNL     1       8.163   8.887  17.767  0.00  0.00    +0.000 C 
BRANCH  20  21
ATOM     21  N   UNL     1       8.253   7.671  18.562  0.00  0.00    +0.000 N 
ATOM     22  C   UNL     1       7.575   6.600  18.002  0.00  0.00    +0.000 A 
ATOM     23  N   UNL     1       7.466   6.493  16.670  0.00  0.00    +0.000 NA
ATOM     24  C   UNL     1       6.810   5.423  16.183  0.00  0.00    +0.000 A 
ATOM     25  C   UNL     1       6.246   4.462  16.979  0.00  0.00    +0.000 A 
ATOM     26  C   UNL     1       6.396   4.661  18.327  0.00  0.00    +0.000 A 
ATOM     27  N   UNL     1       7.046   5.716  18.862  0.00  0.00    +0.000 NA
ATOM     28  H   UNL     1       7.967   7.753  19.527  0.00  0.00    +0.000 HD
ENDBRANCH  20  21
ENDBRANCH   6  20
TORSDOF 4
ENDMDL
