MODEL 1
REMARK VINA RESULT:      -8.5      0.000      0.000
REMARK  Name = 
REMARK  3 active torsions:
REMARK  status: ('A' for Active; 'I' for Inactive)
REMARK    1  A    between atoms: C_2  and  C_3
REMARK    2  A    between atoms: C_3  and  N_4
REMARK    3  A    between atoms: C_7  and  C_8
REMARK                            x       y       z     vdW  Elec       q    Type
REMARK                         _______ _______ _______ _____ _____    ______ ____
ROOT
ATOM      1  N   UNL     1       5.519   5.275  18.085  0.00  0.00    +0.000 N 
ATOM      2  C   UNL     1       4.652   5.694  17.106  0.00  0.00    +0.000 A 
ATOM      3  C   UNL     1       4.949   5.549  15.817  0.00  0.00    +0.000 A 
ATOM      4  C   UNL     1       6.223   4.851  15.547  0.00  0.00    +0.000 A 
ATOM      5  N   UNL     1       7.074   4.512  16.462  0.00  0.00    +0.000 NA
ATOM      6  C   UNL     1       6.781   4.760  17.783  0.00  0.00    +0.000 A 
ATOM      7  O   UNL     1       7.592   4.487  18.663  0.00  0.00    +0.000 OA
ENDROOT
BRANCH   4   8
ATOM      8  C   UNL     1       6.527   4.536  14.121  0.00  0.00    +0.000 A 
ATOM      9  C   UNL     1       5.754   3.570  13.464  0.00  0.00    +0.000 A 
ATOM     10  C   UNL     1       6.019   3.245  12.134  0.00  0.00    +0.000 A 
ATOM     11  C   UNL     1       7.048   3.890  11.450  0.00  0.00    +0.000 A 
ATOM     12  C   UNL     1       7.803   4.872  12.087  0.00  0.00    +0.000 A 
ATOM     13  C   UNL     1       7.538   5.203  13.416  0.00  0.00    +0.000 A 
ENDBRANCH   4   8
BRANCH   1  14
ATOM     14  C   UNL     1       5.160   5.457  19.485  0.00  0.00    +0.000 C 
BRANCH  14  16
ATOM     15  O   UNL     1       3.047   6.626  19.716  0.00  0.00    +0.000 OA
ATOM     16  C   UNL     1       3.649   5.548  19.749  0.00  0.00    +0.000 C 
ATOM     17  N   UNL     1       2.983   4.340  19.994  0.00  0.00    +0.000 N 
ATOM     18  C   UNL     1       3.643   3.033  20.039  0.00  0.00    +0.000 C 
ATOM     19  C   UNL     1       3.434   2.249  18.746  0.00  0.00    +0.000 C 
ATOM     20  C   UNL     1       2.061   1.591  18.640  0.00  0.00    +0.000 C 
ATOM     21  C   UNL     1       0.876   2.549  18.755  0.00  0.00    +0.000 C 
ATOM     22  C   UNL     1       0.736   3.161  20.148  0.00  0.00    +0.000 C 
ATOM     23  C   UNL     1       1.571   4.423  20.357  0.00  0.00    +0.000 C 
ENDBRANCH  14  16
ENDBRANCH   1  14
TORSDOF 3
ENDMDL
MODEL 2
REMARK VINA RESULT:      -8.5      0.141      1.017
REMARK  Name = 
REMARK  3 active torsions:
REMARK  status: ('A' for Active; 'I' for Inactive)
REMARK    1  A    between atoms: C_2  and  C_3
REMARK    2  A    between atoms: C_3  and  N_4
REMARK    3  A    between atoms: C_7  and  C_8
REMARK                            x       y       z     vdW  Elec       q    Type
REMARK                         _______ _______ _______ _____ _____    ______ ____
ROOT
ATOM      1  N   UNL     1       5.482   5.419  18.074  0.00  0.00    +0.000 N 
ATOM      2  C   UNL     1       4.673   5.902  17.075  0.00  0.00    +0.000 A 
ATOM      3  C   UNL     1       4.990   5.735  15.794  0.00  0.00    +0.000 A 
ATOM      4  C   UNL     1       6.215   4.944  15.554  0.00  0.00    +0.000 A 
ATOM      5  N   UNL     1       7.016   4.542  16.488  0.00  0.00    +0.000 NA
ATOM      6  C   UNL     1       6.709   4.811  17.802  0.00  0.00    +0.000 A 
ATOM      7  O   UNL     1       7.476   4.479  18.701  0.00  0.00    +0.000 OA
ENDROOT
BRANCH   4   8
ATOM      8  C   UNL     1       6.529   4.607  14.135  0.00  0.00    +0.000 A 
ATOM      9  C   UNL     1       7.561   5.299  13.489  0.00  0.00    +0.000 A 
ATOM     10  C   UNL     1       7.873   5.014  12.160  0.00  0.00    +0.000 A 
ATOM     11  C   UNL     1       7.164   4.032  11.472  0.00  0.00    +0.000 A 
ATOM     12  C   UNL     1       6.155   3.318  12.115  0.00  0.00    +0.000 A 
ATOM     13  C   UNL     1       5.843   3.596  13.446  0.00  0.00    +0.000 A 
ENDBRANCH   4   8
BRANCH   1  14
ATOM     14  C   UNL     1       5.103   5.627  19.465  0.00  0.00    +0.000 C 
BRANCH  14  16
ATOM     15  O   UNL     1       2.931   6.680  19.701  0.00  0.00    +0.000 OA
ATOM     16  C   UNL     1       3.588   5.635  19.720  0.00  0.00    +0.000 C 
ATOM     17  N   UNL     1       2.984   4.389  19.938  0.00  0.00    +0.000 N 
ATOM     18  C   UNL     1       3.711   3.118  19.966  0.00  0.00    +0.000 C 
ATOM     19  C   UNL     1       3.551   2.347  18.658  0.00  0.00    +0.000 C 
ATOM     20  C   UNL     1       2.216   1.621  18.530  0.00  0.00    +0.000 C 
ATOM     21  C   UNL     1       0.982   2.514  18.652  0.00  0.00    +0.000 C 
ATOM     22  C   UNL     1       0.801   3.093  20.055  0.00  0.00    +0.000 C 
ATOM     23  C   UNL     1       1.567   4.393  20.292  0.00  0.00    +0.000 C 
ENDBRANCH  14  16
ENDBRANCH   1  14
TORSDOF 3
ENDMDL
MODEL 3
REMARK VINA RESULT:      -8.1      4.360      8.093
REMARK  Name = 
REMARK  3 active torsions:
REMARK  status: ('A' for Active; 'I' for Inactive)
REMARK    1  A    between atoms: C_2  and  C_3
REMARK    2  A    between atoms: C_3  and  N_4
REMARK    3  A    between atoms: C_7  and  C_8
REMARK                            x       y       z     vdW  Elec       q    Type
REMARK                         _______ _______ _______ _____ _____    ______ ____
ROOT
ATOM      1  N   UNL     1       2.353   7.452  18.853  0.00  0.00    +0.000 N 
ATOM      2  C   UNL     1       2.126   7.137  20.171  0.00  0.00    +0.000 A 
ATOM      3  C   UNL     1       1.461   7.968  20.971  0.00  0.00    +0.000 A 
ATOM      4  C   UNL     1       0.944   9.185  20.312  0.00  0.00    +0.000 A 
ATOM      5  N   UNL     1       1.209   9.519  19.089  0.00  0.00    +0.000 NA
ATOM      6  C   UNL     1       1.978   8.683  18.313  0.00  0.00    +0.000 A 
ATOM      7  O   UNL     1       2.279   9.001  17.166  0.00  0.00    +0.000 OA
ENDROOT
BRANCH   4   8
ATOM      8  C   UNL     1       0.069  10.072  21.132  0.00  0.00    +0.000 A 
ATOM      9  C   UNL     1      -0.209   9.709  22.456  0.00  0.00    +0.000 A 
ATOM     10  C   UNL     1      -1.030  10.512  23.247  0.00  0.00    +0.000 A 
ATOM     11  C   UNL     1      -1.570  11.685  22.724  0.00  0.00    +0.000 A 
ATOM     12  C   UNL     1      -1.276  12.069  21.418  0.00  0.00    +0.000 A 
ATOM     13  C   UNL     1      -0.450  11.272  20.625  0.00  0.00    +0.000 A 
ENDBRANCH   4   8
BRANCH   1  14
ATOM     14  C   UNL     1       3.090   6.519  18.012  0.00  0.00    +0.000 C 
BRANCH  14  16
ATOM     15  O   UNL     1       5.132   5.862  19.144  0.00  0.00    +0.000 OA
ATOM     16  C   UNL     1       3.996   5.544  18.781  0.00  0.00    +0.000 C 
ATOM     17  N   UNL     1       3.451   4.288  19.080  0.00  0.00    +0.000 N 
ATOM     18  C   UNL     1       2.109   3.859  18.681  0.00  0.00    +0.000 C 
ATOM     19  C   UNL     1       1.118   3.950  19.838  0.00  0.00    +0.000 C 
ATOM     20  C   UNL     1       1.228   2.800  20.835  0.00  0.00    +0.000 C 
ATOM     21  C   UNL     1       2.607   2.624  21.467  0.00  0.00    +0.000 C 
ATOM     22  C   UNL     1       3.669   2.169  20.467  0.00  0.00    +0.000 C 
ATOM     23  C   UNL     1       4.338   3.315  19.710  0.00  0.00    +0.000 C 
ENDBRANCH  14  16
ENDBRANCH   1  14
TORSDOF 3
ENDMDL
MODEL 4
REMARK VINA RESULT:      -8.0      4.408      8.155
REMARK  Name = 
REMARK  3 active torsions:
REMARK  status: ('A' for Active; 'I' for Inactive)
REMARK    1  A    between atoms: C_2  and  C_3
REMARK    2  A    between atoms: C_3  and  N_4
REMARK    3  A    between atoms: C_7  and  C_8
REMARK                            x       y       z     vdW  Elec       q    Type
REMARK                         _______ _______ _______ _____ _____    ______ ____
ROOT
ATOM      1  N   UNL     1       2.298   7.486  18.874  0.00  0.00    +0.000 N 
ATOM      2  C   UNL     1       2.079   7.169  20.192  0.00  0.00    +0.000 A 
ATOM      3  C   UNL     1       1.429   8.003  21.000  0.00  0.00    +0.000 A 
ATOM      4  C   UNL     1       0.919   9.228  20.350  0.00  0.00    +0.000 A 
ATOM      5  N   UNL     1       1.178   9.564  19.127  0.00  0.00    +0.000 NA
ATOM      6  C   UNL     1       1.932   8.723  18.341  0.00  0.00    +0.000 A 
ATOM      7  O   UNL     1       2.227   9.042  17.193  0.00  0.00    +0.000 OA
ENDROOT
BRANCH   4   8
ATOM      8  C   UNL     1       0.060  10.121  21.181  0.00  0.00    +0.000 A 
ATOM      9  C   UNL     1      -0.405  11.320  20.625  0.00  0.00    +0.000 A 
ATOM     10  C   UNL     1      -1.201  12.181  21.379  0.00  0.00    +0.000 A 
ATOM     11  C   UNL     1      -1.547  11.846  22.686  0.00  0.00    +0.000 A 
ATOM     12  C   UNL     1      -1.113  10.642  23.238  0.00  0.00    +0.000 A 
ATOM     13  C   UNL     1      -0.320   9.776  22.486  0.00  0.00    +0.000 A 
ENDBRANCH   4   8
BRANCH   1  14
ATOM     14  C   UNL     1       3.019   6.548  18.023  0.00  0.00    +0.000 C 
BRANCH  14  16
ATOM     15  O   UNL     1       5.077   5.890  19.123  0.00  0.00    +0.000 OA
ATOM     16  C   UNL     1       3.935   5.574  18.780  0.00  0.00    +0.000 C 
ATOM     17  N   UNL     1       3.392   4.320  19.091  0.00  0.00    +0.000 N 
ATOM     18  C   UNL     1       2.042   3.893  18.715  0.00  0.00    +0.000 C 
ATOM     19  C   UNL     1       1.071   3.990  19.888  0.00  0.00    +0.000 C 
ATOM     20  C   UNL     1       1.194   2.842  20.886  0.00  0.00    +0.000 C 
ATOM     21  C   UNL     1       2.583   2.664  21.496  0.00  0.00    +0.000 C 
ATOM     22  C   UNL     1       3.627   2.204  20.479  0.00  0.00    +0.000 C 
ATOM     23  C   UNL     1       4.287   3.346  19.709  0.00  0.00    +0.000 C 
ENDBRANCH  14  16
ENDBRANCH   1  14
TORSDOF 3
ENDMDL
MODEL 5
REMARK VINA RESULT:      -7.9      3.868      5.570
REMARK  Name = 
REMARK  3 active torsions:
REMARK  status: ('A' for Active; 'I' for Inactive)
REMARK    1  A    between atoms: C_2  and  C_3
REMARK    2  A    between atoms: C_3  and  N_4
REMARK    3  A    between atoms: C_7  and  C_8
REMARK                            x       y       z     vdW  Elec       q    Type
REMARK                         _______ _______ _______ _____ _____    ______ ____
ROOT
ATOM      1  N   UNL     1       6.529   5.798  17.651  0.00  0.00    +0.000 N 
ATOM      2  C   UNL     1       7.475   5.872  18.644  0.00  0.00    +0.000 A 
ATOM      3  C   UNL     1       8.171   6.989  18.847  0.00  0.00    +0.000 A 
ATOM      4  C   UNL     1       7.790   8.125  17.982  0.00  0.00    +0.000 A 
ATOM      5  N   UNL     1       6.947   8.043  17.004  0.00  0.00    +0.000 NA
ATOM      6  C   UNL     1       6.311   6.848  16.758  0.00  0.00    +0.000 A 
ATOM      7  O   UNL     1       5.541   6.736  15.808  0.00  0.00    +0.000 OA
ENDROOT
BRANCH   4   8
ATOM      8  C   UNL     1       8.440   9.436  18.273  0.00  0.00    +0.000 A 
ATOM      9  C   UNL     1       8.126  10.538  17.467  0.00  0.00    +0.000 A 
ATOM     10  C   UNL     1       8.724  11.775  17.706  0.00  0.00    +0.000 A 
ATOM     11  C   UNL     1       9.628  11.921  18.756  0.00  0.00    +0.000 A 
ATOM     12  C   UNL     1       9.924  10.838  19.580  0.00  0.00    +0.000 A 
ATOM     13  C   UNL     1       9.325   9.600  19.348  0.00  0.00    +0.000 A 
ENDBRANCH   4   8
BRANCH   1  14
ATOM     14  C   UNL     1       5.792   4.556  17.457  0.00  0.00    +0.000 C 
BRANCH  14  16
ATOM     15  O   UNL     1       5.483   3.344  19.535  0.00  0.00    +0.000 OA
ATOM     16  C   UNL     1       4.992   4.090  18.683  0.00  0.00    +0.000 C 
ATOM     17  N   UNL     1       3.686   4.586  18.803  0.00  0.00    +0.000 N 
ATOM     18  C   UNL     1       3.054   5.477  17.828  0.00  0.00    +0.000 C 
ATOM     19  C   UNL     1       3.058   6.928  18.303  0.00  0.00    +0.000 C 
ATOM     20  C   UNL     1       1.982   7.240  19.338  0.00  0.00    +0.000 C 
ATOM     21  C   UNL     1       2.031   6.378  20.599  0.00  0.00    +0.000 C 
ATOM     22  C   UNL     1       1.685   4.913  20.335  0.00  0.00    +0.000 C 
ATOM     23  C   UNL     1       2.878   4.064  19.901  0.00  0.00    +0.000 C 
ENDBRANCH  14  16
ENDBRANCH   1  14
TORSDOF 3
ENDMDL
MODEL 6
REMARK VINA RESULT:      -7.9      3.897      5.613
REMARK  Name = 
REMARK  3 active torsions:
REMARK  status: ('A' for Active; 'I' for Inactive)
REMARK    1  A    between atoms: C_2  and  C_3
REMARK    2  A    between atoms: C_3  and  N_4
REMARK    3  A    between atoms: C_7  and  C_8
REMARK                            x       y       z     vdW  Elec       q    Type
REMARK                         _______ _______ _______ _____ _____    ______ ____
ROOT
ATOM      1  N   UNL     1       6.595   5.823  17.640  0.00  0.00    +0.000 N 
ATOM      2  C   UNL     1       7.510   5.924  18.659  0.00  0.00    +0.000 A 
ATOM      3  C   UNL     1       8.187   7.051  18.864  0.00  0.00    +0.000 A 
ATOM      4  C   UNL     1       7.822   8.169  17.969  0.00  0.00    +0.000 A 
ATOM      5  N   UNL     1       7.009   8.061  16.967  0.00  0.00    +0.000 NA
ATOM      6  C   UNL     1       6.393   6.856  16.723  0.00  0.00    +0.000 A 
ATOM      7  O   UNL     1       5.654   6.719  15.752  0.00  0.00    +0.000 OA
ENDROOT
BRANCH   4   8
ATOM      8  C   UNL     1       8.449   9.491  18.256  0.00  0.00    +0.000 A 
ATOM      9  C   UNL     1       9.341   9.596  19.330  0.00  0.00    +0.000 A 
ATOM     10  C   UNL     1       9.937  10.821  19.630  0.00  0.00    +0.000 A 
ATOM     11  C   UNL     1       9.653  11.944  18.856  0.00  0.00    +0.000 A 
ATOM     12  C   UNL     1       8.789  11.842  17.768  0.00  0.00    +0.000 A 
ATOM     13  C   UNL     1       8.195  10.618  17.460  0.00  0.00    +0.000 A 
ENDBRANCH   4   8
BRANCH   1  14
ATOM     14  C   UNL     1       5.878   4.570  17.445  0.00  0.00    +0.000 C 
BRANCH  14  16
ATOM     15  O   UNL     1       5.505   3.372  19.520  0.00  0.00    +0.000 OA
ATOM     16  C   UNL     1       5.042   4.118  18.653  0.00  0.00    +0.000 C 
ATOM     17  N   UNL     1       3.739   4.627  18.737  0.00  0.00    +0.000 N 
ATOM     18  C   UNL     1       3.140   5.519  17.741  0.00  0.00    +0.000 C 
ATOM     19  C   UNL     1       3.145   6.972  18.209  0.00  0.00    +0.000 C 
ATOM     20  C   UNL     1       2.046   7.299  19.215  0.00  0.00    +0.000 C 
ATOM     21  C   UNL     1       2.055   6.444  20.481  0.00  0.00    +0.000 C 
ATOM     22  C   UNL     1       1.702   4.981  20.215  0.00  0.00    +0.000 C 
ATOM     23  C   UNL     1       2.897   4.118  19.816  0.00  0.00    +0.000 C 
ENDBRANCH  14  16
ENDBRANCH   1  14
TORSDOF 3
ENDMDL
MODEL 7
REMARK VINA RESULT:      -7.8      4.461      8.646
REMARK  Name = 
REMARK  3 active torsions:
REMARK  status: ('A' for Active; 'I' for Inactive)
REMARK    1  A    between atoms: C_2  and  C_3
REMARK    2  A    between atoms: C_3  and  N_4
REMARK    3  A    between atoms: C_7  and  C_8
REMARK                            x       y       z     vdW  Elec       q    Type
REMARK                         _______ _______ _______ _____ _____    ______ ____
ROOT
ATOM      1  N   UNL     1       2.062   7.357  19.103  0.00  0.00    +0.000 N 
ATOM      2  C   UNL     1       1.781   7.131  20.428  0.00  0.00    +0.000 A 
ATOM      3  C   UNL     1       1.258   8.088  21.191  0.00  0.00    +0.000 A 
ATOM      4  C   UNL     1       0.952   9.349  20.485  0.00  0.00    +0.000 A 
ATOM      5  N   UNL     1       1.274   9.590  19.255  0.00  0.00    +0.000 NA
ATOM      6  C   UNL     1       1.898   8.613  18.516  0.00  0.00    +0.000 A 
ATOM      7  O   UNL     1       2.252   8.835  17.362  0.00  0.00    +0.000 OA
ENDROOT
BRANCH   4   8
ATOM      8  C   UNL     1       0.232  10.397  21.266  0.00  0.00    +0.000 A 
ATOM      9  C   UNL     1      -0.517  10.011  22.385  0.00  0.00    +0.000 A 
ATOM     10  C   UNL     1      -1.209  10.965  23.130  0.00  0.00    +0.000 A 
ATOM     11  C   UNL     1      -1.150  12.309  22.769  0.00  0.00    +0.000 A 
ATOM     12  C   UNL     1      -0.384  12.707  21.674  0.00  0.00    +0.000 A 
ATOM     13  C   UNL     1       0.314  11.756  20.929  0.00  0.00    +0.000 A 
ENDBRANCH   4   8
BRANCH   1  14
ATOM     14  C   UNL     1       2.639   6.285  18.302  0.00  0.00    +0.000 C 
BRANCH  14  16
ATOM     15  O   UNL     1       3.772   4.855  19.899  0.00  0.00    +0.000 OA
ATOM     16  C   UNL     1       3.869   5.611  18.928  0.00  0.00    +0.000 C 
ATOM     17  N   UNL     1       5.104   5.871  18.317  0.00  0.00    +0.000 N 
ATOM     18  C   UNL     1       5.277   6.754  17.161  0.00  0.00    +0.000 C 
ATOM     19  C   UNL     1       5.427   5.963  15.864  0.00  0.00    +0.000 C 
ATOM     20  C   UNL     1       6.817   5.367  15.663  0.00  0.00    +0.000 C 
ATOM     21  C   UNL     1       7.290   4.442  16.783  0.00  0.00    +0.000 C 
ATOM     22  C   UNL     1       7.539   5.177  18.099  0.00  0.00    +0.000 C 
ATOM     23  C   UNL     1       6.292   5.329  18.969  0.00  0.00    +0.000 C 
ENDBRANCH  14  16
ENDBRANCH   1  14
TORSDOF 3
ENDMDL
MODEL 8
REMARK VINA RESULT:      -7.8      4.478      8.688
REMARK  Name = 
REMARK  3 active torsions:
REMARK  status: ('A' for Active; 'I' for Inactive)
REMARK    1  A    between atoms: C_2  and  C_3
REMARK    2  A    between atoms: C_3  and  N_4
REMARK    3  A    between atoms: C_7  and  C_8
REMARK                            x       y       z     vdW  Elec       q    Type
REMARK                         _______ _______ _______ _____ _____    ______ ____
ROOT
ATOM      1  N   UNL     1       2.064   7.374  19.093  0.00  0.00    +0.000 N 
ATOM      2  C   UNL     1       1.780   7.140  20.416  0.00  0.00    +0.000 A 
ATOM      3  C   UNL     1       1.252   8.091  21.183  0.00  0.00    +0.000 A 
ATOM      4  C   UNL     1       0.943   9.355  20.484  0.00  0.00    +0.000 A 
ATOM      5  N   UNL     1       1.267   9.604  19.256  0.00  0.00    +0.000 NA
ATOM      6  C   UNL     1       1.897   8.633  18.513  0.00  0.00    +0.000 A 
ATOM      7  O   UNL     1       2.254   8.863  17.361  0.00  0.00    +0.000 OA
ENDROOT
BRANCH   4   8
ATOM      8  C   UNL     1       0.217  10.396  21.268  0.00  0.00    +0.000 A 
ATOM      9  C   UNL     1       0.274  11.728  20.838  0.00  0.00    +0.000 A 
ATOM     10  C   UNL     1      -0.386  12.725  21.554  0.00  0.00    +0.000 A 
ATOM     11  C   UNL     1      -1.114  12.399  22.697  0.00  0.00    +0.000 A 
ATOM     12  C   UNL     1      -1.200  11.073  23.116  0.00  0.00    +0.000 A 
ATOM     13  C   UNL     1      -0.546  10.071  22.399  0.00  0.00    +0.000 A 
ENDBRANCH   4   8
BRANCH   1  14
ATOM     14  C   UNL     1       2.647   6.309  18.288  0.00  0.00    +0.000 C 
BRANCH  14  16
ATOM     15  O   UNL     1       3.773   4.881  19.891  0.00  0.00    +0.000 OA
ATOM     16  C   UNL     1       3.874   5.631  18.917  0.00  0.00    +0.000 C 
ATOM     17  N   UNL     1       5.109   5.882  18.304  0.00  0.00    +0.000 N 
ATOM     18  C   UNL     1       5.288   6.758  17.144  0.00  0.00    +0.000 C 
ATOM     19  C   UNL     1       5.432   5.960  15.851  0.00  0.00    +0.000 C 
ATOM     20  C   UNL     1       6.819   5.355  15.652  0.00  0.00    +0.000 C 
ATOM     21  C   UNL     1       7.287   4.433  16.776  0.00  0.00    +0.000 C 
ATOM     22  C   UNL     1       7.541   5.173  18.089  0.00  0.00    +0.000 C 
ATOM     23  C   UNL     1       6.295   5.336  18.958  0.00  0.00    +0.000 C 
ENDBRANCH  14  16
ENDBRANCH   1  14
TORSDOF 3
ENDMDL
MODEL 9
REMARK VINA RESULT:      -7.5      3.979      5.433
REMARK  Name = 
REMARK  3 active torsions:
REMARK  status: ('A' for Active; 'I' for Inactive)
REMARK    1  A    between atoms: C_2  and  C_3
REMARK    2  A    between atoms: C_3  and  N_4
REMARK    3  A    between atoms: C_7  and  C_8
REMARK                            x       y       z     vdW  Elec       q    Type
REMARK                         _______ _______ _______ _____ _____    ______ ____
ROOT
ATOM      1  N   UNL     1       7.152   5.824  17.713  0.00  0.00    +0.000 N 
ATOM      2  C   UNL     1       6.687   6.858  16.937  0.00  0.00    +0.000 A 
ATOM      3  C   UNL     1       7.064   8.113  17.168  0.00  0.00    +0.000 A 
ATOM      4  C   UNL     1       8.053   8.276  18.254  0.00  0.00    +0.000 A 
ATOM      5  N   UNL     1       8.445   7.316  19.030  0.00  0.00    +0.000 NA
ATOM      6  C   UNL     1       7.965   6.043  18.826  0.00  0.00    +0.000 A 
ATOM      7  O   UNL     1       8.289   5.128  19.577  0.00  0.00    +0.000 OA
ENDROOT
BRANCH   4   8
ATOM      8  C   UNL     1       8.614   9.644  18.452  0.00  0.00    +0.000 A 
ATOM      9  C   UNL     1       8.232  10.664  17.571  0.00  0.00    +0.000 A 
ATOM     10  C   UNL     1       8.746  11.951  17.723  0.00  0.00    +0.000 A 
ATOM     11  C   UNL     1       9.634  12.230  18.759  0.00  0.00    +0.000 A 
ATOM     12  C   UNL     1       9.998  11.228  19.658  0.00  0.00    +0.000 A 
ATOM     13  C   UNL     1       9.482   9.940  19.512  0.00  0.00    +0.000 A 
ENDBRANCH   4   8
BRANCH   1  14
ATOM     14  C   UNL     1       6.710   4.465  17.431  0.00  0.00    +0.000 C 
BRANCH  14  16
ATOM     15  O   UNL     1       5.102   4.332  15.621  0.00  0.00    +0.000 OA
ATOM     16  C   UNL     1       5.296   4.362  16.839  0.00  0.00    +0.000 C 
ATOM     17  N   UNL     1       4.240   4.268  17.756  0.00  0.00    +0.000 N 
ATOM     18  C   UNL     1       4.411   4.292  19.211  0.00  0.00    +0.000 C 
ATOM     19  C   UNL     1       4.329   2.892  19.812  0.00  0.00    +0.000 C 
ATOM     20  C   UNL     1       2.904   2.364  19.953  0.00  0.00    +0.000 C 
ATOM     21  C   UNL     1       2.102   2.318  18.654  0.00  0.00    +0.000 C 
ATOM     22  C   UNL     1       1.785   3.705  18.098  0.00  0.00    +0.000 C 
ATOM     23  C   UNL     1       2.886   4.283  17.210  0.00  0.00    +0.000 C 
ENDBRANCH  14  16
ENDBRANCH   1  14
TORSDOF 3
ENDMDL
