MODEL 1
REMARK VINA RESULT:      -6.9      0.000      0.000
REMARK  Name = 
REMARK  2 active torsions:
REMARK  status: ('A' for Active; 'I' for Inactive)
REMARK    1  A    between atoms: C_4  and  O_5
REMARK    2  A    between atoms: C_8  and  C_9
REMARK                            x       y       z     vdW  Elec       q    Type
REMARK                         _______ _______ _______ _____ _____    ______ ____
ROOT
ATOM      1  N   UNL     1       1.972   7.504  20.871  0.00  0.00    +0.000 N 
ATOM      2  C   UNL     1       2.189   6.304  20.236  0.00  0.00    +0.000 A 
ATOM      3  N   UNL     1       1.330   5.319  20.468  0.00  0.00    +0.000 NA
ATOM      4  C   UNL     1       1.641   4.146  19.905  0.00  0.00    +0.000 A 
ATOM      5  C   UNL     1       2.744   3.895  19.109  0.00  0.00    +0.000 A 
ATOM      6  I   UNL     1       3.171   1.924  18.547  0.00  0.00    +0.000 I 
ATOM      7  C   UNL     1       3.522   5.012  18.840  0.00  0.00    +0.000 A 
ATOM      8  N   UNL     1       3.241   6.214  19.420  0.00  0.00    +0.000 NA
ATOM      9  H   UNL     1       1.001   7.613  21.127  0.00  0.00    +0.000 HD
ATOM     10  H   UNL     1       2.418   8.263  20.377  0.00  0.00    +0.000 HD
ENDROOT
BRANCH   7  11
ATOM     11  C   UNL     1       4.706   5.084  17.939  0.00  0.00    +0.000 A 
ATOM     12  C   UNL     1       4.577   5.610  16.632  0.00  0.00    +0.000 A 
ATOM     13  C   UNL     1       5.657   5.663  15.741  0.00  0.00    +0.000 A 
ATOM     14  C   UNL     1       6.906   5.204  16.141  0.00  0.00    +0.000 A 
ATOM     15  C   UNL     1       7.050   4.666  17.411  0.00  0.00    +0.000 A 
ATOM     16  F   UNL     1       8.248   4.213  17.800  0.00  0.00    +0.000 F 
ATOM     17  C   UNL     1       5.969   4.580  18.287  0.00  0.00    +0.000 A 
ENDBRANCH   7  11
BRANCH   4  18
ATOM     18  O   UNL     1       0.729   3.184  20.204  0.00  0.00    +0.000 OA
ATOM     19  H   UNL     1       0.992   2.482  19.579  0.00  0.00    +0.000 HD
ENDBRANCH   4  18
TORSDOF 2
ENDMDL
MODEL 2
REMARK VINA RESULT:      -6.7      3.678      5.420
REMARK  Name = 
REMARK  2 active torsions:
REMARK  status: ('A' for Active; 'I' for Inactive)
REMARK    1  A    between atoms: C_4  and  O_5
REMARK    2  A    between atoms: C_8  and  C_9
REMARK                            x       y       z     vdW  Elec       q    Type
REMARK                         _______ _______ _______ _____ _____    ______ ____
ROOT
ATOM      1  N   UNL     1       8.302   5.503  20.515  0.00  0.00    +0.000 N 
ATOM      2  C   UNL     1       7.502   5.109  19.468  0.00  0.00    +0.000 A 
ATOM      3  N   UNL     1       8.077   4.923  18.287  0.00  0.00    +0.000 NA
ATOM      4  C   UNL     1       7.240   4.638  17.283  0.00  0.00    +0.000 A 
ATOM      5  C   UNL     1       5.866   4.506  17.383  0.00  0.00    +0.000 A 
ATOM      6  I   UNL     1       4.729   4.312  15.637  0.00  0.00    +0.000 I 
ATOM      7  C   UNL     1       5.374   4.614  18.676  0.00  0.00    +0.000 A 
ATOM      8  N   UNL     1       6.202   4.928  19.714  0.00  0.00    +0.000 NA
ATOM      9  H   UNL     1       9.264   5.238  20.360  0.00  0.00    +0.000 HD
ATOM     10  H   UNL     1       7.884   5.265  21.402  0.00  0.00    +0.000 HD
ENDROOT
BRANCH   7  11
ATOM     11  C   UNL     1       3.966   4.419  19.118  0.00  0.00    +0.000 A 
ATOM     12  C   UNL     1       3.262   5.476  19.742  0.00  0.00    +0.000 A 
ATOM     13  C   UNL     1       1.948   5.324  20.205  0.00  0.00    +0.000 A 
ATOM     14  C   UNL     1       1.294   4.110  20.041  0.00  0.00    +0.000 A 
ATOM     15  C   UNL     1       1.972   3.054  19.451  0.00  0.00    +0.000 A 
ATOM     16  F   UNL     1       1.352   1.878  19.298  0.00  0.00    +0.000 F 
ATOM     17  C   UNL     1       3.291   3.193  19.021  0.00  0.00    +0.000 A 
ENDBRANCH   7  11
BRANCH   4  18
ATOM     18  O   UNL     1       7.899   4.484  16.104  0.00  0.00    +0.000 OA
ATOM     19  H   UNL     1       8.574   5.184  16.179  0.00  0.00    +0.000 HD
ENDBRANCH   4  18
TORSDOF 2
ENDMDL
MODEL 3
REMARK VINA RESULT:      -6.7      2.559      3.019
REMARK  Name = 
REMARK  2 active torsions:
REMARK  status: ('A' for Active; 'I' for Inactive)
REMARK    1  A    between atoms: C_4  and  O_5
REMARK    2  A    between atoms: C_8  and  C_9
REMARK                            x       y       z     vdW  Elec       q    Type
REMARK                         _______ _______ _______ _____ _____    ______ ____
ROOT
ATOM      1  N   UNL     1       3.712   0.793  18.502  0.00  0.00    +0.000 N 
ATOM      2  C   UNL     1       3.453   2.082  18.903  0.00  0.00    +0.000 A 
ATOM      3  N   UNL     1       2.363   2.296  19.630  0.00  0.00    +0.000 NA
ATOM      4  C   UNL     1       2.107   3.579  19.909  0.00  0.00    +0.000 A 
ATOM      5  C   UNL     1       2.876   4.663  19.527  0.00  0.00    +0.000 A 
ATOM      6  I   UNL     1       2.148   6.598  19.853  0.00  0.00    +0.000 I 
ATOM      7  C   UNL     1       4.048   4.328  18.864  0.00  0.00    +0.000 A 
ATOM      8  N   UNL     1       4.322   3.030  18.546  0.00  0.00    +0.000 NA
ATOM      9  H   UNL     1       3.266   0.122  19.113  0.00  0.00    +0.000 HD
ATOM     10  H   UNL     1       4.691   0.665  18.296  0.00  0.00    +0.000 HD
ENDROOT
BRANCH   7  11
ATOM     11  C   UNL     1       5.125   5.256  18.420  0.00  0.00    +0.000 A 
ATOM     12  C   UNL     1       4.941   6.063  17.273  0.00  0.00    +0.000 A 
ATOM     13  C   UNL     1       5.942   6.924  16.801  0.00  0.00    +0.000 A 
ATOM     14  C   UNL     1       7.152   7.013  17.477  0.00  0.00    +0.000 A 
ATOM     15  C   UNL     1       7.360   6.215  18.592  0.00  0.00    +0.000 A 
ATOM     16  F   UNL     1       8.528   6.288  19.244  0.00  0.00    +0.000 F 
ATOM     17  C   UNL     1       6.379   5.333  19.043  0.00  0.00    +0.000 A 
ENDBRANCH   7  11
BRANCH   4  18
ATOM     18  O   UNL     1       0.966   3.720  20.635  0.00  0.00    +0.000 OA
ATOM     19  H   UNL     1       0.294   3.672  19.930  0.00  0.00    +0.000 HD
ENDBRANCH   4  18
TORSDOF 2
ENDMDL
MODEL 4
REMARK VINA RESULT:      -6.7      1.120      1.610
REMARK  Name = 
REMARK  2 active torsions:
REMARK  status: ('A' for Active; 'I' for Inactive)
REMARK    1  A    between atoms: C_4  and  O_5
REMARK    2  A    between atoms: C_8  and  C_9
REMARK                            x       y       z     vdW  Elec       q    Type
REMARK                         _______ _______ _______ _____ _____    ______ ____
ROOT
ATOM      1  N   UNL     1       1.803   7.412  21.047  0.00  0.00    +0.000 N 
ATOM      2  C   UNL     1       2.058   6.240  20.373  0.00  0.00    +0.000 A 
ATOM      3  N   UNL     1       1.200   5.240  20.528  0.00  0.00    +0.000 NA
ATOM      4  C   UNL     1       1.547   4.093  19.932  0.00  0.00    +0.000 A 
ATOM      5  C   UNL     1       2.684   3.884  19.173  0.00  0.00    +0.000 A 
ATOM      6  I   UNL     1       3.153   1.942  18.550  0.00  0.00    +0.000 I 
ATOM      7  C   UNL     1       3.461   5.018  18.983  0.00  0.00    +0.000 A 
ATOM      8  N   UNL     1       3.144   6.192  19.598  0.00  0.00    +0.000 NA
ATOM      9  H   UNL     1       0.821   7.502  21.266  0.00  0.00    +0.000 HD
ATOM     10  H   UNL     1       2.261   8.194  20.603  0.00  0.00    +0.000 HD
ENDROOT
BRANCH   7  11
ATOM     11  C   UNL     1       4.681   5.136  18.136  0.00  0.00    +0.000 A 
ATOM     12  C   UNL     1       5.965   5.125  18.731  0.00  0.00    +0.000 A 
ATOM     13  C   UNL     1       7.136   5.270  17.976  0.00  0.00    +0.000 A 
ATOM     14  C   UNL     1       7.055   5.415  16.597  0.00  0.00    +0.000 A 
ATOM     15  C   UNL     1       5.806   5.449  15.996  0.00  0.00    +0.000 A 
ATOM     16  F   UNL     1       5.720   5.598  14.668  0.00  0.00    +0.000 F 
ATOM     17  C   UNL     1       4.638   5.340  16.749  0.00  0.00    +0.000 A 
ENDBRANCH   7  11
BRANCH   4  18
ATOM     18  O   UNL     1       0.632   3.112  20.153  0.00  0.00    +0.000 OA
ATOM     19  H   UNL     1       0.107   3.163  19.332  0.00  0.00    +0.000 HD
ENDBRANCH   4  18
TORSDOF 2
ENDMDL
MODEL 5
REMARK VINA RESULT:      -6.6      4.027      5.457
REMARK  Name = 
REMARK  2 active torsions:
REMARK  status: ('A' for Active; 'I' for Inactive)
REMARK    1  A    between atoms: C_4  and  O_5
REMARK    2  A    between atoms: C_8  and  C_9
REMARK                            x       y       z     vdW  Elec       q    Type
REMARK                         _______ _______ _______ _____ _____    ______ ____
ROOT
ATOM      1  N   UNL     1       8.418   5.225  20.722  0.00  0.00    +0.000 N 
ATOM      2  C   UNL     1       7.599   5.509  19.655  0.00  0.00    +0.000 A 
ATOM      3  N   UNL     1       8.048   6.362  18.743  0.00  0.00    +0.000 NA
ATOM      4  C   UNL     1       7.174   6.679  17.780  0.00  0.00    +0.000 A 
ATOM      5  C   UNL     1       5.888   6.185  17.656  0.00  0.00    +0.000 A 
ATOM      6  I   UNL     1       4.610   7.014  16.220  0.00  0.00    +0.000 I 
ATOM      7  C   UNL     1       5.552   5.221  18.596  0.00  0.00    +0.000 A 
ATOM      8  N   UNL     1       6.414   4.898  19.602  0.00  0.00    +0.000 NA
ATOM      9  H   UNL     1       9.389   5.394  20.495  0.00  0.00    +0.000 HD
ATOM     10  H   UNL     1       8.180   4.338  21.139  0.00  0.00    +0.000 HD
ENDROOT
BRANCH   7  11
ATOM     11  C   UNL     1       4.288   4.435  18.662  0.00  0.00    +0.000 A 
ATOM     12  C   UNL     1       4.089   3.334  17.797  0.00  0.00    +0.000 A 
ATOM     13  C   UNL     1       2.901   2.590  17.801  0.00  0.00    +0.000 A 
ATOM     14  C   UNL     1       1.883   2.919  18.687  0.00  0.00    +0.000 A 
ATOM     15  C   UNL     1       2.050   4.007  19.529  0.00  0.00    +0.000 A 
ATOM     16  F   UNL     1       1.069   4.337  20.379  0.00  0.00    +0.000 F 
ATOM     17  C   UNL     1       3.216   4.770  19.503  0.00  0.00    +0.000 A 
ENDBRANCH   7  11
BRANCH   4  18
ATOM     18  O   UNL     1       7.696   7.572  16.897  0.00  0.00    +0.000 OA
ATOM     19  H   UNL     1       8.363   8.012  17.457  0.00  0.00    +0.000 HD
ENDBRANCH   4  18
TORSDOF 2
ENDMDL
MODEL 6
REMARK VINA RESULT:      -6.6      3.856      5.480
REMARK  Name = 
REMARK  2 active torsions:
REMARK  status: ('A' for Active; 'I' for Inactive)
REMARK    1  A    between atoms: C_4  and  O_5
REMARK    2  A    between atoms: C_8  and  C_9
REMARK                            x       y       z     vdW  Elec       q    Type
REMARK                         _______ _______ _______ _____ _____    ______ ____
ROOT
ATOM      1  N   UNL     1       8.574   5.194  20.694  0.00  0.00    +0.000 N 
ATOM      2  C   UNL     1       7.677   5.448  19.683  0.00  0.00    +0.000 A 
ATOM      3  N   UNL     1       8.119   6.098  18.614  0.00  0.00    +0.000 NA
ATOM      4  C   UNL     1       7.185   6.407  17.708  0.00  0.00    +0.000 A 
ATOM      5  C   UNL     1       5.840   6.092  17.788  0.00  0.00    +0.000 A 
ATOM      6  I   UNL     1       4.517   6.898  16.380  0.00  0.00    +0.000 I 
ATOM      7  C   UNL     1       5.497   5.322  18.890  0.00  0.00    +0.000 A 
ATOM      8  N   UNL     1       6.425   5.014  19.841  0.00  0.00    +0.000 NA
ATOM      9  H   UNL     1       9.524   5.189  20.348  0.00  0.00    +0.000 HD
ATOM     10  H   UNL     1       8.275   4.414  21.259  0.00  0.00    +0.000 HD
ENDROOT
BRANCH   7  11
ATOM     11  C   UNL     1       4.160   4.743  19.198  0.00  0.00    +0.000 A 
ATOM     12  C   UNL     1       3.185   5.518  19.869  0.00  0.00    +0.000 A 
ATOM     13  C   UNL     1       1.928   5.000  20.209  0.00  0.00    +0.000 A 
ATOM     14  C   UNL     1       1.605   3.693  19.872  0.00  0.00    +0.000 A 
ATOM     15  C   UNL     1       2.554   2.909  19.232  0.00  0.00    +0.000 A 
ATOM     16  F   UNL     1       2.253   1.643  18.913  0.00  0.00    +0.000 F 
ATOM     17  C   UNL     1       3.817   3.410  18.923  0.00  0.00    +0.000 A 
ENDBRANCH   7  11
BRANCH   4  18
ATOM     18  O   UNL     1       7.708   7.089  16.654  0.00  0.00    +0.000 OA
ATOM     19  H   UNL     1       8.445   6.500  16.404  0.00  0.00    +0.000 HD
ENDBRANCH   4  18
TORSDOF 2
ENDMDL
MODEL 7
REMARK VINA RESULT:      -6.6      3.432      4.848
REMARK  Name = 
REMARK  2 active torsions:
REMARK  status: ('A' for Active; 'I' for Inactive)
REMARK    1  A    between atoms: C_4  and  O_5
REMARK    2  A    between atoms: C_8  and  C_9
REMARK                            x       y       z     vdW  Elec       q    Type
REMARK                         _______ _______ _______ _____ _____    ______ ____
ROOT
ATOM      1  N   UNL     1       7.366   5.293  18.970  0.00  0.00    +0.000 N 
ATOM      2  C   UNL     1       6.035   4.946  19.008  0.00  0.00    +0.000 A 
ATOM      3  N   UNL     1       5.735   3.656  19.085  0.00  0.00    +0.000 NA
ATOM      4  C   UNL     1       4.430   3.370  19.018  0.00  0.00    +0.000 A 
ATOM      5  C   UNL     1       3.401   4.288  18.901  0.00  0.00    +0.000 A 
ATOM      6  I   UNL     1       1.455   3.601  18.555  0.00  0.00    +0.000 I 
ATOM      7  C   UNL     1       3.811   5.613  18.936  0.00  0.00    +0.000 A 
ATOM      8  N   UNL     1       5.136   5.933  18.979  0.00  0.00    +0.000 NA
ATOM      9  H   UNL     1       7.943   4.573  19.383  0.00  0.00    +0.000 HD
ATOM     10  H   UNL     1       7.504   6.243  19.280  0.00  0.00    +0.000 HD
ENDROOT
BRANCH   7  11
ATOM     11  C   UNL     1       2.940   6.821  18.934  0.00  0.00    +0.000 A 
ATOM     12  C   UNL     1       2.896   7.666  17.800  0.00  0.00    +0.000 A 
ATOM     13  C   UNL     1       2.118   8.831  17.771  0.00  0.00    +0.000 A 
ATOM     14  C   UNL     1       1.346   9.175  18.873  0.00  0.00    +0.000 A 
ATOM     15  C   UNL     1       1.390   8.371  20.002  0.00  0.00    +0.000 A 
ATOM     16  F   UNL     1       0.656   8.701  21.073  0.00  0.00    +0.000 F 
ATOM     17  C   UNL     1       2.190   7.230  20.047  0.00  0.00    +0.000 A 
ENDBRANCH   7  11
BRANCH   4  18
ATOM     18  O   UNL     1       4.202   2.031  19.081  0.00  0.00    +0.000 OA
ATOM     19  H   UNL     1       3.232   2.015  19.180  0.00  0.00    +0.000 HD
ENDBRANCH   4  18
TORSDOF 2
ENDMDL
MODEL 8
REMARK VINA RESULT:      -6.6      3.759      5.525
REMARK  Name = 
REMARK  2 active torsions:
REMARK  status: ('A' for Active; 'I' for Inactive)
REMARK    1  A    between atoms: C_4  and  O_5
REMARK    2  A    between atoms: C_8  and  C_9
REMARK                            x       y       z     vdW  Elec       q    Type
REMARK                         _______ _______ _______ _____ _____    ______ ____
ROOT
ATOM      1  N   UNL     1       8.489   5.487  20.439  0.00  0.00    +0.000 N 
ATOM      2  C   UNL     1       7.629   5.094  19.441  0.00  0.00    +0.000 A 
ATOM      3  N   UNL     1       8.131   4.926  18.224  0.00  0.00    +0.000 NA
ATOM      4  C   UNL     1       7.235   4.641  17.272  0.00  0.00    +0.000 A 
ATOM      5  C   UNL     1       5.872   4.494  17.457  0.00  0.00    +0.000 A 
ATOM      6  I   UNL     1       4.629   4.303  15.784  0.00  0.00    +0.000 I 
ATOM      7  C   UNL     1       5.461   4.584  18.779  0.00  0.00    +0.000 A 
ATOM      8  N   UNL     1       6.349   4.897  19.766  0.00  0.00    +0.000 NA
ATOM      9  H   UNL     1       9.443   5.233  20.221  0.00  0.00    +0.000 HD
ATOM     10  H   UNL     1       8.131   5.236  21.349  0.00  0.00    +0.000 HD
ENDROOT
BRANCH   7  11
ATOM     11  C   UNL     1       4.085   4.370  19.307  0.00  0.00    +0.000 A 
ATOM     12  C   UNL     1       3.500   3.082  19.271  0.00  0.00    +0.000 A 
ATOM     13  C   UNL     1       2.195   2.844  19.724  0.00  0.00    +0.000 A 
ATOM     14  C   UNL     1       1.443   3.890  20.243  0.00  0.00    +0.000 A 
ATOM     15  C   UNL     1       1.990   5.164  20.269  0.00  0.00    +0.000 A 
ATOM     16  F   UNL     1       1.267   6.179  20.759  0.00  0.00    +0.000 F 
ATOM     17  C   UNL     1       3.274   5.410  19.787  0.00  0.00    +0.000 A 
ENDBRANCH   7  11
BRANCH   4  18
ATOM     18  O   UNL     1       7.819   4.504  16.052  0.00  0.00    +0.000 OA
ATOM     19  H   UNL     1       8.244   3.631  16.150  0.00  0.00    +0.000 HD
ENDBRANCH   4  18
TORSDOF 2
ENDMDL
MODEL 9
REMARK VINA RESULT:      -6.6      3.712      4.774
REMARK  Name = 
REMARK  2 active torsions:
REMARK  status: ('A' for Active; 'I' for Inactive)
REMARK    1  A    between atoms: C_4  and  O_5
REMARK    2  A    between atoms: C_8  and  C_9
REMARK                            x       y       z     vdW  Elec       q    Type
REMARK                         _______ _______ _______ _____ _____    ______ ____
ROOT
ATOM      1  N   UNL     1       1.165   2.657  21.963  0.00  0.00    +0.000 N 
ATOM      2  C   UNL     1       2.077   3.225  21.104  0.00  0.00    +0.000 A 
ATOM      3  N   UNL     1       3.117   2.490  20.734  0.00  0.00    +0.000 NA
ATOM      4  C   UNL     1       4.023   3.123  19.979  0.00  0.00    +0.000 A 
ATOM      5  C   UNL     1       3.949   4.437  19.553  0.00  0.00    +0.000 A 
ATOM      6  I   UNL     1       5.602   5.295  18.597  0.00  0.00    +0.000 I 
ATOM      7  C   UNL     1       2.774   5.087  19.903  0.00  0.00    +0.000 A 
ATOM      8  N   UNL     1       1.846   4.474  20.692  0.00  0.00    +0.000 NA
ATOM      9  H   UNL     1       1.188   1.648  21.906  0.00  0.00    +0.000 HD
ATOM     10  H   UNL     1       0.267   3.113  21.895  0.00  0.00    +0.000 HD
ENDROOT
BRANCH   7  11
ATOM     11  C   UNL     1       2.358   6.462  19.508  0.00  0.00    +0.000 A 
ATOM     12  C   UNL     1       2.510   6.894  18.169  0.00  0.00    +0.000 A 
ATOM     13  C   UNL     1       2.164   8.190  17.763  0.00  0.00    +0.000 A 
ATOM     14  C   UNL     1       1.639   9.087  18.685  0.00  0.00    +0.000 A 
ATOM     15  C   UNL     1       1.502   8.689  20.006  0.00  0.00    +0.000 A 
ATOM     16  F   UNL     1       1.006   9.551  20.903  0.00  0.00    +0.000 F 
ATOM     17  C   UNL     1       1.877   7.412  20.420  0.00  0.00    +0.000 A 
ENDBRANCH   7  11
BRANCH   4  18
ATOM     18  O   UNL     1       5.067   2.315  19.657  0.00  0.00    +0.000 OA
ATOM     19  H   UNL     1       5.819   2.863  19.950  0.00  0.00    +0.000 HD
ENDBRANCH   4  18
TORSDOF 2
ENDMDL
