MODEL 1
REMARK VINA RESULT:      -9.0      0.000      0.000
REMARK  Name = 
REMARK  7 active torsions:
REMARK  status: ('A' for Active; 'I' for Inactive)
REMARK    1  A    between atoms: C_2  and  C_3
REMARK    2  A    between atoms: C_2  and  O_12
REMARK    3  A    between atoms: C_4  and  C_5
REMARK    4  A    between atoms: O_12  and  C_13
REMARK    5  A    between atoms: C_15  and  C_16
REMARK    6  A    between atoms: C_16  and  C_17
REMARK    7  A    between atoms: C_17  and  C_18
REMARK                            x       y       z     vdW  Elec       q    Type
REMARK                         _______ _______ _______ _____ _____    ______ ____
ROOT
ATOM      1  C   UNL     1       5.705   4.972  17.585  0.00  0.00    +0.000 A 
ATOM      2  C   UNL     1       6.427   5.959  18.348  0.00  0.00    +0.000 A 
ATOM      3  C   UNL     1       7.418   6.659  17.779  0.00  0.00    +0.000 A 
ATOM      4  O   UNL     1       7.775   6.423  16.424  0.00  0.00    +0.000 OA
ATOM      5  C   UNL     1       7.123   5.495  15.663  0.00  0.00    +0.000 A 
ATOM      6  O   UNL     1       7.426   5.273  14.497  0.00  0.00    +0.000 OA
ATOM      7  C   UNL     1       6.022   4.755  16.303  0.00  0.00    +0.000 A 
ENDROOT
BRANCH   1   8
ATOM      8  O   UNL     1       4.685   4.333  18.330  0.00  0.00    +0.000 OA
BRANCH   8  10
ATOM      9  O   UNL     1       2.906   3.222  17.336  0.00  0.00    +0.000 OA
ATOM     10  C   UNL     1       3.402   4.188  17.894  0.00  0.00    +0.000 C 
BRANCH  10  11
ATOM     11  C   UNL     1       2.592   5.400  18.159  0.00  0.00    +0.000 C 
ATOM     12  C   UNL     1       3.034   6.504  18.781  0.00  0.00    +0.000 C 
BRANCH  12  13
ATOM     13  C   UNL     1       2.217   7.711  18.995  0.00  0.00    +0.000 A 
ATOM     14  C   UNL     1       1.913   8.621  17.972  0.00  0.00    +0.000 A 
ATOM     15  C   UNL     1       1.131   9.752  18.231  0.00  0.00    +0.000 A 
ATOM     16  C   UNL     1       0.630   9.976  19.511  0.00  0.00    +0.000 A 
ATOM     17  C   UNL     1       0.910   9.066  20.526  0.00  0.00    +0.000 A 
ATOM     18 CL   UNL     1       0.287   9.332  22.109  0.00  0.00    +0.000 Cl
ATOM     19  C   UNL     1       1.692   7.938  20.274  0.00  0.00    +0.000 A 
ENDBRANCH  12  13
ENDBRANCH  10  11
ENDBRANCH   8  10
ENDBRANCH   1   8
BRANCH   3  20
ATOM     20  C   UNL     1       8.260   7.729  18.434  0.00  0.00    +0.000 C 
BRANCH  20  21
ATOM     21  C   UNL     1       8.107   9.142  17.858  0.00  0.00    +0.000 C 
BRANCH  21  22
ATOM     22  C   UNL     1       9.024  10.140  18.525  0.00  0.00    +0.000 A 
ATOM     23  C   UNL     1       9.065  10.233  19.923  0.00  0.00    +0.000 A 
ATOM     24  C   UNL     1       9.915  11.145  20.549  0.00  0.00    +0.000 A 
ATOM     25  C   UNL     1      10.728  11.979  19.783  0.00  0.00    +0.000 A 
ATOM     26  C   UNL     1      10.688  11.902  18.392  0.00  0.00    +0.000 A 
ATOM     27  C   UNL     1       9.838  10.990  17.763  0.00  0.00    +0.000 A 
ENDBRANCH  21  22
ENDBRANCH  20  21
ENDBRANCH   3  20
TORSDOF 7
ENDMDL
MODEL 2
REMARK VINA RESULT:      -8.9      2.867      8.145
REMARK  Name = 
REMARK  7 active torsions:
REMARK  status: ('A' for Active; 'I' for Inactive)
REMARK    1  A    between atoms: C_2  and  C_3
REMARK    2  A    between atoms: C_2  and  O_12
REMARK    3  A    between atoms: C_4  and  C_5
REMARK    4  A    between atoms: O_12  and  C_13
REMARK    5  A    between atoms: C_15  and  C_16
REMARK    6  A    between atoms: C_16  and  C_17
REMARK    7  A    between atoms: C_17  and  C_18
REMARK                            x       y       z     vdW  Elec       q    Type
REMARK                         _______ _______ _______ _____ _____    ______ ____
ROOT
ATOM      1  C   UNL     1       6.476   6.586  16.788  0.00  0.00    +0.000 A 
ATOM      2  C   UNL     1       5.197   6.907  17.370  0.00  0.00    +0.000 A 
ATOM      3  C   UNL     1       4.204   6.006  17.351  0.00  0.00    +0.000 A 
ATOM      4  O   UNL     1       4.400   4.736  16.745  0.00  0.00    +0.000 OA
ATOM      5  C   UNL     1       5.594   4.391  16.178  0.00  0.00    +0.000 A 
ATOM      6  O   UNL     1       5.775   3.303  15.642  0.00  0.00    +0.000 OA
ATOM      7  C   UNL     1       6.677   5.386  16.231  0.00  0.00    +0.000 A 
ENDROOT
BRANCH   1   8
ATOM      8  O   UNL     1       7.415   7.640  16.902  0.00  0.00    +0.000 OA
BRANCH   8  10
ATOM      9  O   UNL     1       8.415   7.168  18.942  0.00  0.00    +0.000 OA
ATOM     10  C   UNL     1       8.097   7.932  18.045  0.00  0.00    +0.000 C 
BRANCH  10  11
ATOM     11  C   UNL     1       8.435   9.372  18.130  0.00  0.00    +0.000 C 
ATOM     12  C   UNL     1       9.424   9.891  18.875  0.00  0.00    +0.000 C 
BRANCH  12  13
ATOM     13  C   UNL     1       9.764  11.323  18.909  0.00  0.00    +0.000 A 
ATOM     14  C   UNL     1      10.967  11.812  19.439  0.00  0.00    +0.000 A 
ATOM     15  C   UNL     1      11.239  13.185  19.444  0.00  0.00    +0.000 A 
ATOM     16  C   UNL     1      10.319  14.082  18.907  0.00  0.00    +0.000 A 
ATOM     17  C   UNL     1       9.132  13.601  18.360  0.00  0.00    +0.000 A 
ATOM     18 CL   UNL     1       7.995  14.703  17.686  0.00  0.00    +0.000 Cl
ATOM     19  C   UNL     1       8.855  12.233  18.354  0.00  0.00    +0.000 A 
ENDBRANCH  12  13
ENDBRANCH  10  11
ENDBRANCH   8  10
ENDBRANCH   1   8
BRANCH   3  20
ATOM     20  C   UNL     1       2.816   6.180  17.923  0.00  0.00    +0.000 C 
BRANCH  20  21
ATOM     21  C   UNL     1       1.876   4.979  17.766  0.00  0.00    +0.000 C 
BRANCH  21  22
ATOM     22  C   UNL     1       1.838   4.111  19.001  0.00  0.00    +0.000 A 
ATOM     23  C   UNL     1       1.587   2.737  18.887  0.00  0.00    +0.000 A 
ATOM     24  C   UNL     1       1.559   1.924  20.021  0.00  0.00    +0.000 A 
ATOM     25  C   UNL     1       1.773   2.479  21.282  0.00  0.00    +0.000 A 
ATOM     26  C   UNL     1       2.012   3.847  21.408  0.00  0.00    +0.000 A 
ATOM     27  C   UNL     1       2.042   4.661  20.274  0.00  0.00    +0.000 A 
ENDBRANCH  21  22
ENDBRANCH  20  21
ENDBRANCH   3  20
TORSDOF 7
ENDMDL
MODEL 3
REMARK VINA RESULT:      -8.8      1.369      2.038
REMARK  Name = 
REMARK  7 active torsions:
REMARK  status: ('A' for Active; 'I' for Inactive)
REMARK    1  A    between atoms: C_2  and  C_3
REMARK    2  A    between atoms: C_2  and  O_12
REMARK    3  A    between atoms: C_4  and  C_5
REMARK    4  A    between atoms: O_12  and  C_13
REMARK    5  A    between atoms: C_15  and  C_16
REMARK    6  A    between atoms: C_16  and  C_17
REMARK    7  A    between atoms: C_17  and  C_18
REMARK                            x       y       z     vdW  Elec       q    Type
REMARK                         _______ _______ _______ _____ _____    ______ ____
ROOT
ATOM      1  C   UNL     1       5.972   6.142  17.594  0.00  0.00    +0.000 A 
ATOM      2  C   UNL     1       6.509   7.441  17.279  0.00  0.00    +0.000 A 
ATOM      3  C   UNL     1       7.643   7.861  17.859  0.00  0.00    +0.000 A 
ATOM      4  O   UNL     1       8.314   7.035  18.800  0.00  0.00    +0.000 OA
ATOM      5  C   UNL     1       7.840   5.798  19.133  0.00  0.00    +0.000 A 
ATOM      6  O   UNL     1       8.402   5.078  19.950  0.00  0.00    +0.000 OA
ATOM      7  C   UNL     1       6.607   5.348  18.466  0.00  0.00    +0.000 A 
ENDROOT
BRANCH   1   8
ATOM      8  O   UNL     1       4.780   5.849  16.889  0.00  0.00    +0.000 OA
BRANCH   8  10
ATOM      9  O   UNL     1       3.492   4.001  17.443  0.00  0.00    +0.000 OA
ATOM     10  C   UNL     1       3.713   5.201  17.434  0.00  0.00    +0.000 C 
BRANCH  10  11
ATOM     11  C   UNL     1       2.753   6.146  18.052  0.00  0.00    +0.000 C 
ATOM     12  C   UNL     1       2.890   7.480  18.078  0.00  0.00    +0.000 C 
BRANCH  12  13
ATOM     13  C   UNL     1       1.900   8.399  18.664  0.00  0.00    +0.000 A 
ATOM     14  C   UNL     1       1.181   9.335  17.907  0.00  0.00    +0.000 A 
ATOM     15  C   UNL     1       0.249  10.183  18.517  0.00  0.00    +0.000 A 
ATOM     16  C   UNL     1       0.015  10.093  19.887  0.00  0.00    +0.000 A 
ATOM     17  C   UNL     1       0.710   9.152  20.641  0.00  0.00    +0.000 A 
ATOM     18 CL   UNL     1       0.419   9.030  22.333  0.00  0.00    +0.000 Cl
ATOM     19  C   UNL     1       1.642   8.305  20.038  0.00  0.00    +0.000 A 
ENDBRANCH  12  13
ENDBRANCH  10  11
ENDBRANCH   8  10
ENDBRANCH   1   8
BRANCH   3  20
ATOM     20  C   UNL     1       8.338   9.183  17.631  0.00  0.00    +0.000 C 
BRANCH  20  21
ATOM     21  C   UNL     1       8.962   9.830  18.873  0.00  0.00    +0.000 C 
BRANCH  21  22
ATOM     22  C   UNL     1       9.668  11.127  18.556  0.00  0.00    +0.000 A 
ATOM     23  C   UNL     1       9.002  12.133  17.841  0.00  0.00    +0.000 A 
ATOM     24  C   UNL     1       9.642  13.338  17.550  0.00  0.00    +0.000 A 
ATOM     25  C   UNL     1      10.956  13.547  17.965  0.00  0.00    +0.000 A 
ATOM     26  C   UNL     1      11.631  12.550  18.666  0.00  0.00    +0.000 A 
ATOM     27  C   UNL     1      10.993  11.343  18.959  0.00  0.00    +0.000 A 
ENDBRANCH  21  22
ENDBRANCH  20  21
ENDBRANCH   3  20
TORSDOF 7
ENDMDL
MODEL 4
REMARK VINA RESULT:      -8.8      1.023      1.118
REMARK  Name = 
REMARK  7 active torsions:
REMARK  status: ('A' for Active; 'I' for Inactive)
REMARK    1  A    between atoms: C_2  and  C_3
REMARK    2  A    between atoms: C_2  and  O_12
REMARK    3  A    between atoms: C_4  and  C_5
REMARK    4  A    between atoms: O_12  and  C_13
REMARK    5  A    between atoms: C_15  and  C_16
REMARK    6  A    between atoms: C_16  and  C_17
REMARK    7  A    between atoms: C_17  and  C_18
REMARK                            x       y       z     vdW  Elec       q    Type
REMARK                         _______ _______ _______ _____ _____    ______ ____
ROOT
ATOM      1  C   UNL     1       6.535   4.972  18.074  0.00  0.00    +0.000 A 
ATOM      2  C   UNL     1       6.974   6.313  18.366  0.00  0.00    +0.000 A 
ATOM      3  C   UNL     1       7.538   7.061  17.406  0.00  0.00    +0.000 A 
ATOM      4  O   UNL     1       7.721   6.532  16.101  0.00  0.00    +0.000 OA
ATOM      5  C   UNL     1       7.326   5.264  15.780  0.00  0.00    +0.000 A 
ATOM      6  O   UNL     1       7.486   4.790  14.662  0.00  0.00    +0.000 OA
ATOM      7  C   UNL     1       6.687   4.470  16.843  0.00  0.00    +0.000 A 
ENDROOT
BRANCH   1   8
ATOM      8  O   UNL     1       5.953   4.325  19.191  0.00  0.00    +0.000 OA
BRANCH   8  10
ATOM      9  O   UNL     1       4.004   3.195  19.749  0.00  0.00    +0.000 OA
ATOM     10  C   UNL     1       4.610   4.186  19.374  0.00  0.00    +0.000 C 
BRANCH  10  11
ATOM     11  C   UNL     1       3.878   5.430  19.041  0.00  0.00    +0.000 C 
ATOM     12  C   UNL     1       2.963   6.023  19.824  0.00  0.00    +0.000 C 
BRANCH  12  13
ATOM     13  C   UNL     1       2.280   7.283  19.485  0.00  0.00    +0.000 A 
ATOM     14  C   UNL     1       2.255   7.815  18.187  0.00  0.00    +0.000 A 
ATOM     15  C   UNL     1       1.589   9.016  17.920  0.00  0.00    +0.000 A 
ATOM     16  C   UNL     1       0.929   9.691  18.944  0.00  0.00    +0.000 A 
ATOM     17  C   UNL     1       0.932   9.158  20.231  0.00  0.00    +0.000 A 
ATOM     18 CL   UNL     1       0.111   9.982  21.499  0.00  0.00    +0.000 Cl
ATOM     19  C   UNL     1       1.597   7.961  20.502  0.00  0.00    +0.000 A 
ENDBRANCH  12  13
ENDBRANCH  10  11
ENDBRANCH   8  10
ENDBRANCH   1   8
BRANCH   3  20
ATOM     20  C   UNL     1       8.039   8.480  17.545  0.00  0.00    +0.000 C 
BRANCH  20  21
ATOM     21  C   UNL     1       8.621   8.849  18.915  0.00  0.00    +0.000 C 
BRANCH  21  22
ATOM     22  C   UNL     1       9.184  10.251  18.944  0.00  0.00    +0.000 A 
ATOM     23  C   UNL     1      10.049  10.640  19.977  0.00  0.00    +0.000 A 
ATOM     24  C   UNL     1      10.581  11.929  20.008  0.00  0.00    +0.000 A 
ATOM     25  C   UNL     1      10.247  12.845  19.012  0.00  0.00    +0.000 A 
ATOM     26  C   UNL     1       9.379  12.472  17.987  0.00  0.00    +0.000 A 
ATOM     27  C   UNL     1       8.846  11.182  17.953  0.00  0.00    +0.000 A 
ENDBRANCH  21  22
ENDBRANCH  20  21
ENDBRANCH   3  20
TORSDOF 7
ENDMDL
MODEL 5
REMARK VINA RESULT:      -8.8      3.282      8.407
REMARK  Name = 
REMARK  7 active torsions:
REMARK  status: ('A' for Active; 'I' for Inactive)
REMARK    1  A    between atoms: C_2  and  C_3
REMARK    2  A    between atoms: C_2  and  O_12
REMARK    3  A    between atoms: C_4  and  C_5
REMARK    4  A    between atoms: O_12  and  C_13
REMARK    5  A    between atoms: C_15  and  C_16
REMARK    6  A    between atoms: C_16  and  C_17
REMARK    7  A    between atoms: C_17  and  C_18
REMARK                            x       y       z     vdW  Elec       q    Type
REMARK                         _______ _______ _______ _____ _____    ______ ____
ROOT
ATOM      1  C   UNL     1       5.557   6.948  17.193  0.00  0.00    +0.000 A 
ATOM      2  C   UNL     1       5.469   5.520  17.019  0.00  0.00    +0.000 A 
ATOM      3  C   UNL     1       4.297   4.890  17.192  0.00  0.00    +0.000 A 
ATOM      4  O   UNL     1       3.139   5.624  17.563  0.00  0.00    +0.000 OA
ATOM      5  C   UNL     1       3.176   6.978  17.743  0.00  0.00    +0.000 A 
ATOM      6  O   UNL     1       2.187   7.623  18.072  0.00  0.00    +0.000 OA
ATOM      7  C   UNL     1       4.467   7.650  17.525  0.00  0.00    +0.000 A 
ENDROOT
BRANCH   1   8
ATOM      8  O   UNL     1       6.859   7.454  16.963  0.00  0.00    +0.000 OA
BRANCH   8  10
ATOM      9  O   UNL     1       8.240   6.796  18.708  0.00  0.00    +0.000 OA
ATOM     10  C   UNL     1       7.790   7.633  17.942  0.00  0.00    +0.000 C 
BRANCH  10  11
ATOM     11  C   UNL     1       8.239   9.042  18.022  0.00  0.00    +0.000 C 
ATOM     12  C   UNL     1       9.091   9.532  18.936  0.00  0.00    +0.000 C 
BRANCH  12  13
ATOM     13  C   UNL     1       9.552  10.930  18.967  0.00  0.00    +0.000 A 
ATOM     14  C   UNL     1       9.412  11.758  20.091  0.00  0.00    +0.000 A 
ATOM     15  C   UNL     1       9.870  13.080  20.065  0.00  0.00    +0.000 A 
ATOM     16  C   UNL     1      10.486  13.584  18.922  0.00  0.00    +0.000 A 
ATOM     17  C   UNL     1      10.648  12.761  17.811  0.00  0.00    +0.000 A 
ATOM     18 CL   UNL     1      11.416  13.375  16.398  0.00  0.00    +0.000 Cl
ATOM     19  C   UNL     1      10.190  11.443  17.830  0.00  0.00    +0.000 A 
ENDBRANCH  12  13
ENDBRANCH  10  11
ENDBRANCH   8  10
ENDBRANCH   1   8
BRANCH   3  20
ATOM     20  C   UNL     1       4.037   3.410  17.039  0.00  0.00    +0.000 C 
BRANCH  20  21
ATOM     21  C   UNL     1       2.624   2.942  17.407  0.00  0.00    +0.000 C 
BRANCH  21  22
ATOM     22  C   UNL     1       2.387   2.938  18.899  0.00  0.00    +0.000 A 
ATOM     23  C   UNL     1       1.176   3.415  19.420  0.00  0.00    +0.000 A 
ATOM     24  C   UNL     1       0.944   3.408  20.796  0.00  0.00    +0.000 A 
ATOM     25  C   UNL     1       1.924   2.932  21.665  0.00  0.00    +0.000 A 
ATOM     26  C   UNL     1       3.137   2.466  21.159  0.00  0.00    +0.000 A 
ATOM     27  C   UNL     1       3.370   2.472  19.782  0.00  0.00    +0.000 A 
ENDBRANCH  21  22
ENDBRANCH  20  21
ENDBRANCH   3  20
TORSDOF 7
ENDMDL
MODEL 6
REMARK VINA RESULT:      -8.8      1.352      1.884
REMARK  Name = 
REMARK  7 active torsions:
REMARK  status: ('A' for Active; 'I' for Inactive)
REMARK    1  A    between atoms: C_2  and  C_3
REMARK    2  A    between atoms: C_2  and  O_12
REMARK    3  A    between atoms: C_4  and  C_5
REMARK    4  A    between atoms: O_12  and  C_13
REMARK    5  A    between atoms: C_15  and  C_16
REMARK    6  A    between atoms: C_16  and  C_17
REMARK    7  A    between atoms: C_17  and  C_18
REMARK                            x       y       z     vdW  Elec       q    Type
REMARK                         _______ _______ _______ _____ _____    ______ ____
ROOT
ATOM      1  C   UNL     1       6.233   4.719  18.262  0.00  0.00    +0.000 A 
ATOM      2  C   UNL     1       7.004   5.798  18.826  0.00  0.00    +0.000 A 
ATOM      3  C   UNL     1       7.647   6.658  18.024  0.00  0.00    +0.000 A 
ATOM      4  O   UNL     1       7.586   6.503  16.613  0.00  0.00    +0.000 OA
ATOM      5  C   UNL     1       6.872   5.493  16.033  0.00  0.00    +0.000 A 
ATOM      6  O   UNL     1       6.819   5.340  14.819  0.00  0.00    +0.000 OA
ATOM      7  C   UNL     1       6.155   4.575  16.933  0.00  0.00    +0.000 A 
ENDROOT
BRANCH   1   8
ATOM      8  O   UNL     1       5.609   3.911  19.243  0.00  0.00    +0.000 OA
BRANCH   8  10
ATOM      9  O   UNL     1       3.593   2.791  19.501  0.00  0.00    +0.000 OA
ATOM     10  C   UNL     1       4.259   3.809  19.399  0.00  0.00    +0.000 C 
BRANCH  10  11
ATOM     11  C   UNL     1       3.606   5.138  19.419  0.00  0.00    +0.000 C 
ATOM     12  C   UNL     1       2.528   5.459  20.151  0.00  0.00    +0.000 C 
BRANCH  12  13
ATOM     13  C   UNL     1       1.923   6.802  20.182  0.00  0.00    +0.000 A 
ATOM     14  C   UNL     1       1.125   7.258  21.241  0.00  0.00    +0.000 A 
ATOM     15  C   UNL     1       0.577   8.545  21.220  0.00  0.00    +0.000 A 
ATOM     16  C   UNL     1       0.833   9.395  20.147  0.00  0.00    +0.000 A 
ATOM     17  C   UNL     1       1.642   8.957  19.102  0.00  0.00    +0.000 A 
ATOM     18 CL   UNL     1       1.969  10.006  17.777  0.00  0.00    +0.000 Cl
ATOM     19  C   UNL     1       2.189   7.673  19.117  0.00  0.00    +0.000 A 
ENDBRANCH  12  13
ENDBRANCH  10  11
ENDBRANCH   8  10
ENDBRANCH   1   8
BRANCH   3  20
ATOM     20  C   UNL     1       8.484   7.840  18.454  0.00  0.00    +0.000 C 
BRANCH  20  21
ATOM     21  C   UNL     1       8.059   9.199  17.884  0.00  0.00    +0.000 C 
BRANCH  21  22
ATOM     22  C   UNL     1       8.824  10.347  18.498  0.00  0.00    +0.000 A 
ATOM     23  C   UNL     1       9.042  11.520  17.762  0.00  0.00    +0.000 A 
ATOM     24  C   UNL     1       9.740  12.590  18.324  0.00  0.00    +0.000 A 
ATOM     25  C   UNL     1      10.233  12.495  19.624  0.00  0.00    +0.000 A 
ATOM     26  C   UNL     1      10.031  11.329  20.361  0.00  0.00    +0.000 A 
ATOM     27  C   UNL     1       9.332  10.257  19.801  0.00  0.00    +0.000 A 
ENDBRANCH  21  22
ENDBRANCH  20  21
ENDBRANCH   3  20
TORSDOF 7
ENDMDL
MODEL 7
REMARK VINA RESULT:      -8.7      0.858      1.249
REMARK  Name = 
REMARK  7 active torsions:
REMARK  status: ('A' for Active; 'I' for Inactive)
REMARK    1  A    between atoms: C_2  and  C_3
REMARK    2  A    between atoms: C_2  and  O_12
REMARK    3  A    between atoms: C_4  and  C_5
REMARK    4  A    between atoms: O_12  and  C_13
REMARK    5  A    between atoms: C_15  and  C_16
REMARK    6  A    between atoms: C_16  and  C_17
REMARK    7  A    between atoms: C_17  and  C_18
REMARK                            x       y       z     vdW  Elec       q    Type
REMARK                         _______ _______ _______ _____ _____    ______ ____
ROOT
ATOM      1  C   UNL     1       6.161   4.984  18.102  0.00  0.00    +0.000 A 
ATOM      2  C   UNL     1       6.703   6.288  18.388  0.00  0.00    +0.000 A 
ATOM      3  C   UNL     1       7.329   6.983  17.427  0.00  0.00    +0.000 A 
ATOM      4  O   UNL     1       7.476   6.433  16.125  0.00  0.00    +0.000 OA
ATOM      5  C   UNL     1       6.982   5.199  15.810  0.00  0.00    +0.000 A 
ATOM      6  O   UNL     1       7.109   4.707  14.695  0.00  0.00    +0.000 OA
ATOM      7  C   UNL     1       6.278   4.465  16.874  0.00  0.00    +0.000 A 
ENDROOT
BRANCH   1   8
ATOM      8  O   UNL     1       5.524   4.392  19.219  0.00  0.00    +0.000 OA
BRANCH   8  10
ATOM      9  O   UNL     1       3.725   2.929  19.121  0.00  0.00    +0.000 OA
ATOM     10  C   UNL     1       4.206   4.044  19.248  0.00  0.00    +0.000 C 
BRANCH  10  11
ATOM     11  C   UNL     1       3.330   5.222  19.444  0.00  0.00    +0.000 C 
ATOM     12  C   UNL     1       3.358   6.339  18.700  0.00  0.00    +0.000 C 
BRANCH  12  13
ATOM     13  C   UNL     1       2.446   7.479  18.893  0.00  0.00    +0.000 A 
ATOM     14  C   UNL     1       1.996   8.287  17.839  0.00  0.00    +0.000 A 
ATOM     15  C   UNL     1       1.128   9.358  18.079  0.00  0.00    +0.000 A 
ATOM     16  C   UNL     1       0.690   9.624  19.374  0.00  0.00    +0.000 A 
ATOM     17  C   UNL     1       1.115   8.813  20.423  0.00  0.00    +0.000 A 
ATOM     18 CL   UNL     1       0.570   9.131  22.024  0.00  0.00    +0.000 Cl
ATOM     19  C   UNL     1       1.983   7.745  20.189  0.00  0.00    +0.000 A 
ENDBRANCH  12  13
ENDBRANCH  10  11
ENDBRANCH   8  10
ENDBRANCH   1   8
BRANCH   3  20
ATOM     20  C   UNL     1       7.941   8.358  17.560  0.00  0.00    +0.000 C 
BRANCH  20  21
ATOM     21  C   UNL     1       8.695   8.628  18.868  0.00  0.00    +0.000 C 
BRANCH  21  22
ATOM     22  C   UNL     1       9.099  10.076  19.014  0.00  0.00    +0.000 A 
ATOM     23  C   UNL     1       9.181  10.900  17.883  0.00  0.00    +0.000 A 
ATOM     24  C   UNL     1       9.546  12.241  18.008  0.00  0.00    +0.000 A 
ATOM     25  C   UNL     1       9.839  12.769  19.264  0.00  0.00    +0.000 A 
ATOM     26  C   UNL     1       9.772  11.956  20.394  0.00  0.00    +0.000 A 
ATOM     27  C   UNL     1       9.407  10.614  20.271  0.00  0.00    +0.000 A 
ENDBRANCH  21  22
ENDBRANCH  20  21
ENDBRANCH   3  20
TORSDOF 7
ENDMDL
MODEL 8
REMARK VINA RESULT:      -8.7      2.816      8.036
REMARK  Name = 
REMARK  7 active torsions:
REMARK  status: ('A' for Active; 'I' for Inactive)
REMARK    1  A    between atoms: C_2  and  C_3
REMARK    2  A    between atoms: C_2  and  O_12
REMARK    3  A    between atoms: C_4  and  C_5
REMARK    4  A    between atoms: O_12  and  C_13
REMARK    5  A    between atoms: C_15  and  C_16
REMARK    6  A    between atoms: C_16  and  C_17
REMARK    7  A    between atoms: C_17  and  C_18
REMARK                            x       y       z     vdW  Elec       q    Type
REMARK                         _______ _______ _______ _____ _____    ______ ____
ROOT
ATOM      1  C   UNL     1       6.586   6.601  16.690  0.00  0.00    +0.000 A 
ATOM      2  C   UNL     1       5.323   6.959  17.285  0.00  0.00    +0.000 A 
ATOM      3  C   UNL     1       4.315   6.075  17.310  0.00  0.00    +0.000 A 
ATOM      4  O   UNL     1       4.480   4.786  16.736  0.00  0.00    +0.000 OA
ATOM      5  C   UNL     1       5.657   4.404  16.158  0.00  0.00    +0.000 A 
ATOM      6  O   UNL     1       5.811   3.300  15.650  0.00  0.00    +0.000 OA
ATOM      7  C   UNL     1       6.757   5.383  16.163  0.00  0.00    +0.000 A 
ENDROOT
BRANCH   1   8
ATOM      8  O   UNL     1       7.544   7.642  16.757  0.00  0.00    +0.000 OA
BRANCH   8  10
ATOM      9  O   UNL     1       8.438   7.439  18.889  0.00  0.00    +0.000 OA
ATOM     10  C   UNL     1       8.096   8.094  17.918  0.00  0.00    +0.000 C 
BRANCH  10  11
ATOM     11  C   UNL     1       8.247   9.568  17.917  0.00  0.00    +0.000 C 
ATOM     12  C   UNL     1       9.366  10.231  18.247  0.00  0.00    +0.000 C 
BRANCH  12  13
ATOM     13  C   UNL     1       9.499  11.697  18.198  0.00  0.00    +0.000 A 
ATOM     14  C   UNL     1      10.725  12.361  18.356  0.00  0.00    +0.000 A 
ATOM     15  C   UNL     1      10.794  13.757  18.298  0.00  0.00    +0.000 A 
ATOM     16  C   UNL     1       9.642  14.504  18.067  0.00  0.00    +0.000 A 
ATOM     17  C   UNL     1       8.425  13.851  17.887  0.00  0.00    +0.000 A 
ATOM     18 CL   UNL     1       6.999  14.768  17.591  0.00  0.00    +0.000 Cl
ATOM     19  C   UNL     1       8.350  12.459  17.946  0.00  0.00    +0.000 A 
ENDBRANCH  12  13
ENDBRANCH  10  11
ENDBRANCH   8  10
ENDBRANCH   1   8
BRANCH   3  20
ATOM     20  C   UNL     1       2.941   6.289  17.901  0.00  0.00    +0.000 C 
BRANCH  20  21
ATOM     21  C   UNL     1       1.938   5.150  17.682  0.00  0.00    +0.000 C 
BRANCH  21  22
ATOM     22  C   UNL     1       1.845   4.227  18.874  0.00  0.00    +0.000 A 
ATOM     23  C   UNL     1       1.917   4.747  20.174  0.00  0.00    +0.000 A 
ATOM     24  C   UNL     1       1.823   3.904  21.282  0.00  0.00    +0.000 A 
ATOM     25  C   UNL     1       1.663   2.531  21.101  0.00  0.00    +0.000 A 
ATOM     26  C   UNL     1       1.601   2.002  19.813  0.00  0.00    +0.000 A 
ATOM     27  C   UNL     1       1.694   2.844  18.703  0.00  0.00    +0.000 A 
ENDBRANCH  21  22
ENDBRANCH  20  21
ENDBRANCH   3  20
TORSDOF 7
ENDMDL
MODEL 9
REMARK VINA RESULT:      -8.6      0.978      1.371
REMARK  Name = 
REMARK  7 active torsions:
REMARK  status: ('A' for Active; 'I' for Inactive)
REMARK    1  A    between atoms: C_2  and  C_3
REMARK    2  A    between atoms: C_2  and  O_12
REMARK    3  A    between atoms: C_4  and  C_5
REMARK    4  A    between atoms: O_12  and  C_13
REMARK    5  A    between atoms: C_15  and  C_16
REMARK    6  A    between atoms: C_16  and  C_17
REMARK    7  A    between atoms: C_17  and  C_18
REMARK                            x       y       z     vdW  Elec       q    Type
REMARK                         _______ _______ _______ _____ _____    ______ ____
ROOT
ATOM      1  C   UNL     1       5.772   4.980  17.992  0.00  0.00    +0.000 A 
ATOM      2  C   UNL     1       6.595   5.962  18.653  0.00  0.00    +0.000 A 
ATOM      3  C   UNL     1       7.479   6.684  17.950  0.00  0.00    +0.000 A 
ATOM      4  O   UNL     1       7.624   6.474  16.551  0.00  0.00    +0.000 OA
ATOM      5  C   UNL     1       6.869   5.552  15.884  0.00  0.00    +0.000 A 
ATOM      6  O   UNL     1       6.989   5.353  14.681  0.00  0.00    +0.000 OA
ATOM      7  C   UNL     1       5.888   4.788  16.672  0.00  0.00    +0.000 A 
ENDROOT
BRANCH   1   8
ATOM      8  O   UNL     1       4.886   4.316  18.874  0.00  0.00    +0.000 OA
BRANCH   8  10
ATOM      9  O   UNL     1       2.834   3.535  18.121  0.00  0.00    +0.000 OA
ATOM     10  C   UNL     1       3.530   4.325  18.739  0.00  0.00    +0.000 C 
BRANCH  10  11
ATOM     11  C   UNL     1       2.915   5.472  19.446  0.00  0.00    +0.000 C 
ATOM     12  C   UNL     1       2.539   6.625  18.870  0.00  0.00    +0.000 C 
BRANCH  12  13
ATOM     13  C   UNL     1       1.893   7.734  19.592  0.00  0.00    +0.000 A 
ATOM     14  C   UNL     1       1.597   7.687  20.962  0.00  0.00    +0.000 A 
ATOM     15  C   UNL     1       0.983   8.771  21.598  0.00  0.00    +0.000 A 
ATOM     16  C   UNL     1       0.671   9.920  20.875  0.00  0.00    +0.000 A 
ATOM     17  C   UNL     1       0.981   9.982  19.519  0.00  0.00    +0.000 A 
ATOM     18 CL   UNL     1       0.607  11.402  18.621  0.00  0.00    +0.000 Cl
ATOM     19  C   UNL     1       1.592   8.902  18.879  0.00  0.00    +0.000 A 
ENDBRANCH  12  13
ENDBRANCH  10  11
ENDBRANCH   8  10
ENDBRANCH   1   8
BRANCH   3  20
ATOM     20  C   UNL     1       8.403   7.752  18.486  0.00  0.00    +0.000 C 
BRANCH  20  21
ATOM     21  C   UNL     1       8.143   9.174  17.976  0.00  0.00    +0.000 C 
BRANCH  21  22
ATOM     22  C   UNL     1       9.095  10.185  18.572  0.00  0.00    +0.000 A 
ATOM     23  C   UNL     1       9.147  10.367  19.960  0.00  0.00    +0.000 A 
ATOM     24  C   UNL     1      10.029  11.292  20.521  0.00  0.00    +0.000 A 
ATOM     25  C   UNL     1      10.862  12.048  19.698  0.00  0.00    +0.000 A 
ATOM     26  C   UNL     1      10.810  11.883  18.315  0.00  0.00    +0.000 A 
ATOM     27  C   UNL     1       9.929  10.958  17.752  0.00  0.00    +0.000 A 
ENDBRANCH  21  22
ENDBRANCH  20  21
ENDBRANCH   3  20
TORSDOF 7
ENDMDL
