MODEL 1
REMARK VINA RESULT:      -9.7      0.000      0.000
REMARK  Name = 
REMARK  6 active torsions:
REMARK  status: ('A' for Active; 'I' for Inactive)
REMARK    1  A    between atoms: C_2  and  C_3
REMARK    2  A    between atoms: C_5  and  C_6
REMARK    3  A    between atoms: N_8  and  C_9
REMARK    4  A    between atoms: C_11  and  C_12
REMARK    5  A    between atoms: N_19  and  C_20
REMARK    6  A    between atoms: C_29  and  C_30
REMARK                            x       y       z     vdW  Elec       q    Type
REMARK                         _______ _______ _______ _____ _____    ______ ____
ROOT
ATOM      1  C   UNL     1       2.268   8.316  18.334  0.00  0.00    +0.000 C 
ATOM      2  O   UNL     1       2.294   8.469  17.125  0.00  0.00    +0.000 OA
ATOM      3  N   UNL     1       2.860   7.161  18.940  0.00  0.00    +0.000 N 
ATOM      4  H   UNL     1       2.616   6.898  19.888  0.00  0.00    +0.000 HD
ENDROOT
BRANCH   1   7
ATOM      5  C   UNL     1       0.252  11.287  19.501  0.00  0.00    +0.000 A 
ATOM      6  C   UNL     1       0.959  10.378  18.690  0.00  0.00    +0.000 A 
ATOM      7  C   UNL     1       1.488   9.202  19.225  0.00  0.00    +0.000 A 
ATOM      8  C   UNL     1       1.294   8.909  20.571  0.00  0.00    +0.000 A 
ATOM      9  C   UNL     1       0.575   9.806  21.376  0.00  0.00    +0.000 A 
ATOM     10  C   UNL     1       0.040  11.021  20.876  0.00  0.00    +0.000 A 
BRANCH  10  11
ATOM     11  C   UNL     1      -0.664  11.951  21.810  0.00  0.00    +0.000 A 
ATOM     12  C   UNL     1      -0.216  13.263  22.062  0.00  0.00    +0.000 A 
ATOM     13  C   UNL     1      -0.853  14.101  22.990  0.00  0.00    +0.000 A 
ATOM     14  C   UNL     1      -1.994  13.666  23.651  0.00  0.00    +0.000 A 
ATOM     15  C   UNL     1      -2.481  12.398  23.382  0.00  0.00    +0.000 A 
ATOM     16  F   UNL     1      -3.598  11.977  23.992  0.00  0.00    +0.000 F 
ATOM     17  C   UNL     1      -1.828  11.545  22.493  0.00  0.00    +0.000 A 
ENDBRANCH  10  11
BRANCH   5  19
ATOM     18  N   UNL     1      -0.547  13.486  18.379  0.00  0.00    +0.000 NA
ATOM     19  C   UNL     1      -0.197  12.486  18.850  0.00  0.00    +0.000 C 
ENDBRANCH   5  19
ENDBRANCH   1   7
BRANCH   3  20
ATOM     20  C   UNL     1       3.501   6.208  18.149  0.00  0.00    +0.000 A 
ATOM     21  C   UNL     1       4.171   6.447  16.974  0.00  0.00    +0.000 A 
ATOM     22  C   UNL     1       4.751   5.201  16.612  0.00  0.00    +0.000 A 
ATOM     23  N   UNL     1       4.462   4.264  17.524  0.00  0.00    +0.000 NA
ATOM     24  N   UNL     1       3.625   4.848  18.404  0.00  0.00    +0.000 N 
BRANCH  24  25
ATOM     25  C   UNL     1       2.874   4.094  19.351  0.00  0.00    +0.000 A 
ATOM     26  C   UNL     1       2.764   4.590  20.670  0.00  0.00    +0.000 A 
ATOM     27  C   UNL     1       2.044   3.896  21.643  0.00  0.00    +0.000 A 
ATOM     28  C   UNL     1       1.406   2.708  21.311  0.00  0.00    +0.000 A 
ATOM     29  C   UNL     1       1.482   2.220  20.006  0.00  0.00    +0.000 A 
ATOM     30  C   UNL     1       2.208   2.904  19.019  0.00  0.00    +0.000 A 
ATOM     31 CL   UNL     1       2.296   2.126  17.478  0.00  0.00    +0.000 Cl
ENDBRANCH  24  25
BRANCH  22  32
ATOM     32  C   UNL     1       5.584   4.910  15.444  0.00  0.00    +0.000 A 
ATOM     33  C   UNL     1       5.106   4.095  14.411  0.00  0.00    +0.000 A 
ATOM     34  C   UNL     1       5.899   3.811  13.296  0.00  0.00    +0.000 A 
ATOM     35  C   UNL     1       7.182   4.345  13.199  0.00  0.00    +0.000 A 
ATOM     36  C   UNL     1       7.671   5.165  14.212  0.00  0.00    +0.000 A 
ATOM     37  C   UNL     1       6.878   5.447  15.329  0.00  0.00    +0.000 A 
ENDBRANCH  22  32
ENDBRANCH   3  20
TORSDOF 6
ENDMDL
MODEL 2
REMARK VINA RESULT:      -9.7      4.361     10.708
REMARK  Name = 
REMARK  6 active torsions:
REMARK  status: ('A' for Active; 'I' for Inactive)
REMARK    1  A    between atoms: C_2  and  C_3
REMARK    2  A    between atoms: C_5  and  C_6
REMARK    3  A    between atoms: N_8  and  C_9
REMARK    4  A    between atoms: C_11  and  C_12
REMARK    5  A    between atoms: N_19  and  C_20
REMARK    6  A    between atoms: C_29  and  C_30
REMARK                            x       y       z     vdW  Elec       q    Type
REMARK                         _______ _______ _______ _____ _____    ______ ____
ROOT
ATOM      1  C   UNL     1       0.639   9.464  19.184  0.00  0.00    +0.000 C 
ATOM      2  O   UNL     1       0.207   9.428  20.323  0.00  0.00    +0.000 OA
ATOM      3  N   UNL     1       0.004  10.269  18.185  0.00  0.00    +0.000 N 
ATOM      4  H   UNL     1       0.187  10.103  17.201  0.00  0.00    +0.000 HD
ENDROOT
BRANCH   1   7
ATOM      5  C   UNL     1       2.938   6.474  19.022  0.00  0.00    +0.000 A 
ATOM      6  C   UNL     1       1.895   7.348  19.384  0.00  0.00    +0.000 A 
ATOM      7  C   UNL     1       1.717   8.565  18.720  0.00  0.00    +0.000 A 
ATOM      8  C   UNL     1       2.564   8.907  17.671  0.00  0.00    +0.000 A 
ATOM      9  C   UNL     1       3.592   8.028  17.299  0.00  0.00    +0.000 A 
ATOM     10  C   UNL     1       3.819   6.794  17.961  0.00  0.00    +0.000 A 
BRANCH  10  11
ATOM     11  C   UNL     1       4.971   5.939  17.543  0.00  0.00    +0.000 A 
ATOM     12  C   UNL     1       6.188   5.899  18.251  0.00  0.00    +0.000 A 
ATOM     13  C   UNL     1       7.282   5.139  17.809  0.00  0.00    +0.000 A 
ATOM     14  C   UNL     1       7.167   4.351  16.671  0.00  0.00    +0.000 A 
ATOM     15  C   UNL     1       5.964   4.336  15.986  0.00  0.00    +0.000 A 
ATOM     16  F   UNL     1       5.829   3.558  14.904  0.00  0.00    +0.000 F 
ATOM     17  C   UNL     1       4.887   5.122  16.397  0.00  0.00    +0.000 A 
ENDBRANCH  10  11
BRANCH   5  19
ATOM     18  N   UNL     1       3.083   4.306  20.441  0.00  0.00    +0.000 NA
ATOM     19  C   UNL     1       3.053   5.279  19.812  0.00  0.00    +0.000 C 
ENDBRANCH   5  19
ENDBRANCH   1   7
BRANCH   3  20
ATOM     20  C   UNL     1      -1.105  11.047  18.514  0.00  0.00    +0.000 A 
ATOM     21  C   UNL     1      -2.409  10.792  18.163  0.00  0.00    +0.000 A 
ATOM     22  C   UNL     1      -3.178  11.784  18.828  0.00  0.00    +0.000 A 
ATOM     23  N   UNL     1      -2.388  12.587  19.552  0.00  0.00    +0.000 NA
ATOM     24  N   UNL     1      -1.124  12.202  19.286  0.00  0.00    +0.000 N 
BRANCH  24  25
ATOM     25  C   UNL     1       0.002  12.999  19.641  0.00  0.00    +0.000 A 
ATOM     26  C   UNL     1       0.758  13.594  18.606  0.00  0.00    +0.000 A 
ATOM     27  C   UNL     1       1.873  14.383  18.890  0.00  0.00    +0.000 A 
ATOM     28  C   UNL     1       2.239  14.607  20.210  0.00  0.00    +0.000 A 
ATOM     29  C   UNL     1       1.487  14.050  21.244  0.00  0.00    +0.000 A 
ATOM     30  C   UNL     1       0.367  13.249  20.974  0.00  0.00    +0.000 A 
ATOM     31 CL   UNL     1      -0.404  12.545  22.352  0.00  0.00    +0.000 Cl
ENDBRANCH  24  25
BRANCH  22  32
ATOM     32  C   UNL     1      -4.632  11.953  18.800  0.00  0.00    +0.000 A 
ATOM     33  C   UNL     1      -5.337  11.876  17.593  0.00  0.00    +0.000 A 
ATOM     34  C   UNL     1      -6.725  12.041  17.561  0.00  0.00    +0.000 A 
ATOM     35  C   UNL     1      -7.425  12.281  18.741  0.00  0.00    +0.000 A 
ATOM     36  C   UNL     1      -6.742  12.352  19.951  0.00  0.00    +0.000 A 
ATOM     37  C   UNL     1      -5.354  12.189  19.983  0.00  0.00    +0.000 A 
ENDBRANCH  22  32
ENDBRANCH   3  20
TORSDOF 6
ENDMDL
MODEL 3
REMARK VINA RESULT:      -9.6      1.465      1.969
REMARK  Name = 
REMARK  6 active torsions:
REMARK  status: ('A' for Active; 'I' for Inactive)
REMARK    1  A    between atoms: C_2  and  C_3
REMARK    2  A    between atoms: C_5  and  C_6
REMARK    3  A    between atoms: N_8  and  C_9
REMARK    4  A    between atoms: C_11  and  C_12
REMARK    5  A    between atoms: N_19  and  C_20
REMARK    6  A    between atoms: C_29  and  C_30
REMARK                            x       y       z     vdW  Elec       q    Type
REMARK                         _______ _______ _______ _____ _____    ______ ____
ROOT
ATOM      1  C   UNL     1       2.111   8.607  18.319  0.00  0.00    +0.000 C 
ATOM      2  O   UNL     1       2.268   8.764  17.120  0.00  0.00    +0.000 OA
ATOM      3  N   UNL     1       2.601   7.431  18.973  0.00  0.00    +0.000 N 
ATOM      4  H   UNL     1       2.252   7.171  19.889  0.00  0.00    +0.000 HD
ENDROOT
BRANCH   1   7
ATOM      5  C   UNL     1       0.365  10.081  21.324  0.00  0.00    +0.000 A 
ATOM      6  C   UNL     1       1.191   9.285  20.507  0.00  0.00    +0.000 A 
ATOM      7  C   UNL     1       1.270   9.512  19.131  0.00  0.00    +0.000 A 
ATOM      8  C   UNL     1       0.544  10.554  18.561  0.00  0.00    +0.000 A 
ATOM      9  C   UNL     1      -0.265  11.358  19.378  0.00  0.00    +0.000 A 
ATOM     10  C   UNL     1      -0.389  11.147  20.775  0.00  0.00    +0.000 A 
BRANCH  10  11
ATOM     11  C   UNL     1      -1.317  12.011  21.567  0.00  0.00    +0.000 A 
ATOM     12  C   UNL     1      -2.697  12.097  21.296  0.00  0.00    +0.000 A 
ATOM     13  C   UNL     1      -3.542  12.961  22.009  0.00  0.00    +0.000 A 
ATOM     14  C   UNL     1      -3.036  13.723  23.055  0.00  0.00    +0.000 A 
ATOM     15  C   UNL     1      -1.692  13.617  23.371  0.00  0.00    +0.000 A 
ATOM     16  F   UNL     1      -1.197  14.324  24.396  0.00  0.00    +0.000 F 
ATOM     17  C   UNL     1      -0.839  12.792  22.639  0.00  0.00    +0.000 A 
ENDBRANCH  10  11
BRANCH   5  19
ATOM     18  N   UNL     1       0.287   9.487  23.849  0.00  0.00    +0.000 NA
ATOM     19  C   UNL     1       0.324   9.717  22.713  0.00  0.00    +0.000 C 
ENDBRANCH   5  19
ENDBRANCH   1   7
BRANCH   3  20
ATOM     20  C   UNL     1       3.292   6.462  18.246  0.00  0.00    +0.000 A 
ATOM     21  C   UNL     1       4.024   6.674  17.104  0.00  0.00    +0.000 A 
ATOM     22  C   UNL     1       4.633   5.425  16.810  0.00  0.00    +0.000 A 
ATOM     23  N   UNL     1       4.300   4.511  17.730  0.00  0.00    +0.000 NA
ATOM     24  N   UNL     1       3.411   5.111  18.546  0.00  0.00    +0.000 N 
BRANCH  24  25
ATOM     25  C   UNL     1       2.615   4.377  19.470  0.00  0.00    +0.000 A 
ATOM     26  C   UNL     1       3.057   4.277  20.809  0.00  0.00    +0.000 A 
ATOM     27  C   UNL     1       2.322   3.569  21.761  0.00  0.00    +0.000 A 
ATOM     28  C   UNL     1       1.124   2.968  21.397  0.00  0.00    +0.000 A 
ATOM     29  C   UNL     1       0.660   3.081  20.086  0.00  0.00    +0.000 A 
ATOM     30  C   UNL     1       1.392   3.784  19.117  0.00  0.00    +0.000 A 
ATOM     31 CL   UNL     1       0.742   3.752  17.516  0.00  0.00    +0.000 Cl
ENDBRANCH  24  25
BRANCH  22  32
ATOM     32  C   UNL     1       5.531   5.109  15.698  0.00  0.00    +0.000 A 
ATOM     33  C   UNL     1       5.086   4.337  14.618  0.00  0.00    +0.000 A 
ATOM     34  C   UNL     1       5.942   4.029  13.556  0.00  0.00    +0.000 A 
ATOM     35  C   UNL     1       7.254   4.496  13.561  0.00  0.00    +0.000 A 
ATOM     36  C   UNL     1       7.711   5.273  14.621  0.00  0.00    +0.000 A 
ATOM     37  C   UNL     1       6.856   5.578  15.685  0.00  0.00    +0.000 A 
ENDBRANCH  22  32
ENDBRANCH   3  20
TORSDOF 6
ENDMDL
MODEL 4
REMARK VINA RESULT:      -9.6      4.293     10.719
REMARK  Name = 
REMARK  6 active torsions:
REMARK  status: ('A' for Active; 'I' for Inactive)
REMARK    1  A    between atoms: C_2  and  C_3
REMARK    2  A    between atoms: C_5  and  C_6
REMARK    3  A    between atoms: N_8  and  C_9
REMARK    4  A    between atoms: C_11  and  C_12
REMARK    5  A    between atoms: N_19  and  C_20
REMARK    6  A    between atoms: C_29  and  C_30
REMARK                            x       y       z     vdW  Elec       q    Type
REMARK                         _______ _______ _______ _____ _____    ______ ____
ROOT
ATOM      1  C   UNL     1       0.572   9.503  19.218  0.00  0.00    +0.000 C 
ATOM      2  O   UNL     1       0.144   9.460  20.359  0.00  0.00    +0.000 OA
ATOM      3  N   UNL     1      -0.065  10.318  18.228  0.00  0.00    +0.000 N 
ATOM      4  H   UNL     1       0.113  10.160  17.242  0.00  0.00    +0.000 HD
ENDROOT
BRANCH   1   7
ATOM      5  C   UNL     1       2.876   6.518  19.037  0.00  0.00    +0.000 A 
ATOM      6  C   UNL     1       1.836   7.392  19.411  0.00  0.00    +0.000 A 
ATOM      7  C   UNL     1       1.644   8.603  18.742  0.00  0.00    +0.000 A 
ATOM      8  C   UNL     1       2.472   8.941  17.676  0.00  0.00    +0.000 A 
ATOM      9  C   UNL     1       3.496   8.061  17.292  0.00  0.00    +0.000 A 
ATOM     10  C   UNL     1       3.738   6.833  17.959  0.00  0.00    +0.000 A 
BRANCH  10  11
ATOM     11  C   UNL     1       4.885   5.978  17.527  0.00  0.00    +0.000 A 
ATOM     12  C   UNL     1       4.848   5.181  16.366  0.00  0.00    +0.000 A 
ATOM     13  C   UNL     1       5.909   4.335  16.010  0.00  0.00    +0.000 A 
ATOM     14  C   UNL     1       7.066   4.309  16.779  0.00  0.00    +0.000 A 
ATOM     15  C   UNL     1       7.144   5.121  17.897  0.00  0.00    +0.000 A 
ATOM     16  F   UNL     1       8.265   5.128  18.632  0.00  0.00    +0.000 F 
ATOM     17  C   UNL     1       6.076   5.932  18.280  0.00  0.00    +0.000 A 
ENDBRANCH  10  11
BRANCH   5  19
ATOM     18  N   UNL     1       3.087   4.337  20.428  0.00  0.00    +0.000 NA
ATOM     19  C   UNL     1       3.008   5.329  19.833  0.00  0.00    +0.000 C 
ENDBRANCH   5  19
ENDBRANCH   1   7
BRANCH   3  20
ATOM     20  C   UNL     1      -1.170  11.098  18.569  0.00  0.00    +0.000 A 
ATOM     21  C   UNL     1      -2.478  10.840  18.239  0.00  0.00    +0.000 A 
ATOM     22  C   UNL     1      -3.238  11.836  18.908  0.00  0.00    +0.000 A 
ATOM     23  N   UNL     1      -2.437  12.644  19.615  0.00  0.00    +0.000 NA
ATOM     24  N   UNL     1      -1.177  12.258  19.334  0.00  0.00    +0.000 N 
BRANCH  24  25
ATOM     25  C   UNL     1      -0.047  13.057  19.668  0.00  0.00    +0.000 A 
ATOM     26  C   UNL     1       0.704  13.632  18.617  0.00  0.00    +0.000 A 
ATOM     27  C   UNL     1       1.823  14.423  18.879  0.00  0.00    +0.000 A 
ATOM     28  C   UNL     1       2.199  14.669  20.194  0.00  0.00    +0.000 A 
ATOM     29  C   UNL     1       1.451  14.131  21.242  0.00  0.00    +0.000 A 
ATOM     30  C   UNL     1       0.327  13.329  20.993  0.00  0.00    +0.000 A 
ATOM     31 CL   UNL     1      -0.436  12.652  22.388  0.00  0.00    +0.000 Cl
ENDBRANCH  24  25
BRANCH  22  32
ATOM     32  C   UNL     1      -4.692  12.004  18.900  0.00  0.00    +0.000 A 
ATOM     33  C   UNL     1      -5.427  11.813  17.724  0.00  0.00    +0.000 A 
ATOM     34  C   UNL     1      -6.815  11.976  17.711  0.00  0.00    +0.000 A 
ATOM     35  C   UNL     1      -7.486  12.330  18.880  0.00  0.00    +0.000 A 
ATOM     36  C   UNL     1      -6.773  12.516  20.060  0.00  0.00    +0.000 A 
ATOM     37  C   UNL     1      -5.384  12.355  20.073  0.00  0.00    +0.000 A 
ENDBRANCH  22  32
ENDBRANCH   3  20
TORSDOF 6
ENDMDL
MODEL 5
REMARK VINA RESULT:      -9.6      4.007     10.964
REMARK  Name = 
REMARK  6 active torsions:
REMARK  status: ('A' for Active; 'I' for Inactive)
REMARK    1  A    between atoms: C_2  and  C_3
REMARK    2  A    between atoms: C_5  and  C_6
REMARK    3  A    between atoms: N_8  and  C_9
REMARK    4  A    between atoms: C_11  and  C_12
REMARK    5  A    between atoms: N_19  and  C_20
REMARK    6  A    between atoms: C_29  and  C_30
REMARK                            x       y       z     vdW  Elec       q    Type
REMARK                         _______ _______ _______ _____ _____    ______ ____
ROOT
ATOM      1  C   UNL     1       0.702  10.493  19.447  0.00  0.00    +0.000 C 
ATOM      2  O   UNL     1       1.188  11.611  19.472  0.00  0.00    +0.000 OA
ATOM      3  N   UNL     1      -0.589  10.243  20.012  0.00  0.00    +0.000 N 
ATOM      4  H   UNL     1      -0.879   9.297  20.231  0.00  0.00    +0.000 HD
ENDROOT
BRANCH   1   7
ATOM      5  C   UNL     1       2.222   7.038  19.471  0.00  0.00    +0.000 A 
ATOM      6  C   UNL     1       1.469   8.177  19.817  0.00  0.00    +0.000 A 
ATOM      7  C   UNL     1       1.468   9.310  19.001  0.00  0.00    +0.000 A 
ATOM      8  C   UNL     1       2.198   9.307  17.817  0.00  0.00    +0.000 A 
ATOM      9  C   UNL     1       2.934   8.166  17.463  0.00  0.00    +0.000 A 
ATOM     10  C   UNL     1       2.979   7.003  18.275  0.00  0.00    +0.000 A 
BRANCH  10  11
ATOM     11  C   UNL     1       3.833   5.850  17.857  0.00  0.00    +0.000 A 
ATOM     12  C   UNL     1       3.297   4.624  17.415  0.00  0.00    +0.000 A 
ATOM     13  C   UNL     1       4.112   3.531  17.088  0.00  0.00    +0.000 A 
ATOM     14  C   UNL     1       5.495   3.654  17.140  0.00  0.00    +0.000 A 
ATOM     15  C   UNL     1       6.045   4.864  17.524  0.00  0.00    +0.000 A 
ATOM     16  F   UNL     1       7.377   5.006  17.551  0.00  0.00    +0.000 F 
ATOM     17  C   UNL     1       5.239   5.942  17.892  0.00  0.00    +0.000 A 
ENDBRANCH  10  11
BRANCH   5  19
ATOM     18  N   UNL     1       2.127   5.048  21.135  0.00  0.00    +0.000 NA
ATOM     19  C   UNL     1       2.188   5.956  20.416  0.00  0.00    +0.000 C 
ENDBRANCH   5  19
ENDBRANCH   1   7
BRANCH   3  20
ATOM     20  C   UNL     1      -1.321  11.289  20.575  0.00  0.00    +0.000 A 
ATOM     21  C   UNL     1      -1.195  11.771  21.855  0.00  0.00    +0.000 A 
ATOM     22  C   UNL     1      -2.052  12.902  21.917  0.00  0.00    +0.000 A 
ATOM     23  N   UNL     1      -2.652  13.104  20.737  0.00  0.00    +0.000 NA
ATOM     24  N   UNL     1      -2.286  12.072  19.952  0.00  0.00    +0.000 N 
BRANCH  24  25
ATOM     25  C   UNL     1      -2.946  11.781  18.725  0.00  0.00    +0.000 A 
ATOM     26  C   UNL     1      -2.156  11.533  17.579  0.00  0.00    +0.000 A 
ATOM     27  C   UNL     1      -2.744  11.245  16.346  0.00  0.00    +0.000 A 
ATOM     28  C   UNL     1      -4.127  11.180  16.242  0.00  0.00    +0.000 A 
ATOM     29  C   UNL     1      -4.920  11.395  17.371  0.00  0.00    +0.000 A 
ATOM     30  C   UNL     1      -4.343  11.691  18.614  0.00  0.00    +0.000 A 
ATOM     31 CL   UNL     1      -5.453  12.032  19.895  0.00  0.00    +0.000 Cl
ENDBRANCH  24  25
BRANCH  22  32
ATOM     32  C   UNL     1      -2.277  13.790  23.060  0.00  0.00    +0.000 A 
ATOM     33  C   UNL     1      -1.197  14.318  23.777  0.00  0.00    +0.000 A 
ATOM     34  C   UNL     1      -1.407  15.162  24.871  0.00  0.00    +0.000 A 
ATOM     35  C   UNL     1      -2.705  15.492  25.257  0.00  0.00    +0.000 A 
ATOM     36  C   UNL     1      -3.790  14.984  24.550  0.00  0.00    +0.000 A 
ATOM     37  C   UNL     1      -3.580  14.137  23.457  0.00  0.00    +0.000 A 
ENDBRANCH  22  32
ENDBRANCH   3  20
TORSDOF 6
ENDMDL
MODEL 6
REMARK VINA RESULT:      -9.6      1.444      2.024
REMARK  Name = 
REMARK  6 active torsions:
REMARK  status: ('A' for Active; 'I' for Inactive)
REMARK    1  A    between atoms: C_2  and  C_3
REMARK    2  A    between atoms: C_5  and  C_6
REMARK    3  A    between atoms: N_8  and  C_9
REMARK    4  A    between atoms: C_11  and  C_12
REMARK    5  A    between atoms: N_19  and  C_20
REMARK    6  A    between atoms: C_29  and  C_30
REMARK                            x       y       z     vdW  Elec       q    Type
REMARK                         _______ _______ _______ _____ _____    ______ ____
ROOT
ATOM      1  C   UNL     1       2.076   8.621  18.340  0.00  0.00    +0.000 C 
ATOM      2  O   UNL     1       2.215   8.771  17.138  0.00  0.00    +0.000 OA
ATOM      3  N   UNL     1       2.593   7.460  18.998  0.00  0.00    +0.000 N 
ATOM      4  H   UNL     1       2.260   7.203  19.921  0.00  0.00    +0.000 HD
ENDROOT
BRANCH   1   7
ATOM      5  C   UNL     1       0.342  10.094  21.352  0.00  0.00    +0.000 A 
ATOM      6  C   UNL     1       1.171   9.304  20.532  0.00  0.00    +0.000 A 
ATOM      7  C   UNL     1       1.230   9.520  19.154  0.00  0.00    +0.000 A 
ATOM      8  C   UNL     1       0.481  10.545  18.584  0.00  0.00    +0.000 A 
ATOM      9  C   UNL     1      -0.331  11.343  19.404  0.00  0.00    +0.000 A 
ATOM     10  C   UNL     1      -0.436  11.143  20.804  0.00  0.00    +0.000 A 
BRANCH  10  11
ATOM     11  C   UNL     1      -1.367  11.998  21.600  0.00  0.00    +0.000 A 
ATOM     12  C   UNL     1      -0.949  12.746  22.719  0.00  0.00    +0.000 A 
ATOM     13  C   UNL     1      -1.849  13.494  23.493  0.00  0.00    +0.000 A 
ATOM     14  C   UNL     1      -3.189  13.559  23.132  0.00  0.00    +0.000 A 
ATOM     15  C   UNL     1      -3.614  12.872  22.007  0.00  0.00    +0.000 A 
ATOM     16  F   UNL     1      -4.897  12.950  21.631  0.00  0.00    +0.000 F 
ATOM     17  C   UNL     1      -2.731  12.093  21.258  0.00  0.00    +0.000 A 
ENDBRANCH  10  11
BRANCH   5  19
ATOM     18  N   UNL     1       0.293   9.519  23.883  0.00  0.00    +0.000 NA
ATOM     19  C   UNL     1       0.325   9.742  22.745  0.00  0.00    +0.000 C 
ENDBRANCH   5  19
ENDBRANCH   1   7
BRANCH   3  20
ATOM     20  C   UNL     1       3.291   6.496  18.271  0.00  0.00    +0.000 A 
ATOM     21  C   UNL     1       4.028   6.714  17.133  0.00  0.00    +0.000 A 
ATOM     22  C   UNL     1       4.642   5.468  16.838  0.00  0.00    +0.000 A 
ATOM     23  N   UNL     1       4.307   4.549  17.753  0.00  0.00    +0.000 NA
ATOM     24  N   UNL     1       3.413   5.144  18.567  0.00  0.00    +0.000 N 
BRANCH  24  25
ATOM     25  C   UNL     1       2.613   4.404  19.484  0.00  0.00    +0.000 A 
ATOM     26  C   UNL     1       3.049   4.300  20.824  0.00  0.00    +0.000 A 
ATOM     27  C   UNL     1       2.311   3.587  21.770  0.00  0.00    +0.000 A 
ATOM     28  C   UNL     1       1.117   2.983  21.397  0.00  0.00    +0.000 A 
ATOM     29  C   UNL     1       0.659   3.100  20.084  0.00  0.00    +0.000 A 
ATOM     30  C   UNL     1       1.394   3.809  19.122  0.00  0.00    +0.000 A 
ATOM     31 CL   UNL     1       0.753   3.780  17.517  0.00  0.00    +0.000 Cl
ENDBRANCH  24  25
BRANCH  22  32
ATOM     32  C   UNL     1       5.547   5.159  15.729  0.00  0.00    +0.000 A 
ATOM     33  C   UNL     1       6.860   5.645  15.723  0.00  0.00    +0.000 A 
ATOM     34  C   UNL     1       7.727   5.356  14.665  0.00  0.00    +0.000 A 
ATOM     35  C   UNL     1       7.289   4.571  13.601  0.00  0.00    +0.000 A 
ATOM     36  C   UNL     1       5.990   4.071  13.595  0.00  0.00    +0.000 A 
ATOM     37  C   UNL     1       5.123   4.362  14.652  0.00  0.00    +0.000 A 
ENDBRANCH  22  32
ENDBRANCH   3  20
TORSDOF 6
ENDMDL
MODEL 7
REMARK VINA RESULT:      -9.6      3.928     10.764
REMARK  Name = 
REMARK  6 active torsions:
REMARK  status: ('A' for Active; 'I' for Inactive)
REMARK    1  A    between atoms: C_2  and  C_3
REMARK    2  A    between atoms: C_5  and  C_6
REMARK    3  A    between atoms: N_8  and  C_9
REMARK    4  A    between atoms: C_11  and  C_12
REMARK    5  A    between atoms: N_19  and  C_20
REMARK    6  A    between atoms: C_29  and  C_30
REMARK                            x       y       z     vdW  Elec       q    Type
REMARK                         _______ _______ _______ _____ _____    ______ ____
ROOT
ATOM      1  C   UNL     1       0.860   8.916  20.126  0.00  0.00    +0.000 C 
ATOM      2  O   UNL     1       0.173   8.405  20.994  0.00  0.00    +0.000 OA
ATOM      3  N   UNL     1       0.624  10.264  19.705  0.00  0.00    +0.000 N 
ATOM      4  H   UNL     1       1.002  10.600  18.826  0.00  0.00    +0.000 HD
ENDROOT
BRANCH   1   7
ATOM      5  C   UNL     1       3.141   6.089  19.098  0.00  0.00    +0.000 A 
ATOM      6  C   UNL     1       2.170   6.854  19.773  0.00  0.00    +0.000 A 
ATOM      7  C   UNL     1       1.846   8.143  19.342  0.00  0.00    +0.000 A 
ATOM      8  C   UNL     1       2.471   8.670  18.217  0.00  0.00    +0.000 A 
ATOM      9  C   UNL     1       3.425   7.901  17.534  0.00  0.00    +0.000 A 
ATOM     10  C   UNL     1       3.798   6.597  17.951  0.00  0.00    +0.000 A 
BRANCH  10  11
ATOM     11  C   UNL     1       4.865   5.865  17.204  0.00  0.00    +0.000 A 
ATOM     12  C   UNL     1       4.759   5.551  15.835  0.00  0.00    +0.000 A 
ATOM     13  C   UNL     1       5.742   4.807  15.164  0.00  0.00    +0.000 A 
ATOM     14  C   UNL     1       6.889   4.405  15.836  0.00  0.00    +0.000 A 
ATOM     15  C   UNL     1       7.037   4.745  17.170  0.00  0.00    +0.000 A 
ATOM     16  F   UNL     1       8.152   4.388  17.822  0.00  0.00    +0.000 F 
ATOM     17  C   UNL     1       6.044   5.447  17.853  0.00  0.00    +0.000 A 
ENDBRANCH  10  11
BRANCH   5  19
ATOM     18  N   UNL     1       3.698   3.751  20.077  0.00  0.00    +0.000 NA
ATOM     19  C   UNL     1       3.427   4.801  19.667  0.00  0.00    +0.000 C 
ENDBRANCH   5  19
ENDBRANCH   1   7
BRANCH   3  20
ATOM     20  C   UNL     1      -0.381  11.020  20.308  0.00  0.00    +0.000 A 
ATOM     21  C   UNL     1      -0.365  11.519  21.587  0.00  0.00    +0.000 A 
ATOM     22  C   UNL     1      -1.537  12.314  21.696  0.00  0.00    +0.000 A 
ATOM     23  N   UNL     1      -2.218  12.309  20.542  0.00  0.00    +0.000 NA
ATOM     24  N   UNL     1      -1.571  11.449  19.732  0.00  0.00    +0.000 N 
BRANCH  24  25
ATOM     25  C   UNL     1      -2.152  10.958  18.528  0.00  0.00    +0.000 A 
ATOM     26  C   UNL     1      -1.364  10.142  17.685  0.00  0.00    +0.000 A 
ATOM     27  C   UNL     1      -1.875   9.633  16.491  0.00  0.00    +0.000 A 
ATOM     28  C   UNL     1      -3.186   9.914  16.128  0.00  0.00    +0.000 A 
ATOM     29  C   UNL     1      -3.985  10.696  16.963  0.00  0.00    +0.000 A 
ATOM     30  C   UNL     1      -3.482  11.219  18.164  0.00  0.00    +0.000 A 
ATOM     31 CL   UNL     1      -4.557  12.251  19.041  0.00  0.00    +0.000 Cl
ENDBRANCH  24  25
BRANCH  22  32
ATOM     32  C   UNL     1      -1.990  13.084  22.856  0.00  0.00    +0.000 A 
ATOM     33  C   UNL     1      -3.251  12.853  23.418  0.00  0.00    +0.000 A 
ATOM     34  C   UNL     1      -3.689  13.588  24.524  0.00  0.00    +0.000 A 
ATOM     35  C   UNL     1      -2.865  14.563  25.082  0.00  0.00    +0.000 A 
ATOM     36  C   UNL     1      -1.605  14.799  24.542  0.00  0.00    +0.000 A 
ATOM     37  C   UNL     1      -1.167  14.066  23.436  0.00  0.00    +0.000 A 
ENDBRANCH  22  32
ENDBRANCH   3  20
TORSDOF 6
ENDMDL
MODEL 8
REMARK VINA RESULT:      -9.5      0.791      1.122
REMARK  Name = 
REMARK  6 active torsions:
REMARK  status: ('A' for Active; 'I' for Inactive)
REMARK    1  A    between atoms: C_2  and  C_3
REMARK    2  A    between atoms: C_5  and  C_6
REMARK    3  A    between atoms: N_8  and  C_9
REMARK    4  A    between atoms: C_11  and  C_12
REMARK    5  A    between atoms: N_19  and  C_20
REMARK    6  A    between atoms: C_29  and  C_30
REMARK                            x       y       z     vdW  Elec       q    Type
REMARK                         _______ _______ _______ _____ _____    ______ ____
ROOT
ATOM      1  C   UNL     1       2.263   8.293  18.348  0.00  0.00    +0.000 C 
ATOM      2  O   UNL     1       2.288   8.444  17.139  0.00  0.00    +0.000 OA
ATOM      3  N   UNL     1       2.861   7.142  18.955  0.00  0.00    +0.000 N 
ATOM      4  H   UNL     1       2.620   6.879  19.904  0.00  0.00    +0.000 HD
ENDROOT
BRANCH   1   7
ATOM      5  C   UNL     1       0.229  11.253  19.511  0.00  0.00    +0.000 A 
ATOM      6  C   UNL     1       0.940  10.346  18.700  0.00  0.00    +0.000 A 
ATOM      7  C   UNL     1       1.479   9.175  19.238  0.00  0.00    +0.000 A 
ATOM      8  C   UNL     1       1.289   8.885  20.585  0.00  0.00    +0.000 A 
ATOM      9  C   UNL     1       0.565   9.779  21.388  0.00  0.00    +0.000 A 
ATOM     10  C   UNL     1       0.021  10.989  20.886  0.00  0.00    +0.000 A 
BRANCH  10  11
ATOM     11  C   UNL     1      -0.688  11.917  21.819  0.00  0.00    +0.000 A 
ATOM     12  C   UNL     1      -1.911  11.589  22.438  0.00  0.00    +0.000 A 
ATOM     13  C   UNL     1      -2.594  12.497  23.261  0.00  0.00    +0.000 A 
ATOM     14  C   UNL     1      -2.042  13.742  23.533  0.00  0.00    +0.000 A 
ATOM     15  C   UNL     1      -0.817  14.067  22.975  0.00  0.00    +0.000 A 
ATOM     16  F   UNL     1      -0.258  15.253  23.252  0.00  0.00    +0.000 F 
ATOM     17  C   UNL     1      -0.153  13.185  22.122  0.00  0.00    +0.000 A 
ENDBRANCH  10  11
BRANCH   5  19
ATOM     18  N   UNL     1      -0.577  13.445  18.380  0.00  0.00    +0.000 NA
ATOM     19  C   UNL     1      -0.230  12.447  18.857  0.00  0.00    +0.000 C 
ENDBRANCH   5  19
ENDBRANCH   1   7
BRANCH   3  20
ATOM     20  C   UNL     1       3.508   6.191  18.165  0.00  0.00    +0.000 A 
ATOM     21  C   UNL     1       4.184   6.433  16.994  0.00  0.00    +0.000 A 
ATOM     22  C   UNL     1       4.767   5.189  16.633  0.00  0.00    +0.000 A 
ATOM     23  N   UNL     1       4.474   4.250  17.542  0.00  0.00    +0.000 NA
ATOM     24  N   UNL     1       3.632   4.831  18.418  0.00  0.00    +0.000 N 
BRANCH  24  25
ATOM     25  C   UNL     1       2.876   4.074  19.359  0.00  0.00    +0.000 A 
ATOM     26  C   UNL     1       2.763   4.565  20.680  0.00  0.00    +0.000 A 
ATOM     27  C   UNL     1       2.038   3.867  21.648  0.00  0.00    +0.000 A 
ATOM     28  C   UNL     1       1.399   2.682  21.308  0.00  0.00    +0.000 A 
ATOM     29  C   UNL     1       1.479   2.200  20.001  0.00  0.00    +0.000 A 
ATOM     30  C   UNL     1       2.209   2.887  19.019  0.00  0.00    +0.000 A 
ATOM     31 CL   UNL     1       2.300   2.115  17.475  0.00  0.00    +0.000 Cl
ENDBRANCH  24  25
BRANCH  22  32
ATOM     32  C   UNL     1       5.607   4.902  15.468  0.00  0.00    +0.000 A 
ATOM     33  C   UNL     1       5.135   4.087  14.432  0.00  0.00    +0.000 A 
ATOM     34  C   UNL     1       5.934   3.807  13.320  0.00  0.00    +0.000 A 
ATOM     35  C   UNL     1       7.216   4.343  13.231  0.00  0.00    +0.000 A 
ATOM     36  C   UNL     1       7.699   5.162  14.247  0.00  0.00    +0.000 A 
ATOM     37  C   UNL     1       6.900   5.441  15.361  0.00  0.00    +0.000 A 
ENDBRANCH  22  32
ENDBRANCH   3  20
TORSDOF 6
ENDMDL
MODEL 9
REMARK VINA RESULT:      -9.5      3.953     10.953
REMARK  Name = 
REMARK  6 active torsions:
REMARK  status: ('A' for Active; 'I' for Inactive)
REMARK    1  A    between atoms: C_2  and  C_3
REMARK    2  A    between atoms: C_5  and  C_6
REMARK    3  A    between atoms: N_8  and  C_9
REMARK    4  A    between atoms: C_11  and  C_12
REMARK    5  A    between atoms: N_19  and  C_20
REMARK    6  A    between atoms: C_29  and  C_30
REMARK                            x       y       z     vdW  Elec       q    Type
REMARK                         _______ _______ _______ _____ _____    ______ ____
ROOT
ATOM      1  C   UNL     1       0.394   9.368  20.415  0.00  0.00    +0.000 C 
ATOM      2  O   UNL     1      -0.325   8.924  21.294  0.00  0.00    +0.000 OA
ATOM      3  N   UNL     1       0.249  10.719  19.964  0.00  0.00    +0.000 N 
ATOM      4  H   UNL     1       0.647  11.009  19.077  0.00  0.00    +0.000 HD
ENDROOT
BRANCH   1   7
ATOM      5  C   UNL     1       2.558   6.413  19.504  0.00  0.00    +0.000 A 
ATOM      6  C   UNL     1       1.637   7.251  20.162  0.00  0.00    +0.000 A 
ATOM      7  C   UNL     1       1.325   8.513  19.649  0.00  0.00    +0.000 A 
ATOM      8  C   UNL     1       1.910   8.938  18.461  0.00  0.00    +0.000 A 
ATOM      9  C   UNL     1       2.814   8.095  17.797  0.00  0.00    +0.000 A 
ATOM     10  C   UNL     1       3.174   6.817  18.295  0.00  0.00    +0.000 A 
BRANCH  10  11
ATOM     11  C   UNL     1       4.188   6.002  17.559  0.00  0.00    +0.000 A 
ATOM     12  C   UNL     1       3.911   4.720  17.046  0.00  0.00    +0.000 A 
ATOM     13  C   UNL     1       4.893   3.943  16.414  0.00  0.00    +0.000 A 
ATOM     14  C   UNL     1       6.171   4.455  16.227  0.00  0.00    +0.000 A 
ATOM     15  C   UNL     1       6.453   5.733  16.679  0.00  0.00    +0.000 A 
ATOM     16  F   UNL     1       7.673   6.250  16.479  0.00  0.00    +0.000 F 
ATOM     17  C   UNL     1       5.492   6.493  17.346  0.00  0.00    +0.000 A 
ENDBRANCH  10  11
BRANCH   5  19
ATOM     18  N   UNL     1       3.071   4.127  20.622  0.00  0.00    +0.000 NA
ATOM     19  C   UNL     1       2.839   5.163  20.155  0.00  0.00    +0.000 C 
ENDBRANCH   5  19
ENDBRANCH   1   7
BRANCH   3  20
ATOM     20  C   UNL     1      -0.703  11.554  20.549  0.00  0.00    +0.000 A 
ATOM     21  C   UNL     1      -0.643  12.093  21.810  0.00  0.00    +0.000 A 
ATOM     22  C   UNL     1      -1.764  12.962  21.902  0.00  0.00    +0.000 A 
ATOM     23  N   UNL     1      -2.456  12.960  20.755  0.00  0.00    +0.000 NA
ATOM     24  N   UNL     1      -1.870  12.036  19.969  0.00  0.00    +0.000 N 
BRANCH  24  25
ATOM     25  C   UNL     1      -2.492  11.542  18.787  0.00  0.00    +0.000 A 
ATOM     26  C   UNL     1      -1.690  10.869  17.836  0.00  0.00    +0.000 A 
ATOM     27  C   UNL     1      -2.240  10.365  16.657  0.00  0.00    +0.000 A 
ATOM     28  C   UNL     1      -3.601  10.506  16.417  0.00  0.00    +0.000 A 
ATOM     29  C   UNL     1      -4.410  11.144  17.358  0.00  0.00    +0.000 A 
ATOM     30  C   UNL     1      -3.870  11.661  18.545  0.00  0.00    +0.000 A 
ATOM     31 CL   UNL     1      -4.976  12.512  19.565  0.00  0.00    +0.000 Cl
ENDBRANCH  24  25
BRANCH  22  32
ATOM     32  C   UNL     1      -2.158  13.796  23.039  0.00  0.00    +0.000 A 
ATOM     33  C   UNL     1      -1.189  14.418  23.836  0.00  0.00    +0.000 A 
ATOM     34  C   UNL     1      -1.560  15.212  24.926  0.00  0.00    +0.000 A 
ATOM     35  C   UNL     1      -2.907  15.395  25.227  0.00  0.00    +0.000 A 
ATOM     36  C   UNL     1      -3.884  14.792  24.440  0.00  0.00    +0.000 A 
ATOM     37  C   UNL     1      -3.513  13.996  23.352  0.00  0.00    +0.000 A 
ENDBRANCH  22  32
ENDBRANCH   3  20
TORSDOF 6
ENDMDL
