MODEL 1
REMARK VINA RESULT:      -7.5      0.000      0.000
REMARK  Name = 
REMARK  5 active torsions:
REMARK  status: ('A' for Active; 'I' for Inactive)
REMARK    1  A    between atoms: C_1  and  N_2
REMARK    2  A    between atoms: N_2  and  C_10
REMARK    3  A    between atoms: C_14  and  C_15
REMARK    4  A    between atoms: C_15  and  C_16
REMARK    5  A    between atoms: C_16  and  O_18
REMARK                            x       y       z     vdW  Elec       q    Type
REMARK                         _______ _______ _______ _____ _____    ______ ____
ROOT
ATOM      1  C   UNL     1       0.890   8.885  19.473  0.00  0.00    +0.000 C 
ATOM      2  C   UNL     1       1.108   8.580  20.965  0.00  0.00    +0.000 C 
ATOM      3  C   UNL     1       1.185   7.072  21.194  0.00  0.00    +0.000 C 
ATOM      4  C   UNL     1       2.106   6.398  20.225  0.00  0.00    +0.000 A 
ATOM      5  C   UNL     1       2.709   5.148  20.276  0.00  0.00    +0.000 A 
ATOM      6  C   UNL     1       3.481   5.011  19.072  0.00  0.00    +0.000 A 
ATOM      7  C   UNL     1       4.312   3.996  18.545  0.00  0.00    +0.000 A 
ATOM      8  C   UNL     1       4.974   4.198  17.326  0.00  0.00    +0.000 A 
ATOM      9  C   UNL     1       4.821   5.395  16.633  0.00  0.00    +0.000 A 
ATOM     10 CL   UNL     1       5.659   5.630  15.146  0.00  0.00    +0.000 Cl
ATOM     11  C   UNL     1       4.002   6.413  17.122  0.00  0.00    +0.000 A 
ATOM     12  C   UNL     1       3.336   6.195  18.341  0.00  0.00    +0.000 A 
ATOM     13  N   UNL     1       2.483   7.008  19.053  0.00  0.00    +0.000 N 
ATOM     14  C   UNL     1       2.092   8.360  18.667  0.00  0.00    +0.000 C 
ENDROOT
BRANCH   1  16
ATOM     15  C   UNL     1       1.716  11.297  19.355  0.00  0.00    +0.000 C 
ATOM     16  N   UNL     1       0.649  10.319  19.229  0.00  0.00    +0.000 N 
ATOM     17  C   UNL     1      -0.535  10.697  18.622  0.00  0.00    +0.000 A 
ATOM     18  N   UNL     1      -0.692  11.971  18.216  0.00  0.00    +0.000 NA
ATOM     19  C   UNL     1      -1.876  12.327  17.671  0.00  0.00    +0.000 A 
ATOM     20  C   UNL     1      -2.919  11.457  17.515  0.00  0.00    +0.000 A 
ATOM     21  F   UNL     1      -4.088  11.832  16.987  0.00  0.00    +0.000 F 
ATOM     22  C   UNL     1      -2.683  10.178  17.939  0.00  0.00    +0.000 A 
ATOM     23  N   UNL     1      -1.509   9.777  18.477  0.00  0.00    +0.000 NA
ENDBRANCH   1  16
BRANCH   5  24
ATOM     24  C   UNL     1       2.622   4.155  21.405  0.00  0.00    +0.000 C 
BRANCH  24  25
ATOM     25  C   UNL     1       1.451   3.194  21.350  0.00  0.00    +0.000 C 
ATOM     26  O   UNL     1       1.309   2.272  22.140  0.00  0.00    +0.000 OA
BRANCH  25  27
ATOM     27  O   UNL     1       0.599   3.364  20.311  0.00  0.00    +0.000 OA
ATOM     28  H   UNL     1       0.105   2.556  20.081  0.00  0.00    +0.000 HD
ENDBRANCH  25  27
ENDBRANCH  24  25
ENDBRANCH   5  24
TORSDOF 4
ENDMDL
MODEL 2
REMARK VINA RESULT:      -7.5      3.417      4.663
REMARK  Name = 
REMARK  5 active torsions:
REMARK  status: ('A' for Active; 'I' for Inactive)
REMARK    1  A    between atoms: C_1  and  N_2
REMARK    2  A    between atoms: N_2  and  C_10
REMARK    3  A    between atoms: C_14  and  C_15
REMARK    4  A    between atoms: C_15  and  C_16
REMARK    5  A    between atoms: C_16  and  O_18
REMARK                            x       y       z     vdW  Elec       q    Type
REMARK                         _______ _______ _______ _____ _____    ______ ____
ROOT
ATOM      1  C   UNL     1       2.260   8.462  18.863  0.00  0.00    +0.000 C 
ATOM      2  C   UNL     1       2.800   8.302  17.432  0.00  0.00    +0.000 C 
ATOM      3  C   UNL     1       4.059   7.438  17.431  0.00  0.00    +0.000 C 
ATOM      4  C   UNL     1       3.886   6.184  18.230  0.00  0.00    +0.000 A 
ATOM      5  C   UNL     1       4.619   5.005  18.227  0.00  0.00    +0.000 A 
ATOM      6  C   UNL     1       4.018   4.141  19.205  0.00  0.00    +0.000 A 
ATOM      7  C   UNL     1       4.288   2.829  19.659  0.00  0.00    +0.000 A 
ATOM      8  C   UNL     1       3.460   2.240  20.624  0.00  0.00    +0.000 A 
ATOM      9  C   UNL     1       2.371   2.937  21.135  0.00  0.00    +0.000 A 
ATOM     10 CL   UNL     1       1.355   2.187  22.308  0.00  0.00    +0.000 Cl
ATOM     11  C   UNL     1       2.081   4.235  20.714  0.00  0.00    +0.000 A 
ATOM     12  C   UNL     1       2.924   4.819  19.752  0.00  0.00    +0.000 A 
ATOM     13  N   UNL     1       2.880   6.060  19.159  0.00  0.00    +0.000 N 
ATOM     14  C   UNL     1       1.866   7.079  19.413  0.00  0.00    +0.000 C 
ENDROOT
BRANCH   1  16
ATOM     15  C   UNL     1       0.452   9.865  17.731  0.00  0.00    +0.000 C 
ATOM     16  N   UNL     1       1.140   9.419  18.931  0.00  0.00    +0.000 N 
ATOM     17  C   UNL     1       0.575   9.690  20.164  0.00  0.00    +0.000 A 
ATOM     18  N   UNL     1      -0.564  10.404  20.227  0.00  0.00    +0.000 NA
ATOM     19  C   UNL     1      -1.069  10.697  21.445  0.00  0.00    +0.000 A 
ATOM     20  C   UNL     1      -0.479  10.304  22.614  0.00  0.00    +0.000 A 
ATOM     21  F   UNL     1      -0.987  10.615  23.809  0.00  0.00    +0.000 F 
ATOM     22  C   UNL     1       0.667   9.570  22.473  0.00  0.00    +0.000 A 
ATOM     23  N   UNL     1       1.199   9.244  21.273  0.00  0.00    +0.000 NA
ENDBRANCH   1  16
BRANCH   5  24
ATOM     24  C   UNL     1       5.781   4.674  17.327  0.00  0.00    +0.000 C 
BRANCH  24  25
ATOM     25  C   UNL     1       7.144   4.649  17.991  0.00  0.00    +0.000 C 
ATOM     26  O   UNL     1       7.357   5.141  19.090  0.00  0.00    +0.000 OA
BRANCH  25  27
ATOM     27  O   UNL     1       8.147   4.116  17.255  0.00  0.00    +0.000 OA
ATOM     28  H   UNL     1       7.931   4.039  16.307  0.00  0.00    +0.000 HD
ENDBRANCH  25  27
ENDBRANCH  24  25
ENDBRANCH   5  24
TORSDOF 4
ENDMDL
MODEL 3
REMARK VINA RESULT:      -7.4      1.365      1.365
REMARK  Name = 
REMARK  5 active torsions:
REMARK  status: ('A' for Active; 'I' for Inactive)
REMARK    1  A    between atoms: C_1  and  N_2
REMARK    2  A    between atoms: N_2  and  C_10
REMARK    3  A    between atoms: C_14  and  C_15
REMARK    4  A    between atoms: C_15  and  C_16
REMARK    5  A    between atoms: C_16  and  O_18
REMARK                            x       y       z     vdW  Elec       q    Type
REMARK                         _______ _______ _______ _____ _____    ______ ____
ROOT
ATOM      1  C   UNL     1       1.331   9.293  19.108  0.00  0.00    +0.000 C 
ATOM      2  C   UNL     1       1.456   9.021  20.618  0.00  0.00    +0.000 C 
ATOM      3  C   UNL     1       1.308   7.529  20.903  0.00  0.00    +0.000 C 
ATOM      4  C   UNL     1       2.152   6.691  19.994  0.00  0.00    +0.000 A 
ATOM      5  C   UNL     1       2.567   5.372  20.112  0.00  0.00    +0.000 A 
ATOM      6  C   UNL     1       3.348   5.077  18.942  0.00  0.00    +0.000 A 
ATOM      7  C   UNL     1       4.040   3.933  18.482  0.00  0.00    +0.000 A 
ATOM      8  C   UNL     1       4.762   3.989  17.282  0.00  0.00    +0.000 A 
ATOM      9  C   UNL     1       4.805   5.165  16.542  0.00  0.00    +0.000 A 
ATOM     10 CL   UNL     1       5.713   5.217  15.079  0.00  0.00    +0.000 Cl
ATOM     11  C   UNL     1       4.126   6.309  16.964  0.00  0.00    +0.000 A 
ATOM     12  C   UNL     1       3.398   6.238  18.164  0.00  0.00    +0.000 A 
ATOM     13  N   UNL     1       2.649   7.193  18.815  0.00  0.00    +0.000 N 
ATOM     14  C   UNL     1       2.469   8.570  18.366  0.00  0.00    +0.000 C 
ENDROOT
BRANCH   1  16
ATOM     15  C   UNL     1       2.293  11.340  17.924  0.00  0.00    +0.000 C 
ATOM     16  N   UNL     1       1.307  10.737  18.804  0.00  0.00    +0.000 N 
ATOM     17  C   UNL     1       0.185  11.467  19.152  0.00  0.00    +0.000 A 
ATOM     18  N   UNL     1       0.060  12.734  18.714  0.00  0.00    +0.000 NA
ATOM     19  C   UNL     1      -1.021  13.442  19.107  0.00  0.00    +0.000 A 
ATOM     20  C   UNL     1      -1.990  12.935  19.927  0.00  0.00    +0.000 A 
ATOM     21  F   UNL     1      -3.045  13.657  20.316  0.00  0.00    +0.000 F 
ATOM     22  C   UNL     1      -1.803  11.639  20.322  0.00  0.00    +0.000 A 
ATOM     23  N   UNL     1      -0.743  10.890  19.941  0.00  0.00    +0.000 NA
ENDBRANCH   1  16
BRANCH   5  24
ATOM     24  C   UNL     1       2.302   4.447  21.272  0.00  0.00    +0.000 C 
BRANCH  24  25
ATOM     25  C   UNL     1       1.344   3.304  21.000  0.00  0.00    +0.000 C 
ATOM     26  O   UNL     1       1.479   2.192  21.490  0.00  0.00    +0.000 OA
BRANCH  25  27
ATOM     27  O   UNL     1       0.361   3.561  20.106  0.00  0.00    +0.000 OA
ATOM     28  H   UNL     1      -0.013   2.757  19.701  0.00  0.00    +0.000 HD
ENDBRANCH  25  27
ENDBRANCH  24  25
ENDBRANCH   5  24
TORSDOF 4
ENDMDL
MODEL 4
REMARK VINA RESULT:      -7.4      3.343      4.467
REMARK  Name = 
REMARK  5 active torsions:
REMARK  status: ('A' for Active; 'I' for Inactive)
REMARK    1  A    between atoms: C_1  and  N_2
REMARK    2  A    between atoms: N_2  and  C_10
REMARK    3  A    between atoms: C_14  and  C_15
REMARK    4  A    between atoms: C_15  and  C_16
REMARK    5  A    between atoms: C_16  and  O_18
REMARK                            x       y       z     vdW  Elec       q    Type
REMARK                         _______ _______ _______ _____ _____    ______ ____
ROOT
ATOM      1  C   UNL     1       1.852   9.023  19.318  0.00  0.00    +0.000 C 
ATOM      2  C   UNL     1       2.027   9.031  17.789  0.00  0.00    +0.000 C 
ATOM      3  C   UNL     1       3.226   8.176  17.387  0.00  0.00    +0.000 C 
ATOM      4  C   UNL     1       3.219   6.838  18.058  0.00  0.00    +0.000 A 
ATOM      5  C   UNL     1       3.899   5.669  17.745  0.00  0.00    +0.000 A 
ATOM      6  C   UNL     1       3.529   4.696  18.736  0.00  0.00    +0.000 A 
ATOM      7  C   UNL     1       3.868   3.342  18.961  0.00  0.00    +0.000 A 
ATOM      8  C   UNL     1       3.282   2.644  20.027  0.00  0.00    +0.000 A 
ATOM      9  C   UNL     1       2.367   3.275  20.862  0.00  0.00    +0.000 A 
ATOM     10 CL   UNL     1       1.645   2.392  22.154  0.00  0.00    +0.000 Cl
ATOM     11  C   UNL     1       2.017   4.612  20.671  0.00  0.00    +0.000 A 
ATOM     12  C   UNL     1       2.618   5.305  19.605  0.00  0.00    +0.000 A 
ATOM     13  N   UNL     1       2.464   6.606  19.183  0.00  0.00    +0.000 N 
ATOM     14  C   UNL     1       1.567   7.586  19.788  0.00  0.00    +0.000 C 
ENDROOT
BRANCH   1  16
ATOM     15  C   UNL     1      -0.231   9.557  20.693  0.00  0.00    +0.000 C 
ATOM     16  N   UNL     1       0.806   9.964  19.762  0.00  0.00    +0.000 N 
ATOM     17  C   UNL     1       0.970  11.311  19.492  0.00  0.00    +0.000 A 
ATOM     18  N   UNL     1       0.133  12.204  20.052  0.00  0.00    +0.000 NA
ATOM     19  C   UNL     1       0.283  13.508  19.734  0.00  0.00    +0.000 A 
ATOM     20  C   UNL     1       1.242  13.962  18.872  0.00  0.00    +0.000 A 
ATOM     21  F   UNL     1       1.366  15.255  18.559  0.00  0.00    +0.000 F 
ATOM     22  C   UNL     1       2.064  13.000  18.351  0.00  0.00    +0.000 A 
ATOM     23  N   UNL     1       1.957  11.686  18.653  0.00  0.00    +0.000 NA
ENDBRANCH   1  16
BRANCH   5  24
ATOM     24  C   UNL     1       4.801   5.445  16.559  0.00  0.00    +0.000 C 
BRANCH  24  25
ATOM     25  C   UNL     1       6.289   5.462  16.849  0.00  0.00    +0.000 C 
ATOM     26  O   UNL     1       6.995   6.440  16.649  0.00  0.00    +0.000 OA
BRANCH  25  27
ATOM     27  O   UNL     1       6.818   4.290  17.272  0.00  0.00    +0.000 OA
ATOM     28  H   UNL     1       6.184   3.736  17.765  0.00  0.00    +0.000 HD
ENDBRANCH  25  27
ENDBRANCH  24  25
ENDBRANCH   5  24
TORSDOF 4
ENDMDL
MODEL 5
REMARK VINA RESULT:      -7.1      2.859      3.852
REMARK  Name = 
REMARK  5 active torsions:
REMARK  status: ('A' for Active; 'I' for Inactive)
REMARK    1  A    between atoms: C_1  and  N_2
REMARK    2  A    between atoms: N_2  and  C_10
REMARK    3  A    between atoms: C_14  and  C_15
REMARK    4  A    between atoms: C_15  and  C_16
REMARK    5  A    between atoms: C_16  and  O_18
REMARK                            x       y       z     vdW  Elec       q    Type
REMARK                         _______ _______ _______ _____ _____    ______ ____
ROOT
ATOM      1  C   UNL     1       1.489   9.405  19.575  0.00  0.00    +0.000 C 
ATOM      2  C   UNL     1       1.704   9.525  18.056  0.00  0.00    +0.000 C 
ATOM      3  C   UNL     1       2.955   8.760  17.633  0.00  0.00    +0.000 C 
ATOM      4  C   UNL     1       2.999   7.381  18.214  0.00  0.00    +0.000 A 
ATOM      5  C   UNL     1       3.746   6.271  17.844  0.00  0.00    +0.000 A 
ATOM      6  C   UNL     1       3.401   5.215  18.756  0.00  0.00    +0.000 A 
ATOM      7  C   UNL     1       3.802   3.867  18.900  0.00  0.00    +0.000 A 
ATOM      8  C   UNL     1       3.224   3.070  19.898  0.00  0.00    +0.000 A 
ATOM      9  C   UNL     1       2.255   3.596  20.745  0.00  0.00    +0.000 A 
ATOM     10 CL   UNL     1       1.545   2.593  21.953  0.00  0.00    +0.000 Cl
ATOM     11  C   UNL     1       1.843   4.924  20.634  0.00  0.00    +0.000 A 
ATOM     12  C   UNL     1       2.436   5.717  19.636  0.00  0.00    +0.000 A 
ATOM     13  N   UNL     1       2.227   7.035  19.297  0.00  0.00    +0.000 N 
ATOM     14  C   UNL     1       1.265   7.926  19.939  0.00  0.00    +0.000 C 
ENDROOT
BRANCH   1  16
ATOM     15  C   UNL     1       0.489  11.013  21.287  0.00  0.00    +0.000 C 
ATOM     16  N   UNL     1       0.384  10.260  20.049  0.00  0.00    +0.000 N 
ATOM     17  C   UNL     1      -0.650  10.548  19.176  0.00  0.00    +0.000 A 
ATOM     18  N   UNL     1      -1.563  11.476  19.519  0.00  0.00    +0.000 NA
ATOM     19  C   UNL     1      -2.591  11.705  18.672  0.00  0.00    +0.000 A 
ATOM     20  C   UNL     1      -2.747  11.038  17.488  0.00  0.00    +0.000 A 
ATOM     21  F   UNL     1      -3.778  11.269  16.670  0.00  0.00    +0.000 F 
ATOM     22  C   UNL     1      -1.775  10.120  17.201  0.00  0.00    +0.000 A 
ATOM     23  N   UNL     1      -0.723   9.870  18.014  0.00  0.00    +0.000 NA
ENDBRANCH   1  16
BRANCH   5  24
ATOM     24  C   UNL     1       4.690   6.174  16.673  0.00  0.00    +0.000 C 
BRANCH  24  25
ATOM     25  C   UNL     1       6.167   6.227  17.010  0.00  0.00    +0.000 C 
ATOM     26  O   UNL     1       6.768   5.289  17.516  0.00  0.00    +0.000 OA
BRANCH  25  27
ATOM     27  O   UNL     1       6.777   7.415  16.794  0.00  0.00    +0.000 OA
ATOM     28  H   UNL     1       7.029   7.555  15.862  0.00  0.00    +0.000 HD
ENDBRANCH  25  27
ENDBRANCH  24  25
ENDBRANCH   5  24
TORSDOF 4
ENDMDL
MODEL 6
REMARK VINA RESULT:      -7.1      2.221      2.374
REMARK  Name = 
REMARK  5 active torsions:
REMARK  status: ('A' for Active; 'I' for Inactive)
REMARK    1  A    between atoms: C_1  and  N_2
REMARK    2  A    between atoms: N_2  and  C_10
REMARK    3  A    between atoms: C_14  and  C_15
REMARK    4  A    between atoms: C_15  and  C_16
REMARK    5  A    between atoms: C_16  and  O_18
REMARK                            x       y       z     vdW  Elec       q    Type
REMARK                         _______ _______ _______ _____ _____    ______ ____
ROOT
ATOM      1  C   UNL     1       1.473   8.284  19.460  0.00  0.00    +0.000 C 
ATOM      2  C   UNL     1       1.668   7.729  20.882  0.00  0.00    +0.000 C 
ATOM      3  C   UNL     1       1.626   6.202  20.868  0.00  0.00    +0.000 C 
ATOM      4  C   UNL     1       2.492   5.623  19.792  0.00  0.00    +0.000 A 
ATOM      5  C   UNL     1       2.996   4.339  19.636  0.00  0.00    +0.000 A 
ATOM      6  C   UNL     1       3.753   4.336  18.415  0.00  0.00    +0.000 A 
ATOM      7  C   UNL     1       4.503   3.357  17.723  0.00  0.00    +0.000 A 
ATOM      8  C   UNL     1       5.178   3.700  16.543  0.00  0.00    +0.000 A 
ATOM      9  C   UNL     1       5.118   5.000  16.051  0.00  0.00    +0.000 A 
ATOM     10 CL   UNL     1       5.971   5.404  14.610  0.00  0.00    +0.000 Cl
ATOM     11  C   UNL     1       4.382   5.987  16.707  0.00  0.00    +0.000 A 
ATOM     12  C   UNL     1       3.701   5.629  17.884  0.00  0.00    +0.000 A 
ATOM     13  N   UNL     1       2.915   6.381  18.727  0.00  0.00    +0.000 N 
ATOM     14  C   UNL     1       2.630   7.804  18.566  0.00  0.00    +0.000 C 
ENDROOT
BRANCH   1  16
ATOM     15  C   UNL     1       1.784  10.543  18.313  0.00  0.00    +0.000 C 
ATOM     16  N   UNL     1       1.345   9.753  19.450  0.00  0.00    +0.000 N 
ATOM     17  C   UNL     1       0.562  10.355  20.420  0.00  0.00    +0.000 A 
ATOM     18  N   UNL     1       0.275  11.666  20.316  0.00  0.00    +0.000 NA
ATOM     19  C   UNL     1      -0.449  12.242  21.300  0.00  0.00    +0.000 A 
ATOM     20  C   UNL     1      -0.902  11.557  22.394  0.00  0.00    +0.000 A 
ATOM     21  F   UNL     1      -1.605  12.147  23.365  0.00  0.00    +0.000 F 
ATOM     22  C   UNL     1      -0.583  10.227  22.426  0.00  0.00    +0.000 A 
ATOM     23  N   UNL     1       0.128   9.609  21.455  0.00  0.00    +0.000 NA
ENDBRANCH   1  16
BRANCH   5  24
ATOM     24  C   UNL     1       2.831   3.187  20.594  0.00  0.00    +0.000 C 
BRANCH  24  25
ATOM     25  C   UNL     1       1.415   2.913  21.060  0.00  0.00    +0.000 C 
ATOM     26  O   UNL     1       1.141   2.614  22.214  0.00  0.00    +0.000 OA
BRANCH  25  27
ATOM     27  O   UNL     1       0.464   2.938  20.097  0.00  0.00    +0.000 OA
ATOM     28  H   UNL     1       0.676   2.372  19.332  0.00  0.00    +0.000 HD
ENDBRANCH  25  27
ENDBRANCH  24  25
ENDBRANCH   5  24
TORSDOF 4
ENDMDL
MODEL 7
REMARK VINA RESULT:      -7.0      3.602      4.650
REMARK  Name = 
REMARK  5 active torsions:
REMARK  status: ('A' for Active; 'I' for Inactive)
REMARK    1  A    between atoms: C_1  and  N_2
REMARK    2  A    between atoms: N_2  and  C_10
REMARK    3  A    between atoms: C_14  and  C_15
REMARK    4  A    between atoms: C_15  and  C_16
REMARK    5  A    between atoms: C_16  and  O_18
REMARK                            x       y       z     vdW  Elec       q    Type
REMARK                         _______ _______ _______ _____ _____    ______ ____
ROOT
ATOM      1  C   UNL     1       1.481   9.138  19.986  0.00  0.00    +0.000 C 
ATOM      2  C   UNL     1       1.499   9.373  18.466  0.00  0.00    +0.000 C 
ATOM      3  C   UNL     1       2.752   8.756  17.847  0.00  0.00    +0.000 C 
ATOM      4  C   UNL     1       2.984   7.354  18.316  0.00  0.00    +0.000 A 
ATOM      5  C   UNL     1       3.774   6.344  17.783  0.00  0.00    +0.000 A 
ATOM      6  C   UNL     1       3.634   5.206  18.649  0.00  0.00    +0.000 A 
ATOM      7  C   UNL     1       4.164   3.895  18.647  0.00  0.00    +0.000 A 
ATOM      8  C   UNL     1       3.783   2.987  19.643  0.00  0.00    +0.000 A 
ATOM      9  C   UNL     1       2.882   3.366  20.633  0.00  0.00    +0.000 A 
ATOM     10 CL   UNL     1       2.413   2.226  21.838  0.00  0.00    +0.000 Cl
ATOM     11  C   UNL     1       2.347   4.653  20.667  0.00  0.00    +0.000 A 
ATOM     12  C   UNL     1       2.743   5.559  19.668  0.00  0.00    +0.000 A 
ATOM     13  N   UNL     1       2.382   6.870  19.453  0.00  0.00    +0.000 N 
ATOM     14  C   UNL     1       1.432   7.625  20.265  0.00  0.00    +0.000 C 
ENDROOT
BRANCH   1  16
ATOM     15  C   UNL     1      -0.734   9.137  21.255  0.00  0.00    +0.000 C 
ATOM     16  N   UNL     1       0.373   9.854  20.646  0.00  0.00    +0.000 N 
ATOM     17  C   UNL     1       0.524  11.203  20.913  0.00  0.00    +0.000 A 
ATOM     18  N   UNL     1      -0.386  11.829  21.682  0.00  0.00    +0.000 NA
ATOM     19  C   UNL     1      -0.244  13.157  21.888  0.00  0.00    +0.000 A 
ATOM     20  C   UNL     1       0.777  13.892  21.352  0.00  0.00    +0.000 A 
ATOM     21  F   UNL     1       0.893  15.207  21.556  0.00  0.00    +0.000 F 
ATOM     22  C   UNL     1       1.670  13.186  20.593  0.00  0.00    +0.000 A 
ATOM     23  N   UNL     1       1.572  11.855  20.373  0.00  0.00    +0.000 NA
ENDBRANCH   1  16
BRANCH   5  24
ATOM     24  C   UNL     1       4.573   6.410  16.507  0.00  0.00    +0.000 C 
BRANCH  24  25
ATOM     25  C   UNL     1       6.080   6.371  16.670  0.00  0.00    +0.000 C 
ATOM     26  O   UNL     1       6.728   5.335  16.622  0.00  0.00    +0.000 OA
BRANCH  25  27
ATOM     27  O   UNL     1       6.671   7.554  16.958  0.00  0.00    +0.000 OA
ATOM     28  H   UNL     1       6.577   8.215  16.247  0.00  0.00    +0.000 HD
ENDBRANCH  25  27
ENDBRANCH  24  25
ENDBRANCH   5  24
TORSDOF 4
ENDMDL
MODEL 8
REMARK VINA RESULT:      -6.9      3.443      4.643
REMARK  Name = 
REMARK  5 active torsions:
REMARK  status: ('A' for Active; 'I' for Inactive)
REMARK    1  A    between atoms: C_1  and  N_2
REMARK    2  A    between atoms: N_2  and  C_10
REMARK    3  A    between atoms: C_14  and  C_15
REMARK    4  A    between atoms: C_15  and  C_16
REMARK    5  A    between atoms: C_16  and  O_18
REMARK                            x       y       z     vdW  Elec       q    Type
REMARK                         _______ _______ _______ _____ _____    ______ ____
ROOT
ATOM      1  C   UNL     1       2.300   8.445  18.855  0.00  0.00    +0.000 C 
ATOM      2  C   UNL     1       2.900   8.309  17.445  0.00  0.00    +0.000 C 
ATOM      3  C   UNL     1       4.177   7.472  17.489  0.00  0.00    +0.000 C 
ATOM      4  C   UNL     1       4.000   6.209  18.272  0.00  0.00    +0.000 A 
ATOM      5  C   UNL     1       4.758   5.046  18.290  0.00  0.00    +0.000 A 
ATOM      6  C   UNL     1       4.138   4.161  19.237  0.00  0.00    +0.000 A 
ATOM      7  C   UNL     1       4.419   2.852  19.692  0.00  0.00    +0.000 A 
ATOM      8  C   UNL     1       3.566   2.238  20.620  0.00  0.00    +0.000 A 
ATOM      9  C   UNL     1       2.442   2.906  21.091  0.00  0.00    +0.000 A 
ATOM     10 CL   UNL     1       1.397   2.125  22.217  0.00  0.00    +0.000 Cl
ATOM     11  C   UNL     1       2.141   4.201  20.668  0.00  0.00    +0.000 A 
ATOM     12  C   UNL     1       3.009   4.811  19.745  0.00  0.00    +0.000 A 
ATOM     13  N   UNL     1       2.961   6.056  19.158  0.00  0.00    +0.000 N 
ATOM     14  C   UNL     1       1.914   7.050  19.379  0.00  0.00    +0.000 C 
ENDROOT
BRANCH   1  16
ATOM     15  C   UNL     1       0.466   9.765  17.666  0.00  0.00    +0.000 C 
ATOM     16  N   UNL     1       1.157   9.377  18.884  0.00  0.00    +0.000 N 
ATOM     17  C   UNL     1       0.578   9.675  20.104  0.00  0.00    +0.000 A 
ATOM     18  N   UNL     1      -0.578  10.364  20.136  0.00  0.00    +0.000 NA
ATOM     19  C   UNL     1      -1.098  10.685  21.341  0.00  0.00    +0.000 A 
ATOM     20  C   UNL     1      -0.506  10.346  22.526  0.00  0.00    +0.000 A 
ATOM     21  F   UNL     1      -1.029  10.685  23.707  0.00  0.00    +0.000 F 
ATOM     22  C   UNL     1       0.658   9.636  22.416  0.00  0.00    +0.000 A 
ATOM     23  N   UNL     1       1.206   9.282  21.230  0.00  0.00    +0.000 NA
ENDBRANCH   1  16
BRANCH   5  24
ATOM     24  C   UNL     1       5.962   4.747  17.435  0.00  0.00    +0.000 C 
BRANCH  24  25
ATOM     25  C   UNL     1       5.670   4.257  16.031  0.00  0.00    +0.000 C 
ATOM     26  O   UNL     1       5.200   4.975  15.160  0.00  0.00    +0.000 OA
BRANCH  25  27
ATOM     27  O   UNL     1       5.886   2.938  15.812  0.00  0.00    +0.000 OA
ATOM     28  H   UNL     1       5.836   2.399  16.623  0.00  0.00    +0.000 HD
ENDBRANCH  25  27
ENDBRANCH  24  25
ENDBRANCH   5  24
TORSDOF 4
ENDMDL
MODEL 9
REMARK VINA RESULT:      -6.8      3.647      4.924
REMARK  Name = 
REMARK  5 active torsions:
REMARK  status: ('A' for Active; 'I' for Inactive)
REMARK    1  A    between atoms: C_1  and  N_2
REMARK    2  A    between atoms: N_2  and  C_10
REMARK    3  A    between atoms: C_14  and  C_15
REMARK    4  A    between atoms: C_15  and  C_16
REMARK    5  A    between atoms: C_16  and  O_18
REMARK                            x       y       z     vdW  Elec       q    Type
REMARK                         _______ _______ _______ _____ _____    ______ ____
ROOT
ATOM      1  C   UNL     1       2.298   8.372  18.642  0.00  0.00    +0.000 C 
ATOM      2  C   UNL     1       2.976   8.739  17.311  0.00  0.00    +0.000 C 
ATOM      3  C   UNL     1       4.204   7.860  17.080  0.00  0.00    +0.000 C 
ATOM      4  C   UNL     1       3.914   6.410  17.314  0.00  0.00    +0.000 A 
ATOM      5  C   UNL     1       4.610   5.276  16.915  0.00  0.00    +0.000 A 
ATOM      6  C   UNL     1       3.888   4.145  17.427  0.00  0.00    +0.000 A 
ATOM      7  C   UNL     1       4.073   2.745  17.358  0.00  0.00    +0.000 A 
ATOM      8  C   UNL     1       3.134   1.887  17.948  0.00  0.00    +0.000 A 
ATOM      9  C   UNL     1       2.019   2.404  18.596  0.00  0.00    +0.000 A 
ATOM     10 CL   UNL     1       0.868   1.331  19.297  0.00  0.00    +0.000 Cl
ATOM     11  C   UNL     1       1.811   3.781  18.688  0.00  0.00    +0.000 A 
ATOM     12  C   UNL     1       2.764   4.632  18.102  0.00  0.00    +0.000 A 
ATOM     13  N   UNL     1       2.816   6.006  18.034  0.00  0.00    +0.000 N 
ATOM     14  C   UNL     1       1.810   6.914  18.578  0.00  0.00    +0.000 C 
ENDROOT
BRANCH   1  16
ATOM     15  C   UNL     1       0.373   9.901  17.951  0.00  0.00    +0.000 C 
ATOM     16  N   UNL     1       1.204   9.302  18.982  0.00  0.00    +0.000 N 
ATOM     17  C   UNL     1       0.804   9.398  20.302  0.00  0.00    +0.000 A 
ATOM     18  N   UNL     1      -0.312  10.088  20.606  0.00  0.00    +0.000 NA
ATOM     19  C   UNL     1      -0.655  10.207  21.907  0.00  0.00    +0.000 A 
ATOM     20  C   UNL     1       0.076   9.664  22.927  0.00  0.00    +0.000 A 
ATOM     21  F   UNL     1      -0.272   9.805  24.209  0.00  0.00    +0.000 F 
ATOM     22  C   UNL     1       1.189   8.966  22.542  0.00  0.00    +0.000 A 
ATOM     23  N   UNL     1       1.560   8.811  21.251  0.00  0.00    +0.000 NA
ENDBRANCH   1  16
BRANCH   5  24
ATOM     24  C   UNL     1       5.848   5.239  16.057  0.00  0.00    +0.000 C 
BRANCH  24  25
ATOM     25  C   UNL     1       7.147   5.587  16.757  0.00  0.00    +0.000 C 
ATOM     26  O   UNL     1       7.633   6.709  16.739  0.00  0.00    +0.000 OA
BRANCH  25  27
ATOM     27  O   UNL     1       7.793   4.553  17.345  0.00  0.00    +0.000 OA
ATOM     28  H   UNL     1       8.716   4.454  17.046  0.00  0.00    +0.000 HD
ENDBRANCH  25  27
ENDBRANCH  24  25
ENDBRANCH   5  24
TORSDOF 4
ENDMDL
