MODEL 1
REMARK VINA RESULT:      -8.0      0.000      0.000
REMARK  Name = 
REMARK  5 active torsions:
REMARK  status: ('A' for Active; 'I' for Inactive)
REMARK    1  A    between atoms: C_1  and  C_2
REMARK    2  A    between atoms: C_6  and  C_7
REMARK    3  A    between atoms: C_7  and  N_8
REMARK    4  A    between atoms: C_16  and  C_18
REMARK    5  A    between atoms: N_21  and  C_22
REMARK                            x       y       z     vdW  Elec       q    Type
REMARK                         _______ _______ _______ _____ _____    ______ ____
ROOT
ATOM      1  N   UNL     1       2.138   4.903  20.564  0.00  0.00    +0.000 NA
ATOM      2  C   UNL     1       0.916   4.569  19.831  0.00  0.00    +0.000 C 
ATOM      3  C   UNL     1       1.050   3.817  18.471  0.00  0.00    +0.000 C 
ATOM      4  C   UNL     1       0.929   2.286  18.621  0.00  0.00    +0.000 C 
ATOM      5  C   UNL     1       2.259   1.660  18.994  0.00  0.00    +0.000 C 
ATOM      6  C   UNL     1       3.258   2.704  19.507  0.00  0.00    +0.000 C 
ATOM      7  C   UNL     1       2.889   3.603  20.765  0.00  0.00    +0.000 C 
ATOM      8  N   UNL     1       3.590   3.587  18.393  0.00  0.00    +0.000 N 
ATOM      9  C   UNL     1       4.924   4.044  18.493  0.00  0.00    +0.000 C 
ATOM     10  O   UNL     1       5.681   3.538  19.326  0.00  0.00    +0.000 OA
ATOM     11  C   UNL     1       2.373   4.143  17.695  0.00  0.00    +0.000 C 
ENDROOT
BRANCH   9  12
ATOM     12  C   UNL     1       5.440   5.174  17.753  0.00  0.00    +0.000 A 
ATOM     13  C   UNL     1       5.242   5.667  16.458  0.00  0.00    +0.000 A 
ATOM     14  N   UNL     1       5.995   6.743  16.191  0.00  0.00    +0.000 NA
ATOM     15  N   UNL     1       6.677   6.948  17.337  0.00  0.00    +0.000 N 
ATOM     16  C   UNL     1       7.649   8.006  17.441  0.00  0.00    +0.000 C 
ATOM     17  C   UNL     1       6.355   6.058  18.308  0.00  0.00    +0.000 A 
ENDBRANCH   9  12
BRANCH   1  18
ATOM     18  C   UNL     1       3.001   6.021  20.043  0.00  0.00    +0.000 C 
BRANCH  18  24
ATOM     19  C   UNL     1       0.877   8.498  21.421  0.00  0.00    +0.000 C 
ATOM     20  C   UNL     1       1.552   8.307  20.097  0.00  0.00    +0.000 A 
ATOM     21  N   UNL     1       1.179   9.219  19.158  0.00  0.00    +0.000 NA
ATOM     22  C   UNL     1       1.743   8.809  18.046  0.00  0.00    +0.000 A 
ATOM     23  N   UNL     1       2.537   7.722  18.246  0.00  0.00    +0.000 N 
ATOM     24  C   UNL     1       2.421   7.333  19.554  0.00  0.00    +0.000 A 
ATOM     25  H   UNL     1       3.069   7.222  17.524  0.00  0.00    +0.000 HD
ENDBRANCH  18  24
ENDBRANCH   1  18
TORSDOF 3
ENDMDL
MODEL 2
REMARK VINA RESULT:      -7.7      1.115      1.219
REMARK  Name = 
REMARK  5 active torsions:
REMARK  status: ('A' for Active; 'I' for Inactive)
REMARK    1  A    between atoms: C_1  and  C_2
REMARK    2  A    between atoms: C_6  and  C_7
REMARK    3  A    between atoms: C_7  and  N_8
REMARK    4  A    between atoms: C_16  and  C_18
REMARK    5  A    between atoms: N_21  and  C_22
REMARK                            x       y       z     vdW  Elec       q    Type
REMARK                         _______ _______ _______ _____ _____    ______ ____
ROOT
ATOM      1  N   UNL     1       2.224   5.022  19.094  0.00  0.00    +0.000 NA
ATOM      2  C   UNL     1       1.555   4.212  18.075  0.00  0.00    +0.000 C 
ATOM      3  C   UNL     1       2.419   3.239  17.215  0.00  0.00    +0.000 C 
ATOM      4  C   UNL     1       2.457   1.808  17.791  0.00  0.00    +0.000 C 
ATOM      5  C   UNL     1       3.524   1.668  18.858  0.00  0.00    +0.000 C 
ATOM      6  C   UNL     1       4.005   3.032  19.368  0.00  0.00    +0.000 C 
ATOM      7  C   UNL     1       2.964   4.055  19.996  0.00  0.00    +0.000 C 
ATOM      8  N   UNL     1       4.698   3.699  18.269  0.00  0.00    +0.000 N 
ATOM      9  C   UNL     1       5.747   4.512  18.755  0.00  0.00    +0.000 C 
ATOM     10  O   UNL     1       6.082   4.432  19.941  0.00  0.00    +0.000 OA
ATOM     11  C   UNL     1       3.892   3.730  16.994  0.00  0.00    +0.000 C 
ENDROOT
BRANCH   9  12
ATOM     12  C   UNL     1       6.389   5.543  17.970  0.00  0.00    +0.000 A 
ATOM     13  C   UNL     1       6.778   5.651  16.630  0.00  0.00    +0.000 A 
ATOM     14  N   UNL     1       7.401   6.808  16.363  0.00  0.00    +0.000 NA
ATOM     15  N   UNL     1       7.399   7.453  17.547  0.00  0.00    +0.000 N 
ATOM     16  C   UNL     1       8.032   8.740  17.690  0.00  0.00    +0.000 C 
ATOM     17  C   UNL     1       6.778   6.753  18.528  0.00  0.00    +0.000 A 
ENDBRANCH   9  12
BRANCH   1  18
ATOM     18  C   UNL     1       3.065   6.185  18.643  0.00  0.00    +0.000 C 
BRANCH  18  24
ATOM     19  C   UNL     1       1.267   8.158  20.972  0.00  0.00    +0.000 C 
ATOM     20  C   UNL     1       1.819   8.391  19.598  0.00  0.00    +0.000 A 
ATOM     21  N   UNL     1       1.451   9.585  19.058  0.00  0.00    +0.000 NA
ATOM     22  C   UNL     1       1.891   9.546  17.822  0.00  0.00    +0.000 A 
ATOM     23  N   UNL     1       2.605   8.416  17.568  0.00  0.00    +0.000 N 
ATOM     24  C   UNL     1       2.559   7.614  18.678  0.00  0.00    +0.000 A 
ATOM     25  H   UNL     1       3.036   8.163  16.671  0.00  0.00    +0.000 HD
ENDBRANCH  18  24
ENDBRANCH   1  18
TORSDOF 3
ENDMDL
MODEL 3
REMARK VINA RESULT:      -7.6      0.878      1.374
REMARK  Name = 
REMARK  5 active torsions:
REMARK  status: ('A' for Active; 'I' for Inactive)
REMARK    1  A    between atoms: C_1  and  C_2
REMARK    2  A    between atoms: C_6  and  C_7
REMARK    3  A    between atoms: C_7  and  N_8
REMARK    4  A    between atoms: C_16  and  C_18
REMARK    5  A    between atoms: N_21  and  C_22
REMARK                            x       y       z     vdW  Elec       q    Type
REMARK                         _______ _______ _______ _____ _____    ______ ____
ROOT
ATOM      1  N   UNL     1       2.252   4.504  20.235  0.00  0.00    +0.000 NA
ATOM      2  C   UNL     1       1.230   3.961  19.340  0.00  0.00    +0.000 C 
ATOM      3  C   UNL     1       1.688   3.327  17.990  0.00  0.00    +0.000 C 
ATOM      4  C   UNL     1       1.883   1.800  18.084  0.00  0.00    +0.000 C 
ATOM      5  C   UNL     1       3.260   1.449  18.611  0.00  0.00    +0.000 C 
ATOM      6  C   UNL     1       3.940   2.650  19.277  0.00  0.00    +0.000 C 
ATOM      7  C   UNL     1       3.235   3.383  20.498  0.00  0.00    +0.000 C 
ATOM      8  N   UNL     1       4.208   3.642  18.240  0.00  0.00    +0.000 N 
ATOM      9  C   UNL     1       5.389   4.364  18.525  0.00  0.00    +0.000 C 
ATOM     10  O   UNL     1       6.130   3.985  19.437  0.00  0.00    +0.000 OA
ATOM     11  C   UNL     1       2.995   3.965  17.403  0.00  0.00    +0.000 C 
ENDROOT
BRANCH   9  12
ATOM     12  C   UNL     1       5.736   5.615  17.888  0.00  0.00    +0.000 A 
ATOM     13  C   UNL     1       5.249   6.314  16.778  0.00  0.00    +0.000 A 
ATOM     14  N   UNL     1       5.936   7.438  16.531  0.00  0.00    +0.000 NA
ATOM     15  N   UNL     1       6.870   7.463  17.504  0.00  0.00    +0.000 N 
ATOM     16  C   UNL     1       7.856   8.512  17.557  0.00  0.00    +0.000 C 
ATOM     17  C   UNL     1       6.770   6.414  18.357  0.00  0.00    +0.000 A 
ENDBRANCH   9  12
BRANCH   1  18
ATOM     18  C   UNL     1       2.910   5.805  19.861  0.00  0.00    +0.000 C 
BRANCH  18  24
ATOM     19  C   UNL     1       2.412   8.491  17.606  0.00  0.00    +0.000 C 
ATOM     20  C   UNL     1       2.000   8.212  19.020  0.00  0.00    +0.000 A 
ATOM     21  N   UNL     1       1.404   9.271  19.633  0.00  0.00    +0.000 NA
ATOM     22  C   UNL     1       1.257   8.899  20.883  0.00  0.00    +0.000 A 
ATOM     23  N   UNL     1       1.651   7.612  21.082  0.00  0.00    +0.000 N 
ATOM     24  C   UNL     1       2.176   7.131  19.912  0.00  0.00    +0.000 A 
ATOM     25  H   UNL     1       1.638   7.109  21.977  0.00  0.00    +0.000 HD
ENDBRANCH  18  24
ENDBRANCH   1  18
TORSDOF 3
ENDMDL
MODEL 4
REMARK VINA RESULT:      -7.2      1.554      4.694
REMARK  Name = 
REMARK  5 active torsions:
REMARK  status: ('A' for Active; 'I' for Inactive)
REMARK    1  A    between atoms: C_1  and  C_2
REMARK    2  A    between atoms: C_6  and  C_7
REMARK    3  A    between atoms: C_7  and  N_8
REMARK    4  A    between atoms: C_16  and  C_18
REMARK    5  A    between atoms: N_21  and  C_22
REMARK                            x       y       z     vdW  Elec       q    Type
REMARK                         _______ _______ _______ _____ _____    ______ ____
ROOT
ATOM      1  N   UNL     1       4.700   6.939  17.025  0.00  0.00    +0.000 NA
ATOM      2  C   UNL     1       5.944   7.153  17.767  0.00  0.00    +0.000 C 
ATOM      3  C   UNL     1       6.593   5.936  18.494  0.00  0.00    +0.000 C 
ATOM      4  C   UNL     1       7.665   5.232  17.637  0.00  0.00    +0.000 C 
ATOM      5  C   UNL     1       7.044   4.221  16.693  0.00  0.00    +0.000 C 
ATOM      6  C   UNL     1       5.534   4.434  16.541  0.00  0.00    +0.000 C 
ATOM      7  C   UNL     1       4.977   5.831  16.030  0.00  0.00    +0.000 C 
ATOM      8  N   UNL     1       4.910   4.135  17.828  0.00  0.00    +0.000 N 
ATOM      9  C   UNL     1       3.620   3.588  17.649  0.00  0.00    +0.000 C 
ATOM     10  O   UNL     1       3.252   3.252  16.519  0.00  0.00    +0.000 OA
ATOM     11  C   UNL     1       5.556   4.864  18.981  0.00  0.00    +0.000 C 
ENDROOT
BRANCH   9  12
ATOM     12  C   UNL     1       2.633   3.505  18.702  0.00  0.00    +0.000 A 
ATOM     13  C   UNL     1       1.359   4.054  18.893  0.00  0.00    +0.000 A 
ATOM     14  N   UNL     1       0.828   3.729  20.079  0.00  0.00    +0.000 NA
ATOM     15  N   UNL     1       1.770   2.952  20.651  0.00  0.00    +0.000 N 
ATOM     16  C   UNL     1       1.592   2.429  21.982  0.00  0.00    +0.000 C 
ATOM     17  C   UNL     1       2.850   2.762  19.854  0.00  0.00    +0.000 A 
ENDBRANCH   9  12
BRANCH   1  18
ATOM     18  C   UNL     1       3.429   6.742  17.805  0.00  0.00    +0.000 C 
BRANCH  18  24
ATOM     19  C   UNL     1       1.612   7.386  20.777  0.00  0.00    +0.000 C 
ATOM     20  C   UNL     1       1.868   8.148  19.513  0.00  0.00    +0.000 A 
ATOM     21  N   UNL     1       1.149   9.300  19.415  0.00  0.00    +0.000 NA
ATOM     22  C   UNL     1       1.383   9.743  18.202  0.00  0.00    +0.000 A 
ATOM     23  N   UNL     1       2.293   8.974  17.544  0.00  0.00    +0.000 N 
ATOM     24  C   UNL     1       2.614   7.905  18.337  0.00  0.00    +0.000 A 
ATOM     25  H   UNL     1       2.623   9.119  16.583  0.00  0.00    +0.000 HD
ENDBRANCH  18  24
ENDBRANCH   1  18
TORSDOF 3
ENDMDL
MODEL 5
REMARK VINA RESULT:      -7.1      1.055      1.344
REMARK  Name = 
REMARK  5 active torsions:
REMARK  status: ('A' for Active; 'I' for Inactive)
REMARK    1  A    between atoms: C_1  and  C_2
REMARK    2  A    between atoms: C_6  and  C_7
REMARK    3  A    between atoms: C_7  and  N_8
REMARK    4  A    between atoms: C_16  and  C_18
REMARK    5  A    between atoms: N_21  and  C_22
REMARK                            x       y       z     vdW  Elec       q    Type
REMARK                         _______ _______ _______ _____ _____    ______ ____
ROOT
ATOM      1  N   UNL     1       2.074   5.195  19.977  0.00  0.00    +0.000 NA
ATOM      2  C   UNL     1       0.936   4.436  19.456  0.00  0.00    +0.000 C 
ATOM      3  C   UNL     1       1.220   3.234  18.503  0.00  0.00    +0.000 C 
ATOM      4  C   UNL     1       1.296   1.886  19.249  0.00  0.00    +0.000 C 
ATOM      5  C   UNL     1       2.681   1.645  19.818  0.00  0.00    +0.000 C 
ATOM      6  C   UNL     1       3.513   2.932  19.859  0.00  0.00    +0.000 C 
ATOM      7  C   UNL     1       2.981   4.195  20.664  0.00  0.00    +0.000 C 
ATOM      8  N   UNL     1       3.771   3.341  18.481  0.00  0.00    +0.000 N 
ATOM      9  C   UNL     1       5.028   3.977  18.370  0.00  0.00    +0.000 C 
ATOM     10  O   UNL     1       5.812   3.949  19.324  0.00  0.00    +0.000 OA
ATOM     11  C   UNL     1       2.519   3.404  17.640  0.00  0.00    +0.000 C 
ENDROOT
BRANCH   9  12
ATOM     12  C   UNL     1       5.419   4.782  17.235  0.00  0.00    +0.000 A 
ATOM     13  C   UNL     1       5.153   6.094  16.829  0.00  0.00    +0.000 A 
ATOM     14  N   UNL     1       5.707   6.394  15.646  0.00  0.00    +0.000 NA
ATOM     15  N   UNL     1       6.348   5.260  15.296  0.00  0.00    +0.000 N 
ATOM     16  C   UNL     1       7.043   5.160  14.037  0.00  0.00    +0.000 C 
ATOM     17  C   UNL     1       6.232   4.281  16.227  0.00  0.00    +0.000 A 
ENDBRANCH   9  12
BRANCH   1  18
ATOM     18  C   UNL     1       2.802   6.123  19.042  0.00  0.00    +0.000 C 
BRANCH  18  24
ATOM     19  C   UNL     1       1.056   8.498  21.006  0.00  0.00    +0.000 C 
ATOM     20  C   UNL     1       1.691   8.516  19.648  0.00  0.00    +0.000 A 
ATOM     21  N   UNL     1       1.445   9.655  18.946  0.00  0.00    +0.000 NA
ATOM     22  C   UNL     1       1.939   9.430  17.752  0.00  0.00    +0.000 A 
ATOM     23  N   UNL     1       2.573   8.228  17.680  0.00  0.00    +0.000 N 
ATOM     24  C   UNL     1       2.410   7.578  18.874  0.00  0.00    +0.000 A 
ATOM     25  H   UNL     1       3.025   7.834  16.847  0.00  0.00    +0.000 HD
ENDBRANCH  18  24
ENDBRANCH   1  18
TORSDOF 3
ENDMDL
MODEL 6
REMARK VINA RESULT:      -7.1      1.977      4.620
REMARK  Name = 
REMARK  5 active torsions:
REMARK  status: ('A' for Active; 'I' for Inactive)
REMARK    1  A    between atoms: C_1  and  C_2
REMARK    2  A    between atoms: C_6  and  C_7
REMARK    3  A    between atoms: C_7  and  N_8
REMARK    4  A    between atoms: C_16  and  C_18
REMARK    5  A    between atoms: N_21  and  C_22
REMARK                            x       y       z     vdW  Elec       q    Type
REMARK                         _______ _______ _______ _____ _____    ______ ____
ROOT
ATOM      1  N   UNL     1       4.183   2.793  19.430  0.00  0.00    +0.000 NA
ATOM      2  C   UNL     1       3.933   2.696  20.868  0.00  0.00    +0.000 C 
ATOM      3  C   UNL     1       2.680   3.419  21.453  0.00  0.00    +0.000 C 
ATOM      4  C   UNL     1       1.452   2.492  21.557  0.00  0.00    +0.000 C 
ATOM      5  C   UNL     1       0.692   2.430  20.247  0.00  0.00    +0.000 C 
ATOM      6  C   UNL     1       1.528   2.959  19.076  0.00  0.00    +0.000 C 
ATOM      7  C   UNL     1       2.931   2.293  18.740  0.00  0.00    +0.000 C 
ATOM      8  N   UNL     1       1.737   4.388  19.288  0.00  0.00    +0.000 N 
ATOM      9  C   UNL     1       1.800   5.078  18.056  0.00  0.00    +0.000 C 
ATOM     10  O   UNL     1       1.496   4.491  17.013  0.00  0.00    +0.000 OA
ATOM     11  C   UNL     1       2.269   4.710  20.664  0.00  0.00    +0.000 C 
ENDROOT
BRANCH   9  12
ATOM     12  C   UNL     1       2.326   6.417  17.915  0.00  0.00    +0.000 A 
ATOM     13  C   UNL     1       3.596   6.946  17.654  0.00  0.00    +0.000 A 
ATOM     14  N   UNL     1       3.612   8.286  17.666  0.00  0.00    +0.000 NA
ATOM     15  N   UNL     1       2.331   8.619  17.927  0.00  0.00    +0.000 N 
ATOM     16  C   UNL     1       1.939   9.998  18.071  0.00  0.00    +0.000 C 
ATOM     17  C   UNL     1       1.520   7.539  18.051  0.00  0.00    +0.000 A 
ENDBRANCH   9  12
BRANCH   1  18
ATOM     18  C   UNL     1       4.693   4.097  18.880  0.00  0.00    +0.000 C 
BRANCH  18  24
ATOM     19  C   UNL     1       7.852   5.692  18.714  0.00  0.00    +0.000 C 
ATOM     20  C   UNL     1       7.059   4.824  17.783  0.00  0.00    +0.000 A 
ATOM     21  N   UNL     1       7.606   4.714  16.542  0.00  0.00    +0.000 NA
ATOM     22  C   UNL     1       6.715   4.059  15.836  0.00  0.00    +0.000 A 
ATOM     23  N   UNL     1       5.655   3.663  16.593  0.00  0.00    +0.000 N 
ATOM     24  C   UNL     1       5.811   4.166  17.857  0.00  0.00    +0.000 A 
ATOM     25  H   UNL     1       4.833   3.148  16.257  0.00  0.00    +0.000 HD
ENDBRANCH  18  24
ENDBRANCH   1  18
TORSDOF 3
ENDMDL
MODEL 7
REMARK VINA RESULT:      -7.0      1.732      4.853
REMARK  Name = 
REMARK  5 active torsions:
REMARK  status: ('A' for Active; 'I' for Inactive)
REMARK    1  A    between atoms: C_1  and  C_2
REMARK    2  A    between atoms: C_6  and  C_7
REMARK    3  A    between atoms: C_7  and  N_8
REMARK    4  A    between atoms: C_16  and  C_18
REMARK    5  A    between atoms: N_21  and  C_22
REMARK                            x       y       z     vdW  Elec       q    Type
REMARK                         _______ _______ _______ _____ _____    ______ ____
ROOT
ATOM      1  N   UNL     1       4.721   6.810  17.370  0.00  0.00    +0.000 NA
ATOM      2  C   UNL     1       6.178   6.943  17.373  0.00  0.00    +0.000 C 
ATOM      3  C   UNL     1       7.041   5.643  17.368  0.00  0.00    +0.000 C 
ATOM      4  C   UNL     1       7.458   5.210  15.947  0.00  0.00    +0.000 C 
ATOM      5  C   UNL     1       6.375   4.386  15.278  0.00  0.00    +0.000 C 
ATOM      6  C   UNL     1       5.027   4.527  15.993  0.00  0.00    +0.000 C 
ATOM      7  C   UNL     1       4.367   5.962  16.166  0.00  0.00    +0.000 C 
ATOM      8  N   UNL     1       5.158   3.920  17.315  0.00  0.00    +0.000 N 
ATOM      9  C   UNL     1       3.937   3.340  17.728  0.00  0.00    +0.000 C 
ATOM     10  O   UNL     1       3.011   3.230  16.919  0.00  0.00    +0.000 OA
ATOM     11  C   UNL     1       6.355   4.426  18.082  0.00  0.00    +0.000 C 
ENDROOT
BRANCH   9  12
ATOM     12  C   UNL     1       3.649   2.969  19.095  0.00  0.00    +0.000 A 
ATOM     13  C   UNL     1       4.377   2.340  20.111  0.00  0.00    +0.000 A 
ATOM     14  N   UNL     1       3.659   2.158  21.228  0.00  0.00    +0.000 NA
ATOM     15  N   UNL     1       2.457   2.690  20.925  0.00  0.00    +0.000 N 
ATOM     16  C   UNL     1       1.369   2.647  21.869  0.00  0.00    +0.000 C 
ATOM     17  C   UNL     1       2.412   3.215  19.676  0.00  0.00    +0.000 A 
ENDBRANCH   9  12
BRANCH   1  18
ATOM     18  C   UNL     1       4.041   6.368  18.638  0.00  0.00    +0.000 C 
BRANCH  18  24
ATOM     19  C   UNL     1       2.129   9.197  17.697  0.00  0.00    +0.000 C 
ATOM     20  C   UNL     1       2.107   8.250  18.858  0.00  0.00    +0.000 A 
ATOM     21  N   UNL     1       1.244   8.616  19.844  0.00  0.00    +0.000 NA
ATOM     22  C   UNL     1       1.470   7.771  20.822  0.00  0.00    +0.000 A 
ATOM     23  N   UNL     1       2.379   6.819  20.475  0.00  0.00    +0.000 N 
ATOM     24  C   UNL     1       2.852   7.105  19.222  0.00  0.00    +0.000 A 
ATOM     25  H   UNL     1       2.721   6.062  21.079  0.00  0.00    +0.000 HD
ENDBRANCH  18  24
ENDBRANCH   1  18
TORSDOF 3
ENDMDL
MODEL 8
REMARK VINA RESULT:      -7.0      1.612      4.788
REMARK  Name = 
REMARK  5 active torsions:
REMARK  status: ('A' for Active; 'I' for Inactive)
REMARK    1  A    between atoms: C_1  and  C_2
REMARK    2  A    between atoms: C_6  and  C_7
REMARK    3  A    between atoms: C_7  and  N_8
REMARK    4  A    between atoms: C_16  and  C_18
REMARK    5  A    between atoms: N_21  and  C_22
REMARK                            x       y       z     vdW  Elec       q    Type
REMARK                         _______ _______ _______ _____ _____    ______ ____
ROOT
ATOM      1  N   UNL     1       4.517   6.655  16.940  0.00  0.00    +0.000 NA
ATOM      2  C   UNL     1       5.547   7.182  17.836  0.00  0.00    +0.000 C 
ATOM      3  C   UNL     1       6.298   6.184  18.770  0.00  0.00    +0.000 C 
ATOM      4  C   UNL     1       7.620   5.674  18.160  0.00  0.00    +0.000 C 
ATOM      5  C   UNL     1       7.385   4.494  17.238  0.00  0.00    +0.000 C 
ATOM      6  C   UNL     1       5.911   4.364  16.840  0.00  0.00    +0.000 C 
ATOM      7  C   UNL     1       5.177   5.572  16.113  0.00  0.00    +0.000 C 
ATOM      8  N   UNL     1       5.154   4.022  18.040  0.00  0.00    +0.000 N 
ATOM      9  C   UNL     1       4.050   3.198  17.724  0.00  0.00    +0.000 C 
ATOM     10  O   UNL     1       3.954   2.717  16.590  0.00  0.00    +0.000 OA
ATOM     11  C   UNL     1       5.434   4.947  19.200  0.00  0.00    +0.000 C 
ENDROOT
BRANCH   9  12
ATOM     12  C   UNL     1       2.937   2.972  18.618  0.00  0.00    +0.000 A 
ATOM     13  C   UNL     1       1.547   2.935  18.459  0.00  0.00    +0.000 A 
ATOM     14  N   UNL     1       0.898   2.737  19.615  0.00  0.00    +0.000 NA
ATOM     15  N   UNL     1       1.888   2.634  20.525  0.00  0.00    +0.000 N 
ATOM     16  C   UNL     1       1.592   2.461  21.924  0.00  0.00    +0.000 C 
ATOM     17  C   UNL     1       3.123   2.735  19.974  0.00  0.00    +0.000 A 
ENDBRANCH   9  12
BRANCH   1  18
ATOM     18  C   UNL     1       3.198   6.239  17.535  0.00  0.00    +0.000 C 
BRANCH  18  24
ATOM     19  C   UNL     1       1.964   9.552  17.747  0.00  0.00    +0.000 C 
ATOM     20  C   UNL     1       2.024   8.388  18.689  0.00  0.00    +0.000 A 
ATOM     21  N   UNL     1       1.630   8.691  19.956  0.00  0.00    +0.000 NA
ATOM     22  C   UNL     1       1.891   7.613  20.658  0.00  0.00    +0.000 A 
ATOM     23  N   UNL     1       2.352   6.596  19.880  0.00  0.00    +0.000 N 
ATOM     24  C   UNL     1       2.492   7.058  18.598  0.00  0.00    +0.000 A 
ATOM     25  H   UNL     1       2.631   5.664  20.208  0.00  0.00    +0.000 HD
ENDBRANCH  18  24
ENDBRANCH   1  18
TORSDOF 3
ENDMDL
MODEL 9
REMARK VINA RESULT:      -6.6      0.862      1.411
REMARK  Name = 
REMARK  5 active torsions:
REMARK  status: ('A' for Active; 'I' for Inactive)
REMARK    1  A    between atoms: C_1  and  C_2
REMARK    2  A    between atoms: C_6  and  C_7
REMARK    3  A    between atoms: C_7  and  N_8
REMARK    4  A    between atoms: C_16  and  C_18
REMARK    5  A    between atoms: N_21  and  C_22
REMARK                            x       y       z     vdW  Elec       q    Type
REMARK                         _______ _______ _______ _____ _____    ______ ____
ROOT
ATOM      1  N   UNL     1       2.098   4.957  20.289  0.00  0.00    +0.000 NA
ATOM      2  C   UNL     1       0.986   4.505  19.451  0.00  0.00    +0.000 C 
ATOM      3  C   UNL     1       1.302   3.585  18.232  0.00  0.00    +0.000 C 
ATOM      4  C   UNL     1       1.168   2.085  18.566  0.00  0.00    +0.000 C 
ATOM      5  C   UNL     1       2.438   1.541  19.190  0.00  0.00    +0.000 C 
ATOM      6  C   UNL     1       3.355   2.663  19.689  0.00  0.00    +0.000 C 
ATOM      7  C   UNL     1       2.819   3.710  20.757  0.00  0.00    +0.000 C 
ATOM      8  N   UNL     1       3.831   3.401  18.522  0.00  0.00    +0.000 N 
ATOM      9  C   UNL     1       5.138   3.895  18.736  0.00  0.00    +0.000 C 
ATOM     10  O   UNL     1       5.779   3.517  19.721  0.00  0.00    +0.000 OA
ATOM     11  C   UNL     1       2.717   3.835  17.602  0.00  0.00    +0.000 C 
ENDROOT
BRANCH   9  12
ATOM     12  C   UNL     1       5.745   4.929  17.928  0.00  0.00    +0.000 A 
ATOM     13  C   UNL     1       5.876   5.142  16.551  0.00  0.00    +0.000 A 
ATOM     14  N   UNL     1       6.582   6.244  16.262  0.00  0.00    +0.000 NA
ATOM     15  N   UNL     1       6.897   6.749  17.472  0.00  0.00    +0.000 N 
ATOM     16  C   UNL     1       7.710   7.933  17.592  0.00  0.00    +0.000 C 
ATOM     17  C   UNL     1       6.392   6.018  18.496  0.00  0.00    +0.000 A 
ENDBRANCH   9  12
BRANCH   1  18
ATOM     18  C   UNL     1       3.018   6.015  19.744  0.00  0.00    +0.000 C 
BRANCH  18  24
ATOM     19  C   UNL     1       3.537   7.619  16.629  0.00  0.00    +0.000 C 
ATOM     20  C   UNL     1       2.731   7.931  17.853  0.00  0.00    +0.000 A 
ATOM     21  N   UNL     1       2.158   9.166  17.829  0.00  0.00    +0.000 NA
ATOM     22  C   UNL     1       1.633   9.318  19.022  0.00  0.00    +0.000 A 
ATOM     23  N   UNL     1       1.765   8.199  19.785  0.00  0.00    +0.000 N 
ATOM     24  C   UNL     1       2.502   7.280  19.087  0.00  0.00    +0.000 A 
ATOM     25  H   UNL     1       1.442   8.088  20.753  0.00  0.00    +0.000 HD
ENDBRANCH  18  24
ENDBRANCH   1  18
TORSDOF 3
ENDMDL
