MODEL 1
REMARK VINA RESULT:      -7.9      0.000      0.000
REMARK  Name = 
REMARK  3 active torsions:
REMARK  status: ('A' for Active; 'I' for Inactive)
REMARK    1  A    between atoms: C_1  and  C_2
REMARK    2  A    between atoms: C_27  and  C_28
REMARK    3  A    between atoms: C_30  and  C_31
REMARK                            x       y       z     vdW  Elec       q    Type
REMARK                         _______ _______ _______ _____ _____    ______ ____
ROOT
ATOM      1  C   UNL     1       1.629   9.597  17.693  0.00  0.00    +0.000 C 
ATOM      2  C   UNL     1       0.987   9.571  19.036  0.00  0.00    +0.000 A 
ATOM      3  N   UNL     1       1.288   8.567  19.915  0.00  0.00    +0.000 NA
ATOM      4  C   UNL     1       0.620   8.945  21.009  0.00  0.00    +0.000 A 
ATOM      5  N   UNL     1       0.018  10.172  20.830  0.00  0.00    +0.000 N 
ATOM      6  C   UNL     1      -0.689  10.972  21.827  0.00  0.00    +0.000 A 
ATOM      7  N   UNL     1      -0.615  10.677  23.131  0.00  0.00    +0.000 NA
ATOM      8  O   UNL     1      -1.206  11.779  23.803  0.00  0.00    +0.000 OA
ATOM      9  C   UNL     1      -1.709  12.696  22.894  0.00  0.00    +0.000 A 
ATOM     10  C   UNL     1      -2.416  13.984  23.136  0.00  0.00    +0.000 A 
ATOM     11  F   UNL     1      -2.559  14.404  24.401  0.00  0.00    +0.000 F 
ATOM     12  C   UNL     1      -3.118  14.565  22.055  0.00  0.00    +0.000 A 
ATOM     13  C   UNL     1      -3.176  13.514  21.029  0.00  0.00    +0.000 A 
ATOM     14  C   UNL     1      -2.188  12.639  20.570  0.00  0.00    +0.000 A 
ATOM     15  C   UNL     1      -1.500  12.116  21.636  0.00  0.00    +0.000 A 
ATOM     16  C   UNL     1      -4.613  12.992  20.791  0.00  0.00    +0.000 C 
ATOM     17  C   UNL     1      -5.507  14.022  21.444  0.00  0.00    +0.000 C 
ATOM     18  C   UNL     1      -5.470  13.977  23.146  0.00  0.00    +0.000 C 
ATOM     19  O   UNL     1      -5.287  14.909  23.966  0.00  0.00    +0.000 OA
ATOM     20  N   UNL     1      -5.811  12.834  23.747  0.00  0.00    +0.000 N 
ATOM     21  C   UNL     1      -7.059  12.469  23.412  0.00  0.00    +0.000 C 
ATOM     22  O   UNL     1      -7.915  12.192  24.245  0.00  0.00    +0.000 OA
ATOM     23  N   UNL     1      -7.378  12.571  22.079  0.00  0.00    +0.000 N 
ATOM     24  C   UNL     1      -6.893  13.505  21.160  0.00  0.00    +0.000 C 
ATOM     25  O   UNL     1      -7.547  13.751  20.158  0.00  0.00    +0.000 OA
ATOM     26  C   UNL     1      -4.740  15.237  20.647  0.00  0.00    +0.000 C 
ATOM     27  C   UNL     1      -5.349  16.137  19.605  0.00  0.00    +0.000 C 
ATOM     28  C   UNL     1      -4.615  17.458  19.279  0.00  0.00    +0.000 C 
ATOM     29  O   UNL     1      -6.656  16.294  20.019  0.00  0.00    +0.000 OA
ATOM     30  C   UNL     1      -6.690  16.953  21.282  0.00  0.00    +0.000 C 
ATOM     31  C   UNL     1      -7.303  18.296  20.838  0.00  0.00    +0.000 C 
ATOM     32  C   UNL     1      -5.255  16.856  22.286  0.00  0.00    +0.000 C 
ATOM     33  N   UNL     1      -4.019  15.811  21.752  0.00  0.00    +0.000 N 
ATOM     34  N   UNL     1       0.156  10.522  19.500  0.00  0.00    +0.000 NA
ATOM     35  H   UNL     1      -5.124  12.110  23.640  0.00  0.00    +0.000 HD
ATOM     36  H   UNL     1      -8.337  12.303  21.905  0.00  0.00    +0.000 HD
ENDROOT
TORSDOF 0
ENDMDL
MODEL 2
REMARK VINA RESULT:      -7.6     11.048     13.264
REMARK  Name = 
REMARK  3 active torsions:
REMARK  status: ('A' for Active; 'I' for Inactive)
REMARK    1  A    between atoms: C_1  and  C_2
REMARK    2  A    between atoms: C_27  and  C_28
REMARK    3  A    between atoms: C_30  and  C_31
REMARK                            x       y       z     vdW  Elec       q    Type
REMARK                         _______ _______ _______ _____ _____    ______ ____
ROOT
ATOM      1  C   UNL     1       4.254   9.925  27.129  0.00  0.00    +0.000 C 
ATOM      2  C   UNL     1       4.645  11.343  26.905  0.00  0.00    +0.000 A 
ATOM      3  N   UNL     1       4.185  12.319  27.746  0.00  0.00    +0.000 NA
ATOM      4  C   UNL     1       4.825  13.401  27.295  0.00  0.00    +0.000 A 
ATOM      5  N   UNL     1       5.706  13.079  26.286  0.00  0.00    +0.000 N 
ATOM      6  C   UNL     1       6.673  13.958  25.631  0.00  0.00    +0.000 A 
ATOM      7  N   UNL     1       6.965  15.163  26.136  0.00  0.00    +0.000 NA
ATOM      8  O   UNL     1       8.089  15.619  25.398  0.00  0.00    +0.000 OA
ATOM      9  C   UNL     1       8.417  14.721  24.395  0.00  0.00    +0.000 A 
ATOM     10  C   UNL     1       9.503  14.785  23.379  0.00  0.00    +0.000 A 
ATOM     11  F   UNL     1      10.364  15.811  23.433  0.00  0.00    +0.000 F 
ATOM     12  C   UNL     1       9.418  13.916  22.267  0.00  0.00    +0.000 A 
ATOM     13  C   UNL     1       8.053  13.374  22.309  0.00  0.00    +0.000 A 
ATOM     14  C   UNL     1       7.304  12.885  23.382  0.00  0.00    +0.000 A 
ATOM     15  C   UNL     1       7.430  13.728  24.458  0.00  0.00    +0.000 A 
ATOM     16  C   UNL     1       7.181  13.862  21.128  0.00  0.00    +0.000 C 
ATOM     17  C   UNL     1       8.169  14.436  20.136  0.00  0.00    +0.000 C 
ATOM     18  C   UNL     1       8.838  15.924  20.624  0.00  0.00    +0.000 C 
ATOM     19  O   UNL     1      10.040  16.278  20.683  0.00  0.00    +0.000 OA
ATOM     20  N   UNL     1       8.001  16.937  20.862  0.00  0.00    +0.000 N 
ATOM     21  C   UNL     1       7.268  17.220  19.773  0.00  0.00    +0.000 C 
ATOM     22  O   UNL     1       7.181  18.352  19.308  0.00  0.00    +0.000 OA
ATOM     23  N   UNL     1       6.740  16.141  19.105  0.00  0.00    +0.000 N 
ATOM     24  C   UNL     1       7.293  14.863  18.987  0.00  0.00    +0.000 C 
ATOM     25  O   UNL     1       6.956  14.151  18.053  0.00  0.00    +0.000 OA
ATOM     26  C   UNL     1       9.081  13.072  20.208  0.00  0.00    +0.000 C 
ATOM     27  C   UNL     1       9.316  12.102  19.082  0.00  0.00    +0.000 C 
ATOM     28  C   UNL     1      10.510  11.127  19.210  0.00  0.00    +0.000 C 
ATOM     29  O   UNL     1       9.342  12.896  17.954  0.00  0.00    +0.000 OA
ATOM     30  C   UNL     1      10.438  13.803  18.024  0.00  0.00    +0.000 C 
ATOM     31  C   UNL     1      11.311  13.217  16.897  0.00  0.00    +0.000 C 
ATOM     32  C   UNL     1      11.078  14.182  19.613  0.00  0.00    +0.000 C 
ATOM     33  N   UNL     1      10.201  13.589  20.949  0.00  0.00    +0.000 N 
ATOM     34  N   UNL     1       5.498  11.755  25.948  0.00  0.00    +0.000 NA
ATOM     35  H   UNL     1       7.464  16.819  21.702  0.00  0.00    +0.000 HD
ATOM     36  H   UNL     1       6.224  16.428  18.285  0.00  0.00    +0.000 HD
ENDROOT
TORSDOF 0
ENDMDL
MODEL 3
REMARK VINA RESULT:      -7.6     11.923     14.042
REMARK  Name = 
REMARK  3 active torsions:
REMARK  status: ('A' for Active; 'I' for Inactive)
REMARK    1  A    between atoms: C_1  and  C_2
REMARK    2  A    between atoms: C_27  and  C_28
REMARK    3  A    between atoms: C_30  and  C_31
REMARK                            x       y       z     vdW  Elec       q    Type
REMARK                         _______ _______ _______ _____ _____    ______ ____
ROOT
ATOM      1  C   UNL     1       6.465  10.590  27.736  0.00  0.00    +0.000 C 
ATOM      2  C   UNL     1       6.487  11.988  27.229  0.00  0.00    +0.000 A 
ATOM      3  N   UNL     1       5.833  12.974  27.917  0.00  0.00    +0.000 NA
ATOM      4  C   UNL     1       6.170  14.067  27.227  0.00  0.00    +0.000 A 
ATOM      5  N   UNL     1       7.065  13.771  26.222  0.00  0.00    +0.000 N 
ATOM      6  C   UNL     1       7.760  14.706  25.341  0.00  0.00    +0.000 A 
ATOM      7  N   UNL     1       7.766  16.021  25.595  0.00  0.00    +0.000 NA
ATOM      8  O   UNL     1       8.714  16.575  24.696  0.00  0.00    +0.000 OA
ATOM      9  C   UNL     1       9.215  15.602  23.847  0.00  0.00    +0.000 A 
ATOM     10  C   UNL     1      10.212  15.719  22.748  0.00  0.00    +0.000 A 
ATOM     11  F   UNL     1      10.797  16.908  22.545  0.00  0.00    +0.000 F 
ATOM     12  C   UNL     1      10.302  14.656  21.821  0.00  0.00    +0.000 A 
ATOM     13  C   UNL     1       9.115  13.828  22.074  0.00  0.00    +0.000 A 
ATOM     14  C   UNL     1       8.550  13.395  23.277  0.00  0.00    +0.000 A 
ATOM     15  C   UNL     1       8.505  14.437  24.169  0.00  0.00    +0.000 A 
ATOM     16  C   UNL     1       8.105  13.859  20.902  0.00  0.00    +0.000 C 
ATOM     17  C   UNL     1       8.883  14.444  19.744  0.00  0.00    +0.000 C 
ATOM     18  C   UNL     1       9.184  16.113  19.900  0.00  0.00    +0.000 C 
ATOM     19  O   UNL     1      10.264  16.743  19.792  0.00  0.00    +0.000 OA
ATOM     20  N   UNL     1       8.134  16.928  20.021  0.00  0.00    +0.000 N 
ATOM     21  C   UNL     1       7.313  16.815  18.964  0.00  0.00    +0.000 C 
ATOM     22  O   UNL     1       6.934  17.782  18.313  0.00  0.00    +0.000 OA
ATOM     23  N   UNL     1       7.042  15.534  18.548  0.00  0.00    +0.000 N 
ATOM     24  C   UNL     1       7.886  14.423  18.615  0.00  0.00    +0.000 C 
ATOM     25  O   UNL     1       7.699  13.484  17.855  0.00  0.00    +0.000 OA
ATOM     26  C   UNL     1      10.104  13.372  19.983  0.00  0.00    +0.000 C 
ATOM     27  C   UNL     1      10.528  12.284  19.033  0.00  0.00    +0.000 C 
ATOM     28  C   UNL     1      11.929  11.660  19.233  0.00  0.00    +0.000 C 
ATOM     29  O   UNL     1      10.316  12.827  17.783  0.00  0.00    +0.000 OA
ATOM     30  C   UNL     1      11.157  13.962  17.597  0.00  0.00    +0.000 C 
ATOM     31  C   UNL     1      12.104  13.388  16.524  0.00  0.00    +0.000 C 
ATOM     32  C   UNL     1      11.743  14.781  19.033  0.00  0.00    +0.000 C 
ATOM     33  N   UNL     1      11.091  14.271  20.523  0.00  0.00    +0.000 N 
ATOM     34  N   UNL     1       7.175  12.395  26.146  0.00  0.00    +0.000 NA
ATOM     35  H   UNL     1       7.675  16.854  20.911  0.00  0.00    +0.000 HD
ATOM     36  H   UNL     1       6.440  15.527  17.735  0.00  0.00    +0.000 HD
ENDROOT
TORSDOF 0
ENDMDL
MODEL 4
REMARK VINA RESULT:      -7.3      5.272      7.387
REMARK  Name = 
REMARK  3 active torsions:
REMARK  status: ('A' for Active; 'I' for Inactive)
REMARK    1  A    between atoms: C_1  and  C_2
REMARK    2  A    between atoms: C_27  and  C_28
REMARK    3  A    between atoms: C_30  and  C_31
REMARK                            x       y       z     vdW  Elec       q    Type
REMARK                         _______ _______ _______ _____ _____    ______ ____
ROOT
ATOM      1  C   UNL     1      -3.132  10.106  14.109  0.00  0.00    +0.000 C 
ATOM      2  C   UNL     1      -3.352  10.643  15.479  0.00  0.00    +0.000 A 
ATOM      3  N   UNL     1      -4.550  10.438  16.107  0.00  0.00    +0.000 NA
ATOM      4  C   UNL     1      -4.322  10.957  17.317  0.00  0.00    +0.000 A 
ATOM      5  N   UNL     1      -3.016  11.373  17.447  0.00  0.00    +0.000 N 
ATOM      6  C   UNL     1      -2.354  11.873  18.651  0.00  0.00    +0.000 A 
ATOM      7  N   UNL     1      -2.924  11.749  19.855  0.00  0.00    +0.000 NA
ATOM      8  O   UNL     1      -1.918  12.112  20.789  0.00  0.00    +0.000 OA
ATOM      9  C   UNL     1      -0.770  12.533  20.137  0.00  0.00    +0.000 A 
ATOM     10  C   UNL     1       0.522  13.011  20.699  0.00  0.00    +0.000 A 
ATOM     11  F   UNL     1       0.681  12.995  22.030  0.00  0.00    +0.000 F 
ATOM     12  C   UNL     1       1.407  13.693  19.833  0.00  0.00    +0.000 A 
ATOM     13  C   UNL     1       0.614  13.988  18.632  0.00  0.00    +0.000 A 
ATOM     14  C   UNL     1      -0.272  13.184  17.909  0.00  0.00    +0.000 A 
ATOM     15  C   UNL     1      -1.096  12.509  18.774  0.00  0.00    +0.000 A 
ATOM     16  C   UNL     1       0.354  15.502  18.446  0.00  0.00    +0.000 C 
ATOM     17  C   UNL     1       1.336  16.176  19.379  0.00  0.00    +0.000 C 
ATOM     18  C   UNL     1       0.929  16.021  21.024  0.00  0.00    +0.000 C 
ATOM     19  O   UNL     1       1.634  15.636  21.989  0.00  0.00    +0.000 OA
ATOM     20  N   UNL     1      -0.257  16.490  21.421  0.00  0.00    +0.000 N 
ATOM     21  C   UNL     1      -0.370  17.800  21.151  0.00  0.00    +0.000 C 
ATOM     22  O   UNL     1      -0.696  18.625  21.998  0.00  0.00    +0.000 OA
ATOM     23  N   UNL     1       0.053  18.197  19.905  0.00  0.00    +0.000 N 
ATOM     24  C   UNL     1       1.084  17.642  19.143  0.00  0.00    +0.000 C 
ATOM     25  O   UNL     1       1.622  18.322  18.283  0.00  0.00    +0.000 OA
ATOM     26  C   UNL     1       2.575  15.291  18.761  0.00  0.00    +0.000 C 
ATOM     27  C   UNL     1       3.749  15.828  17.987  0.00  0.00    +0.000 C 
ATOM     28  C   UNL     1       4.996  14.924  17.853  0.00  0.00    +0.000 C 
ATOM     29  O   UNL     1       3.992  17.061  18.556  0.00  0.00    +0.000 OA
ATOM     30  C   UNL     1       4.369  16.899  19.921  0.00  0.00    +0.000 C 
ATOM     31  C   UNL     1       5.846  17.328  19.817  0.00  0.00    +0.000 C 
ATOM     32  C   UNL     1       3.868  15.427  20.732  0.00  0.00    +0.000 C 
ATOM     33  N   UNL     1       2.800  14.410  19.877  0.00  0.00    +0.000 N 
ATOM     34  N   UNL     1      -2.415  11.281  16.205  0.00  0.00    +0.000 NA
ATOM     35  H   UNL     1      -1.029  15.933  21.102  0.00  0.00    +0.000 HD
ATOM     36  H   UNL     1      -0.039  19.196  19.783  0.00  0.00    +0.000 HD
ENDROOT
TORSDOF 0
ENDMDL
MODEL 5
REMARK VINA RESULT:      -7.1      6.791     13.051
REMARK  Name = 
REMARK  3 active torsions:
REMARK  status: ('A' for Active; 'I' for Inactive)
REMARK    1  A    between atoms: C_1  and  C_2
REMARK    2  A    between atoms: C_27  and  C_28
REMARK    3  A    between atoms: C_30  and  C_31
REMARK                            x       y       z     vdW  Elec       q    Type
REMARK                         _______ _______ _______ _____ _____    ______ ____
ROOT
ATOM      1  C   UNL     1      -0.940  12.089  18.954  0.00  0.00    +0.000 C 
ATOM      2  C   UNL     1      -0.247  11.073  19.791  0.00  0.00    +0.000 A 
ATOM      3  N   UNL     1      -0.424  11.072  21.148  0.00  0.00    +0.000 NA
ATOM      4  C   UNL     1       0.250   9.979  21.516  0.00  0.00    +0.000 A 
ATOM      5  N   UNL     1       0.735   9.295  20.423  0.00  0.00    +0.000 N 
ATOM      6  C   UNL     1       1.407   7.998  20.407  0.00  0.00    +0.000 A 
ATOM      7  N   UNL     1       1.409   7.207  21.487  0.00  0.00    +0.000 NA
ATOM      8  O   UNL     1       1.927   5.962  21.043  0.00  0.00    +0.000 OA
ATOM      9  C   UNL     1       2.313   6.036  19.714  0.00  0.00    +0.000 A 
ATOM     10  C   UNL     1       2.912   4.992  18.839  0.00  0.00    +0.000 A 
ATOM     11  F   UNL     1       3.067   3.757  19.336  0.00  0.00    +0.000 F 
ATOM     12  C   UNL     1       3.519   5.410  17.632  0.00  0.00    +0.000 A 
ATOM     13  C   UNL     1       3.629   6.871  17.747  0.00  0.00    +0.000 A 
ATOM     14  C   UNL     1       2.705   7.818  18.196  0.00  0.00    +0.000 A 
ATOM     15  C   UNL     1       2.107   7.373  19.348  0.00  0.00    +0.000 A 
ATOM     16  C   UNL     1       5.096   7.352  17.853  0.00  0.00    +0.000 C 
ATOM     17  C   UNL     1       5.921   6.159  17.423  0.00  0.00    +0.000 C 
ATOM     18  C   UNL     1       5.953   4.903  18.571  0.00  0.00    +0.000 C 
ATOM     19  O   UNL     1       5.722   3.679  18.423  0.00  0.00    +0.000 OA
ATOM     20  N   UNL     1       6.417   5.185  19.792  0.00  0.00    +0.000 N 
ATOM     21  C   UNL     1       7.677   5.643  19.733  0.00  0.00    +0.000 C 
ATOM     22  O   UNL     1       8.586   5.169  20.407  0.00  0.00    +0.000 OA
ATOM     23  N   UNL     1       7.935   6.575  18.757  0.00  0.00    +0.000 N 
ATOM     24  C   UNL     1       7.334   6.674  17.499  0.00  0.00    +0.000 C 
ATOM     25  O   UNL     1       7.926   7.252  16.600  0.00  0.00    +0.000 OA
ATOM     26  C   UNL     1       5.020   5.991  16.059  0.00  0.00    +0.000 C 
ATOM     27  C   UNL     1       5.507   6.173  14.646  0.00  0.00    +0.000 C 
ATOM     28  C   UNL     1       4.648   5.578  13.507  0.00  0.00    +0.000 C 
ATOM     29  O   UNL     1       6.810   5.721  14.678  0.00  0.00    +0.000 OA
ATOM     30  C   UNL     1       6.835   4.334  15.005  0.00  0.00    +0.000 C 
ATOM     31  C   UNL     1       7.310   3.775  13.649  0.00  0.00    +0.000 C 
ATOM     32  C   UNL     1       5.454   3.678  15.865  0.00  0.00    +0.000 C 
ATOM     33  N   UNL     1       4.294   4.800  16.414  0.00  0.00    +0.000 N 
ATOM     34  N   UNL     1       0.516  10.077  19.303  0.00  0.00    +0.000 NA
ATOM     35  H   UNL     1       5.792   5.759  20.329  0.00  0.00    +0.000 HD
ATOM     36  H   UNL     1       8.906   6.854  18.757  0.00  0.00    +0.000 HD
ENDROOT
TORSDOF 0
ENDMDL
MODEL 6
REMARK VINA RESULT:      -7.0      3.797      6.556
REMARK  Name = 
REMARK  3 active torsions:
REMARK  status: ('A' for Active; 'I' for Inactive)
REMARK    1  A    between atoms: C_1  and  C_2
REMARK    2  A    between atoms: C_27  and  C_28
REMARK    3  A    between atoms: C_30  and  C_31
REMARK                            x       y       z     vdW  Elec       q    Type
REMARK                         _______ _______ _______ _____ _____    ______ ____
ROOT
ATOM      1  C   UNL     1       2.583   4.278  21.575  0.00  0.00    +0.000 C 
ATOM      2  C   UNL     1       2.706   5.304  20.504  0.00  0.00    +0.000 A 
ATOM      3  N   UNL     1       3.496   5.059  19.413  0.00  0.00    +0.000 NA
ATOM      4  C   UNL     1       3.262   6.133  18.654  0.00  0.00    +0.000 A 
ATOM      5  N   UNL     1       2.303   6.947  19.215  0.00  0.00    +0.000 N 
ATOM      6  C   UNL     1       1.690   8.138  18.632  0.00  0.00    +0.000 A 
ATOM      7  N   UNL     1       1.846   8.431  17.335  0.00  0.00    +0.000 NA
ATOM      8  O   UNL     1       0.936   9.490  17.075  0.00  0.00    +0.000 OA
ATOM      9  C   UNL     1       0.294   9.884  18.237  0.00  0.00    +0.000 A 
ATOM     10  C   UNL     1      -0.723  10.950  18.447  0.00  0.00    +0.000 A 
ATOM     11  F   UNL     1      -1.172  11.621  17.377  0.00  0.00    +0.000 F 
ATOM     12  C   UNL     1      -0.970  11.375  19.773  0.00  0.00    +0.000 A 
ATOM     13  C   UNL     1       0.121  10.796  20.569  0.00  0.00    +0.000 A 
ATOM     14  C   UNL     1       0.676   9.514  20.551  0.00  0.00    +0.000 A 
ATOM     15  C   UNL     1       0.875   9.113  19.253  0.00  0.00    +0.000 A 
ATOM     16  C   UNL     1       1.083  11.870  21.131  0.00  0.00    +0.000 C 
ATOM     17  C   UNL     1       0.337  13.176  20.967  0.00  0.00    +0.000 C 
ATOM     18  C   UNL     1       0.238  13.705  19.352  0.00  0.00    +0.000 C 
ATOM     19  O   UNL     1      -0.764  14.070  18.690  0.00  0.00    +0.000 OA
ATOM     20  N   UNL     1       1.380  13.907  18.690  0.00  0.00    +0.000 N 
ATOM     21  C   UNL     1       2.142  14.820  19.315  0.00  0.00    +0.000 C 
ATOM     22  O   UNL     1       2.608  15.799  18.742  0.00  0.00    +0.000 OA
ATOM     23  N   UNL     1       2.247  14.684  20.679  0.00  0.00    +0.000 N 
ATOM     24  C   UNL     1       1.281  14.188  21.558  0.00  0.00    +0.000 C 
ATOM     25  O   UNL     1       1.329  14.506  22.737  0.00  0.00    +0.000 OA
ATOM     26  C   UNL     1      -0.992  12.543  21.697  0.00  0.00    +0.000 C 
ATOM     27  C   UNL     1      -1.575  12.983  23.014  0.00  0.00    +0.000 C 
ATOM     28  C   UNL     1      -3.030  12.567  23.330  0.00  0.00    +0.000 C 
ATOM     29  O   UNL     1      -1.347  14.343  23.045  0.00  0.00    +0.000 OA
ATOM     30  C   UNL     1      -2.056  14.978  21.985  0.00  0.00    +0.000 C 
ATOM     31  C   UNL     1      -3.103  15.744  22.819  0.00  0.00    +0.000 C 
ATOM     32  C   UNL     1      -2.489  13.999  20.596  0.00  0.00    +0.000 C 
ATOM     33  N   UNL     1      -1.846  12.421  20.545  0.00  0.00    +0.000 N 
ATOM     34  N   UNL     1       2.030   6.467  20.483  0.00  0.00    +0.000 NA
ATOM     35  H   UNL     1       1.860  13.056  18.459  0.00  0.00    +0.000 HD
ATOM     36  H   UNL     1       2.813  15.418  21.082  0.00  0.00    +0.000 HD
ENDROOT
TORSDOF 0
ENDMDL
MODEL 7
REMARK VINA RESULT:      -7.0      6.169      8.092
REMARK  Name = 
REMARK  3 active torsions:
REMARK  status: ('A' for Active; 'I' for Inactive)
REMARK    1  A    between atoms: C_1  and  C_2
REMARK    2  A    between atoms: C_27  and  C_28
REMARK    3  A    between atoms: C_30  and  C_31
REMARK                            x       y       z     vdW  Elec       q    Type
REMARK                         _______ _______ _______ _____ _____    ______ ____
ROOT
ATOM      1  C   UNL     1       9.818  14.800  21.368  0.00  0.00    +0.000 C 
ATOM      2  C   UNL     1       8.639  15.708  21.357  0.00  0.00    +0.000 A 
ATOM      3  N   UNL     1       8.781  17.014  21.743  0.00  0.00    +0.000 NA
ATOM      4  C   UNL     1       7.566  17.511  21.496  0.00  0.00    +0.000 A 
ATOM      5  N   UNL     1       6.751  16.573  20.899  0.00  0.00    +0.000 N 
ATOM      6  C   UNL     1       5.405  16.770  20.366  0.00  0.00    +0.000 A 
ATOM      7  N   UNL     1       4.903  17.999  20.192  0.00  0.00    +0.000 NA
ATOM      8  O   UNL     1       3.707  17.817  19.449  0.00  0.00    +0.000 OA
ATOM      9  C   UNL     1       3.452  16.470  19.250  0.00  0.00    +0.000 A 
ATOM     10  C   UNL     1       2.320  15.811  18.543  0.00  0.00    +0.000 A 
ATOM     11  F   UNL     1       1.414  16.587  17.932  0.00  0.00    +0.000 F 
ATOM     12  C   UNL     1       2.115  14.431  18.768  0.00  0.00    +0.000 A 
ATOM     13  C   UNL     1       2.964  14.102  19.921  0.00  0.00    +0.000 A 
ATOM     14  C   UNL     1       4.282  14.464  20.210  0.00  0.00    +0.000 A 
ATOM     15  C   UNL     1       4.462  15.800  19.952  0.00  0.00    +0.000 A 
ATOM     16  C   UNL     1       2.143  13.730  21.179  0.00  0.00    +0.000 C 
ATOM     17  C   UNL     1       0.744  13.476  20.661  0.00  0.00    +0.000 C 
ATOM     18  C   UNL     1      -0.078  14.893  20.197  0.00  0.00    +0.000 C 
ATOM     19  O   UNL     1      -0.683  15.152  19.129  0.00  0.00    +0.000 OA
ATOM     20  N   UNL     1      -0.249  15.845  21.118  0.00  0.00    +0.000 N 
ATOM     21  C   UNL     1      -0.926  15.374  22.177  0.00  0.00    +0.000 C 
ATOM     22  O   UNL     1      -1.925  15.928  22.624  0.00  0.00    +0.000 OA
ATOM     23  N   UNL     1      -0.533  14.143  22.644  0.00  0.00    +0.000 N 
ATOM     24  C   UNL     1      -0.014  13.080  21.901  0.00  0.00    +0.000 C 
ATOM     25  O   UNL     1      -0.103  11.944  22.342  0.00  0.00    +0.000 OA
ATOM     26  C   UNL     1       1.323  12.458  19.509  0.00  0.00    +0.000 C 
ATOM     27  C   UNL     1       1.059  10.979  19.418  0.00  0.00    +0.000 C 
ATOM     28  C   UNL     1       1.334  10.281  18.066  0.00  0.00    +0.000 C 
ATOM     29  O   UNL     1      -0.232  10.839  19.883  0.00  0.00    +0.000 OA
ATOM     30  C   UNL     1      -1.136  11.528  19.024  0.00  0.00    +0.000 C 
ATOM     31  C   UNL     1      -1.865  10.313  18.416  0.00  0.00    +0.000 C 
ATOM     32  C   UNL     1      -0.489  12.829  18.042  0.00  0.00    +0.000 C 
ATOM     33  N   UNL     1       1.123  13.291  18.352  0.00  0.00    +0.000 N 
ATOM     34  N   UNL     1       7.414  15.360  20.922  0.00  0.00    +0.000 NA
ATOM     35  H   UNL     1       0.601  16.327  21.351  0.00  0.00    +0.000 HD
ATOM     36  H   UNL     1      -1.102  13.843  23.424  0.00  0.00    +0.000 HD
ENDROOT
TORSDOF 0
ENDMDL
MODEL 8
REMARK VINA RESULT:      -6.8      3.280      5.812
REMARK  Name = 
REMARK  3 active torsions:
REMARK  status: ('A' for Active; 'I' for Inactive)
REMARK    1  A    between atoms: C_1  and  C_2
REMARK    2  A    between atoms: C_27  and  C_28
REMARK    3  A    between atoms: C_30  and  C_31
REMARK                            x       y       z     vdW  Elec       q    Type
REMARK                         _______ _______ _______ _____ _____    ______ ____
ROOT
ATOM      1  C   UNL     1       1.800   4.524  21.200  0.00  0.00    +0.000 C 
ATOM      2  C   UNL     1       2.164   5.733  20.413  0.00  0.00    +0.000 A 
ATOM      3  N   UNL     1       3.242   5.700  19.571  0.00  0.00    +0.000 NA
ATOM      4  C   UNL     1       3.174   6.898  18.984  0.00  0.00    +0.000 A 
ATOM      5  N   UNL     1       2.051   7.590  19.382  0.00  0.00    +0.000 N 
ATOM      6  C   UNL     1       1.563   8.869  18.872  0.00  0.00    +0.000 A 
ATOM      7  N   UNL     1       2.063   9.402  17.751  0.00  0.00    +0.000 NA
ATOM      8  O   UNL     1       1.207  10.490  17.435  0.00  0.00    +0.000 OA
ATOM      9  C   UNL     1       0.242  10.657  18.415  0.00  0.00    +0.000 A 
ATOM     10  C   UNL     1      -0.850  11.664  18.512  0.00  0.00    +0.000 A 
ATOM     11  F   UNL     1      -1.015  12.524  17.497  0.00  0.00    +0.000 F 
ATOM     12  C   UNL     1      -1.485  11.830  19.764  0.00  0.00    +0.000 A 
ATOM     13  C   UNL     1      -0.634  11.112  20.722  0.00  0.00    +0.000 A 
ATOM     14  C   UNL     1      -0.026   9.857  20.634  0.00  0.00    +0.000 A 
ATOM     15  C   UNL     1       0.553   9.709  19.398  0.00  0.00    +0.000 A 
ATOM     16  C   UNL     1       0.069  12.062  21.722  0.00  0.00    +0.000 C 
ATOM     17  C   UNL     1      -0.671  13.374  21.588  0.00  0.00    +0.000 C 
ATOM     18  C   UNL     1      -0.338  14.199  20.137  0.00  0.00    +0.000 C 
ATOM     19  O   UNL     1      -1.131  14.681  19.292  0.00  0.00    +0.000 OA
ATOM     20  N   UNL     1       0.932  14.523  19.880  0.00  0.00    +0.000 N 
ATOM     21  C   UNL     1       1.434  15.302  20.852  0.00  0.00    +0.000 C 
ATOM     22  O   UNL     1       1.988  16.372  20.624  0.00  0.00    +0.000 OA
ATOM     23  N   UNL     1       1.156  14.912  22.140  0.00  0.00    +0.000 N 
ATOM     24  C   UNL     1       0.010  14.258  22.599  0.00  0.00    +0.000 C 
ATOM     25  O   UNL     1      -0.295  14.347  23.779  0.00  0.00    +0.000 OA
ATOM     26  C   UNL     1      -2.115  12.613  21.778  0.00  0.00    +0.000 C 
ATOM     27  C   UNL     1      -3.069  12.796  22.928  0.00  0.00    +0.000 C 
ATOM     28  C   UNL     1      -4.529  12.327  22.731  0.00  0.00    +0.000 C 
ATOM     29  O   UNL     1      -2.935  14.126  23.268  0.00  0.00    +0.000 OA
ATOM     30  C   UNL     1      -3.350  14.950  22.182  0.00  0.00    +0.000 C 
ATOM     31  C   UNL     1      -4.630  15.543  22.804  0.00  0.00    +0.000 C 
ATOM     32  C   UNL     1      -3.318  14.250  20.574  0.00  0.00    +0.000 C 
ATOM     33  N   UNL     1      -2.600  12.711  20.426  0.00  0.00    +0.000 N 
ATOM     34  N   UNL     1       1.458   6.879  20.409  0.00  0.00    +0.000 NA
ATOM     35  H   UNL     1       1.503  13.731  19.647  0.00  0.00    +0.000 HD
ATOM     36  H   UNL     1       1.544  15.556  22.815  0.00  0.00    +0.000 HD
ENDROOT
TORSDOF 0
ENDMDL
MODEL 9
REMARK VINA RESULT:      -6.8      6.554      8.396
REMARK  Name = 
REMARK  3 active torsions:
REMARK  status: ('A' for Active; 'I' for Inactive)
REMARK    1  A    between atoms: C_1  and  C_2
REMARK    2  A    between atoms: C_27  and  C_28
REMARK    3  A    between atoms: C_30  and  C_31
REMARK                            x       y       z     vdW  Elec       q    Type
REMARK                         _______ _______ _______ _____ _____    ______ ____
ROOT
ATOM      1  C   UNL     1      10.248  13.481  21.086  0.00  0.00    +0.000 C 
ATOM      2  C   UNL     1       9.363  14.658  20.872  0.00  0.00    +0.000 A 
ATOM      3  N   UNL     1       9.884  15.923  20.933  0.00  0.00    +0.000 NA
ATOM      4  C   UNL     1       8.834  16.673  20.589  0.00  0.00    +0.000 A 
ATOM      5  N   UNL     1       7.751  15.895  20.243  0.00  0.00    +0.000 N 
ATOM      6  C   UNL     1       6.472  16.338  19.693  0.00  0.00    +0.000 A 
ATOM      7  N   UNL     1       6.311  17.586  19.237  0.00  0.00    +0.000 NA
ATOM      8  O   UNL     1       5.056  17.586  18.572  0.00  0.00    +0.000 OA
ATOM      9  C   UNL     1       4.430  16.358  18.703  0.00  0.00    +0.000 A 
ATOM     10  C   UNL     1       3.110  15.904  18.187  0.00  0.00    +0.000 A 
ATOM     11  F   UNL     1       2.404  16.745  17.418  0.00  0.00    +0.000 F 
ATOM     12  C   UNL     1       2.556  14.725  18.736  0.00  0.00    +0.000 A 
ATOM     13  C   UNL     1       3.371  14.438  19.925  0.00  0.00    +0.000 A 
ATOM     14  C   UNL     1       4.756  14.469  20.104  0.00  0.00    +0.000 A 
ATOM     15  C   UNL     1       5.272  15.606  19.533  0.00  0.00    +0.000 A 
ATOM     16  C   UNL     1       2.580  14.607  21.244  0.00  0.00    +0.000 C 
ATOM     17  C   UNL     1       1.130  14.649  20.818  0.00  0.00    +0.000 C 
ATOM     18  C   UNL     1       0.689  16.097  20.039  0.00  0.00    +0.000 C 
ATOM     19  O   UNL     1       0.096  16.268  18.947  0.00  0.00    +0.000 OA
ATOM     20  N   UNL     1       0.856  17.241  20.708  0.00  0.00    +0.000 N 
ATOM     21  C   UNL     1       0.160  17.232  21.856  0.00  0.00    +0.000 C 
ATOM     22  O   UNL     1      -0.613  18.131  22.170  0.00  0.00    +0.000 OA
ATOM     23  N   UNL     1       0.240  16.078  22.599  0.00  0.00    +0.000 N 
ATOM     24  C   UNL     1       0.391  14.773  22.125  0.00  0.00    +0.000 C 
ATOM     25  O   UNL     1       0.031  13.838  22.825  0.00  0.00    +0.000 OA
ATOM     26  C   UNL     1       1.319  13.276  19.935  0.00  0.00    +0.000 C 
ATOM     27  C   UNL     1       0.656  11.951  20.202  0.00  0.00    +0.000 C 
ATOM     28  C   UNL     1       0.626  10.918  19.053  0.00  0.00    +0.000 C 
ATOM     29  O   UNL     1      -0.584  12.290  20.702  0.00  0.00    +0.000 OA
ATOM     30  C   UNL     1      -1.331  12.993  19.714  0.00  0.00    +0.000 C 
ATOM     31  C   UNL     1      -2.408  11.929  19.421  0.00  0.00    +0.000 C 
ATOM     32  C   UNL     1      -0.433  13.803  18.442  0.00  0.00    +0.000 C 
ATOM     33  N   UNL     1       1.262  13.848  18.615  0.00  0.00    +0.000 N 
ATOM     34  N   UNL     1       8.059  14.581  20.546  0.00  0.00    +0.000 NA
ATOM     35  H   UNL     1       1.820  17.503  20.810  0.00  0.00    +0.000 HD
ATOM     36  H   UNL     1      -0.327  16.135  23.434  0.00  0.00    +0.000 HD
ENDROOT
TORSDOF 0
ENDMDL
