MODEL 1
REMARK VINA RESULT:      -7.6      0.000      0.000
REMARK  Name = 
REMARK  7 active torsions:
REMARK  status: ('A' for Active; 'I' for Inactive)
REMARK    1  A    between atoms: C_1  and  O_2
REMARK    2  A    between atoms: O_2  and  C_3
REMARK    3  A    between atoms: C_8  and  C_9
REMARK    4  A    between atoms: C_10  and  C_11
REMARK    5  A    between atoms: C_15  and  C_16
REMARK    6  A    between atoms: C_18  and  SE_19
REMARK    7  A    between atoms: SE_19  and  C_20
REMARK                            x       y       z     vdW  Elec       q    Type
REMARK                         _______ _______ _______ _____ _____    ______ ____
ROOT
ATOM      1  C   UNL     1      -0.531  10.836  22.699  0.00  0.00    +0.000 A 
ATOM      2  C   UNL     1      -0.223   9.669  23.428  0.00  0.00    +0.000 A 
ATOM      3  C   UNL     1       0.453   8.614  22.817  0.00  0.00    +0.000 A 
ATOM      4  C   UNL     1       0.834   8.708  21.476  0.00  0.00    +0.000 A 
ATOM      5  N   UNL     1       1.489   7.671  20.894  0.00  0.00    +0.000 NA
ATOM      6  C   UNL     1       1.865   7.664  19.588  0.00  0.00    +0.000 A 
ATOM      7  C   UNL     1       1.552   8.800  18.814  0.00  0.00    +0.000 A 
ATOM      8  C   UNL     1       0.913   9.907  19.369  0.00  0.00    +0.000 A 
ATOM      9  C   UNL     1       0.528   9.866  20.725  0.00  0.00    +0.000 A 
ATOM     10  C   UNL     1      -0.161  10.921  21.349  0.00  0.00    +0.000 A 
ENDROOT
BRANCH   6  11
ATOM     11  C   UNL     1       2.575   6.457  19.023  0.00  0.00    +0.000 A 
ATOM     12  C   UNL     1       3.528   6.583  17.942  0.00  0.00    +0.000 A 
ATOM     13  C   UNL     1       3.978   7.874  17.283  0.00  0.00    +0.000 C 
ATOM     14  C   UNL     1       4.157   5.438  17.427  0.00  0.00    +0.000 A 
ATOM     15  C   UNL     1       3.879   4.176  17.925  0.00  0.00    +0.000 A 
ATOM     16  C   UNL     1       2.951   4.019  18.936  0.00  0.00    +0.000 A 
ATOM     17  C   UNL     1       2.288   5.122  19.497  0.00  0.00    +0.000 A 
ATOM     18  C   UNL     1       1.237   4.783  20.538  0.00  0.00    +0.000 C 
ENDBRANCH   6  11
BRANCH   1  20
ATOM     19  C   UNL     1      -2.534  12.084  23.286  0.00  0.00    +0.000 C 
ATOM     20  O   UNL     1      -1.168  11.896  23.260  0.00  0.00    +0.000 OA
ENDBRANCH   1  20
BRANCH   8  21
ATOM     21 SE   UNL     1       0.513  11.392  18.176  0.00  0.00    +0.000 Se
BRANCH  21  22
ATOM     22  C   UNL     1      -1.390  11.106  17.902  0.00  0.00    +0.000 A 
ATOM     23  C   UNL     1      -1.851  10.035  17.109  0.00  0.00    +0.000 A 
ATOM     24  C   UNL     1      -3.228   9.773  17.004  0.00  0.00    +0.000 A 
ATOM     25  C   UNL     1      -4.148  10.576  17.685  0.00  0.00    +0.000 A 
ATOM     26  C   UNL     1      -3.694  11.647  18.460  0.00  0.00    +0.000 A 
ATOM     27  C   UNL     1      -2.322  11.909  18.570  0.00  0.00    +0.000 A 
ENDBRANCH  21  22
ENDBRANCH   8  21
TORSDOF 4
ENDMDL
MODEL 2
REMARK VINA RESULT:      -7.5      3.201      7.851
REMARK  Name = 
REMARK  7 active torsions:
REMARK  status: ('A' for Active; 'I' for Inactive)
REMARK    1  A    between atoms: C_1  and  O_2
REMARK    2  A    between atoms: O_2  and  C_3
REMARK    3  A    between atoms: C_8  and  C_9
REMARK    4  A    between atoms: C_10  and  C_11
REMARK    5  A    between atoms: C_15  and  C_16
REMARK    6  A    between atoms: C_18  and  SE_19
REMARK    7  A    between atoms: SE_19  and  C_20
REMARK                            x       y       z     vdW  Elec       q    Type
REMARK                         _______ _______ _______ _____ _____    ______ ____
ROOT
ATOM      1  C   UNL     1       3.102   3.156  19.810  0.00  0.00    +0.000 A 
ATOM      2  C   UNL     1       2.263   3.327  20.930  0.00  0.00    +0.000 A 
ATOM      3  C   UNL     1       1.669   4.563  21.182  0.00  0.00    +0.000 A 
ATOM      4  C   UNL     1       1.897   5.640  20.323  0.00  0.00    +0.000 A 
ATOM      5  N   UNL     1       1.313   6.838  20.584  0.00  0.00    +0.000 NA
ATOM      6  C   UNL     1       1.509   7.946  19.821  0.00  0.00    +0.000 A 
ATOM      7  C   UNL     1       2.362   7.826  18.706  0.00  0.00    +0.000 A 
ATOM      8  C   UNL     1       2.959   6.612  18.371  0.00  0.00    +0.000 A 
ATOM      9  C   UNL     1       2.741   5.491  19.199  0.00  0.00    +0.000 A 
ATOM     10  C   UNL     1       3.341   4.243  18.957  0.00  0.00    +0.000 A 
ENDROOT
BRANCH   6  11
ATOM     11  C   UNL     1       0.830   9.240  20.199  0.00  0.00    +0.000 A 
ATOM     12  C   UNL     1       0.132  10.038  19.215  0.00  0.00    +0.000 A 
ATOM     13  C   UNL     1      -0.062   9.695  17.750  0.00  0.00    +0.000 C 
ATOM     14  C   UNL     1      -0.473  11.248  19.597  0.00  0.00    +0.000 A 
ATOM     15  C   UNL     1      -0.411  11.706  20.901  0.00  0.00    +0.000 A 
ATOM     16  C   UNL     1       0.274  10.982  21.858  0.00  0.00    +0.000 A 
ATOM     17  C   UNL     1       0.900   9.764  21.545  0.00  0.00    +0.000 A 
ATOM     18  C   UNL     1       1.683   9.129  22.678  0.00  0.00    +0.000 C 
ENDBRANCH   6  11
BRANCH   1  20
ATOM     19  C   UNL     1       3.714   1.381  18.265  0.00  0.00    +0.000 C 
ATOM     20  O   UNL     1       3.683   1.965  19.514  0.00  0.00    +0.000 OA
ENDBRANCH   1  20
BRANCH   8  21
ATOM     21 SE   UNL     1       4.142   6.600  16.824  0.00  0.00    +0.000 Se
BRANCH  21  22
ATOM     22  C   UNL     1       5.865   6.747  17.712  0.00  0.00    +0.000 A 
ATOM     23  C   UNL     1       6.311   5.740  18.593  0.00  0.00    +0.000 A 
ATOM     24  C   UNL     1       7.601   5.803  19.146  0.00  0.00    +0.000 A 
ATOM     25  C   UNL     1       8.449   6.868  18.826  0.00  0.00    +0.000 A 
ATOM     26  C   UNL     1       8.004   7.875  17.964  0.00  0.00    +0.000 A 
ATOM     27  C   UNL     1       6.720   7.813  17.408  0.00  0.00    +0.000 A 
ENDBRANCH  21  22
ENDBRANCH   8  21
TORSDOF 4
ENDMDL
MODEL 3
REMARK VINA RESULT:      -7.5      0.315      1.739
REMARK  Name = 
REMARK  7 active torsions:
REMARK  status: ('A' for Active; 'I' for Inactive)
REMARK    1  A    between atoms: C_1  and  O_2
REMARK    2  A    between atoms: O_2  and  C_3
REMARK    3  A    between atoms: C_8  and  C_9
REMARK    4  A    between atoms: C_10  and  C_11
REMARK    5  A    between atoms: C_15  and  C_16
REMARK    6  A    between atoms: C_18  and  SE_19
REMARK    7  A    between atoms: SE_19  and  C_20
REMARK                            x       y       z     vdW  Elec       q    Type
REMARK                         _______ _______ _______ _____ _____    ______ ____
ROOT
ATOM      1  C   UNL     1      -0.497  10.871  22.722  0.00  0.00    +0.000 A 
ATOM      2  C   UNL     1      -0.190   9.697  23.439  0.00  0.00    +0.000 A 
ATOM      3  C   UNL     1       0.463   8.638  22.810  0.00  0.00    +0.000 A 
ATOM      4  C   UNL     1       0.822   8.735  21.464  0.00  0.00    +0.000 A 
ATOM      5  N   UNL     1       1.455   7.694  20.865  0.00  0.00    +0.000 NA
ATOM      6  C   UNL     1       1.808   7.690  19.552  0.00  0.00    +0.000 A 
ATOM      7  C   UNL     1       1.496   8.834  18.790  0.00  0.00    +0.000 A 
ATOM      8  C   UNL     1       0.879   9.945  19.363  0.00  0.00    +0.000 A 
ATOM      9  C   UNL     1       0.517   9.901  20.725  0.00  0.00    +0.000 A 
ATOM     10  C   UNL     1      -0.148  10.960  21.367  0.00  0.00    +0.000 A 
ENDROOT
BRANCH   6  11
ATOM     11  C   UNL     1       2.494   6.478  18.969  0.00  0.00    +0.000 A 
ATOM     12  C   UNL     1       2.243   5.151  19.486  0.00  0.00    +0.000 A 
ATOM     13  C   UNL     1       1.270   4.783  20.591  0.00  0.00    +0.000 C 
ATOM     14  C   UNL     1       2.912   4.046  18.933  0.00  0.00    +0.000 A 
ATOM     15  C   UNL     1       3.823   4.197  17.901  0.00  0.00    +0.000 A 
ATOM     16  C   UNL     1       4.107   5.455  17.406  0.00  0.00    +0.000 A 
ATOM     17  C   UNL     1       3.472   6.600  17.911  0.00  0.00    +0.000 A 
ATOM     18  C   UNL     1       3.950   7.916  17.326  0.00  0.00    +0.000 C 
ENDBRANCH   6  11
BRANCH   1  20
ATOM     19  C   UNL     1      -1.464  13.101  22.653  0.00  0.00    +0.000 C 
ATOM     20  O   UNL     1      -1.111  11.935  23.300  0.00  0.00    +0.000 OA
ENDBRANCH   1  20
BRANCH   8  21
ATOM     21 SE   UNL     1       0.476  11.442  18.185  0.00  0.00    +0.000 Se
BRANCH  21  22
ATOM     22  C   UNL     1      -1.423  11.145  17.895  0.00  0.00    +0.000 A 
ATOM     23  C   UNL     1      -1.871  10.105  17.055  0.00  0.00    +0.000 A 
ATOM     24  C   UNL     1      -3.244   9.832  16.936  0.00  0.00    +0.000 A 
ATOM     25  C   UNL     1      -4.174  10.593  17.651  0.00  0.00    +0.000 A 
ATOM     26  C   UNL     1      -3.734  11.634  18.473  0.00  0.00    +0.000 A 
ATOM     27  C   UNL     1      -2.365  11.907  18.596  0.00  0.00    +0.000 A 
ENDBRANCH  21  22
ENDBRANCH   8  21
TORSDOF 4
ENDMDL
MODEL 4
REMARK VINA RESULT:      -7.4      7.509      8.819
REMARK  Name = 
REMARK  7 active torsions:
REMARK  status: ('A' for Active; 'I' for Inactive)
REMARK    1  A    between atoms: C_1  and  O_2
REMARK    2  A    between atoms: O_2  and  C_3
REMARK    3  A    between atoms: C_8  and  C_9
REMARK    4  A    between atoms: C_10  and  C_11
REMARK    5  A    between atoms: C_15  and  C_16
REMARK    6  A    between atoms: C_18  and  SE_19
REMARK    7  A    between atoms: SE_19  and  C_20
REMARK                            x       y       z     vdW  Elec       q    Type
REMARK                         _______ _______ _______ _____ _____    ______ ____
ROOT
ATOM      1  C   UNL     1       6.017  12.639  24.797  0.00  0.00    +0.000 A 
ATOM      2  C   UNL     1       6.993  11.622  24.819  0.00  0.00    +0.000 A 
ATOM      3  C   UNL     1       7.943  11.536  23.802  0.00  0.00    +0.000 A 
ATOM      4  C   UNL     1       7.937  12.460  22.755  0.00  0.00    +0.000 A 
ATOM      5  N   UNL     1       8.867  12.361  21.771  0.00  0.00    +0.000 NA
ATOM      6  C   UNL     1       8.911  13.196  20.699  0.00  0.00    +0.000 A 
ATOM      7  C   UNL     1       7.937  14.211  20.623  0.00  0.00    +0.000 A 
ATOM      8  C   UNL     1       6.981  14.381  21.623  0.00  0.00    +0.000 A 
ATOM      9  C   UNL     1       6.962  13.483  22.710  0.00  0.00    +0.000 A 
ATOM     10  C   UNL     1       6.004  13.556  23.737  0.00  0.00    +0.000 A 
ENDROOT
BRANCH   6  11
ATOM     11  C   UNL     1       9.973  12.997  19.644  0.00  0.00    +0.000 A 
ATOM     12  C   UNL     1       9.982  11.823  18.799  0.00  0.00    +0.000 A 
ATOM     13  C   UNL     1       8.960  10.702  18.801  0.00  0.00    +0.000 C 
ATOM     14  C   UNL     1      10.996  11.660  17.839  0.00  0.00    +0.000 A 
ATOM     15  C   UNL     1      12.002  12.598  17.686  0.00  0.00    +0.000 A 
ATOM     16  C   UNL     1      12.038  13.715  18.498  0.00  0.00    +0.000 A 
ATOM     17  C   UNL     1      11.055  13.941  19.475  0.00  0.00    +0.000 A 
ATOM     18  C   UNL     1      11.276  15.164  20.344  0.00  0.00    +0.000 C 
ENDBRANCH   6  11
BRANCH   1  20
ATOM     19  C   UNL     1       4.986  11.976  26.897  0.00  0.00    +0.000 C 
ATOM     20  O   UNL     1       5.087  12.774  25.777  0.00  0.00    +0.000 OA
ENDBRANCH   1  20
BRANCH   8  21
ATOM     21 SE   UNL     1       5.675  15.802  21.371  0.00  0.00    +0.000 Se
BRANCH  21  22
ATOM     22  C   UNL     1       4.303  14.834  20.390  0.00  0.00    +0.000 A 
ATOM     23  C   UNL     1       4.315  14.797  18.981  0.00  0.00    +0.000 A 
ATOM     24  C   UNL     1       3.384  14.008  18.285  0.00  0.00    +0.000 A 
ATOM     25  C   UNL     1       2.438  13.257  18.989  0.00  0.00    +0.000 A 
ATOM     26  C   UNL     1       2.415  13.303  20.385  0.00  0.00    +0.000 A 
ATOM     27  C   UNL     1       3.344  14.086  21.082  0.00  0.00    +0.000 A 
ENDBRANCH  21  22
ENDBRANCH   8  21
TORSDOF 4
ENDMDL
MODEL 5
REMARK VINA RESULT:      -7.4      3.054      8.324
REMARK  Name = 
REMARK  7 active torsions:
REMARK  status: ('A' for Active; 'I' for Inactive)
REMARK    1  A    between atoms: C_1  and  O_2
REMARK    2  A    between atoms: O_2  and  C_3
REMARK    3  A    between atoms: C_8  and  C_9
REMARK    4  A    between atoms: C_10  and  C_11
REMARK    5  A    between atoms: C_15  and  C_16
REMARK    6  A    between atoms: C_18  and  SE_19
REMARK    7  A    between atoms: SE_19  and  C_20
REMARK                            x       y       z     vdW  Elec       q    Type
REMARK                         _______ _______ _______ _____ _____    ______ ____
ROOT
ATOM      1  C   UNL     1      -2.946  10.779  15.964  0.00  0.00    +0.000 A 
ATOM      2  C   UNL     1      -4.280  10.719  16.417  0.00  0.00    +0.000 A 
ATOM      3  C   UNL     1      -4.621  11.225  17.671  0.00  0.00    +0.000 A 
ATOM      4  C   UNL     1      -3.643  11.798  18.487  0.00  0.00    +0.000 A 
ATOM      5  N   UNL     1      -3.991  12.284  19.706  0.00  0.00    +0.000 NA
ATOM      6  C   UNL     1      -3.099  12.825  20.577  0.00  0.00    +0.000 A 
ATOM      7  C   UNL     1      -1.749  12.880  20.175  0.00  0.00    +0.000 A 
ATOM      8  C   UNL     1      -1.342  12.430  18.921  0.00  0.00    +0.000 A 
ATOM      9  C   UNL     1      -2.299  11.861  18.055  0.00  0.00    +0.000 A 
ATOM     10  C   UNL     1      -1.964  11.342  16.791  0.00  0.00    +0.000 A 
ENDROOT
BRANCH   6  11
ATOM     11  C   UNL     1      -3.576  13.323  21.920  0.00  0.00    +0.000 A 
ATOM     12  C   UNL     1      -4.449  14.472  22.028  0.00  0.00    +0.000 A 
ATOM     13  C   UNL     1      -5.029  15.275  20.879  0.00  0.00    +0.000 C 
ATOM     14  C   UNL     1      -4.859  14.921  23.294  0.00  0.00    +0.000 A 
ATOM     15  C   UNL     1      -4.440  14.293  24.454  0.00  0.00    +0.000 A 
ATOM     16  C   UNL     1      -3.583  13.212  24.385  0.00  0.00    +0.000 A 
ATOM     17  C   UNL     1      -3.135  12.711  23.153  0.00  0.00    +0.000 A 
ATOM     18  C   UNL     1      -2.133  11.576  23.241  0.00  0.00    +0.000 C 
ENDBRANCH   6  11
BRANCH   1  20
ATOM     19  C   UNL     1      -3.434   9.937  13.736  0.00  0.00    +0.000 C 
ATOM     20  O   UNL     1      -2.573  10.320  14.742  0.00  0.00    +0.000 OA
ENDBRANCH   1  20
BRANCH   8  21
ATOM     21 SE   UNL     1       0.558  12.535  18.513  0.00  0.00    +0.000 Se
BRANCH  21  22
ATOM     22  C   UNL     1       1.109  10.733  18.989  0.00  0.00    +0.000 A 
ATOM     23  C   UNL     1       0.815  10.201  20.262  0.00  0.00    +0.000 A 
ATOM     24  C   UNL     1       1.123   8.863  20.559  0.00  0.00    +0.000 A 
ATOM     25  C   UNL     1       1.725   8.051  19.593  0.00  0.00    +0.000 A 
ATOM     26  C   UNL     1       2.030   8.580  18.335  0.00  0.00    +0.000 A 
ATOM     27  C   UNL     1       1.721   9.912  18.035  0.00  0.00    +0.000 A 
ENDBRANCH  21  22
ENDBRANCH   8  21
TORSDOF 4
ENDMDL
MODEL 6
REMARK VINA RESULT:      -7.3      7.560      8.804
REMARK  Name = 
REMARK  7 active torsions:
REMARK  status: ('A' for Active; 'I' for Inactive)
REMARK    1  A    between atoms: C_1  and  O_2
REMARK    2  A    between atoms: O_2  and  C_3
REMARK    3  A    between atoms: C_8  and  C_9
REMARK    4  A    between atoms: C_10  and  C_11
REMARK    5  A    between atoms: C_15  and  C_16
REMARK    6  A    between atoms: C_18  and  SE_19
REMARK    7  A    between atoms: SE_19  and  C_20
REMARK                            x       y       z     vdW  Elec       q    Type
REMARK                         _______ _______ _______ _____ _____    ______ ____
ROOT
ATOM      1  C   UNL     1       6.072  12.619  24.641  0.00  0.00    +0.000 A 
ATOM      2  C   UNL     1       7.058  11.612  24.653  0.00  0.00    +0.000 A 
ATOM      3  C   UNL     1       8.017  11.554  23.643  0.00  0.00    +0.000 A 
ATOM      4  C   UNL     1       8.010  12.497  22.612  0.00  0.00    +0.000 A 
ATOM      5  N   UNL     1       8.949  12.424  21.633  0.00  0.00    +0.000 NA
ATOM      6  C   UNL     1       8.993  13.278  20.577  0.00  0.00    +0.000 A 
ATOM      7  C   UNL     1       8.009  14.284  20.511  0.00  0.00    +0.000 A 
ATOM      8  C   UNL     1       7.043  14.427  21.506  0.00  0.00    +0.000 A 
ATOM      9  C   UNL     1       7.025  13.510  22.577  0.00  0.00    +0.000 A 
ATOM     10  C   UNL     1       6.058  13.556  23.597  0.00  0.00    +0.000 A 
ENDROOT
BRANCH   6  11
ATOM     11  C   UNL     1      10.066  13.109  19.527  0.00  0.00    +0.000 A 
ATOM     12  C   UNL     1      11.132  14.076  19.381  0.00  0.00    +0.000 A 
ATOM     13  C   UNL     1      11.359  15.305  20.240  0.00  0.00    +0.000 C 
ATOM     14  C   UNL     1      12.104  13.898  18.381  0.00  0.00    +0.000 A 
ATOM     15  C   UNL     1      12.062  12.818  17.518  0.00  0.00    +0.000 A 
ATOM     16  C   UNL     1      11.039  11.894  17.613  0.00  0.00    +0.000 A 
ATOM     17  C   UNL     1      10.038  12.009  18.590  0.00  0.00    +0.000 A 
ATOM     18  C   UNL     1       8.937  10.967  18.514  0.00  0.00    +0.000 C 
ENDBRANCH   6  11
BRANCH   1  20
ATOM     19  C   UNL     1       4.978  11.860  26.675  0.00  0.00    +0.000 C 
ATOM     20  O   UNL     1       5.133  12.728  25.615  0.00  0.00    +0.000 OA
ENDBRANCH   1  20
BRANCH   8  21
ATOM     21 SE   UNL     1       5.725  15.839  21.268  0.00  0.00    +0.000 Se
BRANCH  21  22
ATOM     22  C   UNL     1       4.332  14.852  20.339  0.00  0.00    +0.000 A 
ATOM     23  C   UNL     1       4.326  14.763  18.932  0.00  0.00    +0.000 A 
ATOM     24  C   UNL     1       3.378  13.959  18.277  0.00  0.00    +0.000 A 
ATOM     25  C   UNL     1       2.432  13.245  19.019  0.00  0.00    +0.000 A 
ATOM     26  C   UNL     1       2.427  13.343  20.413  0.00  0.00    +0.000 A 
ATOM     27  C   UNL     1       3.373  14.140  21.069  0.00  0.00    +0.000 A 
ENDBRANCH  21  22
ENDBRANCH   8  21
TORSDOF 4
ENDMDL
MODEL 7
REMARK VINA RESULT:      -7.3      2.666      5.810
REMARK  Name = 
REMARK  7 active torsions:
REMARK  status: ('A' for Active; 'I' for Inactive)
REMARK    1  A    between atoms: C_1  and  O_2
REMARK    2  A    between atoms: O_2  and  C_3
REMARK    3  A    between atoms: C_8  and  C_9
REMARK    4  A    between atoms: C_10  and  C_11
REMARK    5  A    between atoms: C_15  and  C_16
REMARK    6  A    between atoms: C_18  and  SE_19
REMARK    7  A    between atoms: SE_19  and  C_20
REMARK                            x       y       z     vdW  Elec       q    Type
REMARK                         _______ _______ _______ _____ _____    ______ ____
ROOT
ATOM      1  C   UNL     1       0.774  10.550  19.275  0.00  0.00    +0.000 A 
ATOM      2  C   UNL     1       1.509  10.987  18.154  0.00  0.00    +0.000 A 
ATOM      3  C   UNL     1       2.431  10.139  17.542  0.00  0.00    +0.000 A 
ATOM      4  C   UNL     1       2.631   8.847  18.034  0.00  0.00    +0.000 A 
ATOM      5  N   UNL     1       3.535   8.034  17.428  0.00  0.00    +0.000 NA
ATOM      6  C   UNL     1       3.816   6.777  17.862  0.00  0.00    +0.000 A 
ATOM      7  C   UNL     1       3.123   6.309  18.996  0.00  0.00    +0.000 A 
ATOM      8  C   UNL     1       2.159   7.087  19.635  0.00  0.00    +0.000 A 
ATOM      9  C   UNL     1       1.909   8.391  19.161  0.00  0.00    +0.000 A 
ATOM     10  C   UNL     1       0.987   9.257  19.775  0.00  0.00    +0.000 A 
ENDROOT
BRANCH   6  11
ATOM     11  C   UNL     1       4.851   5.952  17.134  0.00  0.00    +0.000 A 
ATOM     12  C   UNL     1       4.553   4.616  16.667  0.00  0.00    +0.000 A 
ATOM     13  C   UNL     1       3.222   3.897  16.779  0.00  0.00    +0.000 C 
ATOM     14  C   UNL     1       5.545   3.868  16.010  0.00  0.00    +0.000 A 
ATOM     15  C   UNL     1       6.815   4.377  15.804  0.00  0.00    +0.000 A 
ATOM     16  C   UNL     1       7.139   5.639  16.265  0.00  0.00    +0.000 A 
ATOM     17  C   UNL     1       6.196   6.440  16.927  0.00  0.00    +0.000 A 
ATOM     18  C   UNL     1       6.723   7.764  17.449  0.00  0.00    +0.000 C 
ENDBRANCH   6  11
BRANCH   1  20
ATOM     19  C   UNL     1      -1.186  11.988  19.257  0.00  0.00    +0.000 C 
ATOM     20  O   UNL     1      -0.150  11.332  19.888  0.00  0.00    +0.000 OA
ENDBRANCH   1  20
BRANCH   8  21
ATOM     21 SE   UNL     1       1.305   6.327  21.211  0.00  0.00    +0.000 Se
BRANCH  21  22
ATOM     22  C   UNL     1       1.477   4.432  20.811  0.00  0.00    +0.000 A 
ATOM     23  C   UNL     1       0.799   3.862  19.714  0.00  0.00    +0.000 A 
ATOM     24  C   UNL     1       1.013   2.517  19.371  0.00  0.00    +0.000 A 
ATOM     25  C   UNL     1       1.900   1.736  20.117  0.00  0.00    +0.000 A 
ATOM     26  C   UNL     1       2.563   2.295  21.213  0.00  0.00    +0.000 A 
ATOM     27  C   UNL     1       2.355   3.637  21.556  0.00  0.00    +0.000 A 
ENDBRANCH  21  22
ENDBRANCH   8  21
TORSDOF 4
ENDMDL
MODEL 8
REMARK VINA RESULT:      -7.3      2.535      7.439
REMARK  Name = 
REMARK  7 active torsions:
REMARK  status: ('A' for Active; 'I' for Inactive)
REMARK    1  A    between atoms: C_1  and  O_2
REMARK    2  A    between atoms: O_2  and  C_3
REMARK    3  A    between atoms: C_8  and  C_9
REMARK    4  A    between atoms: C_10  and  C_11
REMARK    5  A    between atoms: C_15  and  C_16
REMARK    6  A    between atoms: C_18  and  SE_19
REMARK    7  A    between atoms: SE_19  and  C_20
REMARK                            x       y       z     vdW  Elec       q    Type
REMARK                         _______ _______ _______ _____ _____    ______ ____
ROOT
ATOM      1  C   UNL     1       1.179   8.884  20.381  0.00  0.00    +0.000 A 
ATOM      2  C   UNL     1       1.179   8.691  21.778  0.00  0.00    +0.000 A 
ATOM      3  C   UNL     1       0.599   9.640  22.620  0.00  0.00    +0.000 A 
ATOM      4  C   UNL     1       0.010  10.787  22.084  0.00  0.00    +0.000 A 
ATOM      5  N   UNL     1      -0.548  11.703  22.917  0.00  0.00    +0.000 NA
ATOM      6  C   UNL     1      -1.110  12.862  22.483  0.00  0.00    +0.000 A 
ATOM      7  C   UNL     1      -1.108  13.108  21.096  0.00  0.00    +0.000 A 
ATOM      8  C   UNL     1      -0.582  12.186  20.192  0.00  0.00    +0.000 A 
ATOM      9  C   UNL     1       0.006  11.003  20.687  0.00  0.00    +0.000 A 
ATOM     10  C   UNL     1       0.599  10.044  19.847  0.00  0.00    +0.000 A 
ENDROOT
BRANCH   6  11
ATOM     11  C   UNL     1      -1.691  13.829  23.487  0.00  0.00    +0.000 A 
ATOM     12  C   UNL     1      -2.947  13.559  24.151  0.00  0.00    +0.000 A 
ATOM     13  C   UNL     1      -3.799  12.313  23.995  0.00  0.00    +0.000 C 
ATOM     14  C   UNL     1      -3.469  14.489  25.066  0.00  0.00    +0.000 A 
ATOM     15  C   UNL     1      -2.812  15.674  25.344  0.00  0.00    +0.000 A 
ATOM     16  C   UNL     1      -1.625  15.975  24.704  0.00  0.00    +0.000 A 
ATOM     17  C   UNL     1      -1.047  15.090  23.780  0.00  0.00    +0.000 A 
ATOM     18  C   UNL     1       0.209  15.597  23.097  0.00  0.00    +0.000 C 
ENDBRANCH   6  11
BRANCH   1  20
ATOM     19  C   UNL     1       2.194   8.258  18.263  0.00  0.00    +0.000 C 
ATOM     20  O   UNL     1       1.711   7.977  19.523  0.00  0.00    +0.000 OA
ENDBRANCH   1  20
BRANCH   8  21
ATOM     21 SE   UNL     1      -0.614  12.671  18.308  0.00  0.00    +0.000 Se
BRANCH  21  22
ATOM     22  C   UNL     1      -2.214  11.725  17.739  0.00  0.00    +0.000 A 
ATOM     23  C   UNL     1      -3.372  11.718  18.544  0.00  0.00    +0.000 A 
ATOM     24  C   UNL     1      -4.555  11.122  18.077  0.00  0.00    +0.000 A 
ATOM     25  C   UNL     1      -4.589  10.530  16.810  0.00  0.00    +0.000 A 
ATOM     26  C   UNL     1      -3.439  10.524  16.017  0.00  0.00    +0.000 A 
ATOM     27  C   UNL     1      -2.258  11.121  16.478  0.00  0.00    +0.000 A 
ENDBRANCH  21  22
ENDBRANCH   8  21
TORSDOF 4
ENDMDL
MODEL 9
REMARK VINA RESULT:      -7.3      3.348      8.005
REMARK  Name = 
REMARK  7 active torsions:
REMARK  status: ('A' for Active; 'I' for Inactive)
REMARK    1  A    between atoms: C_1  and  O_2
REMARK    2  A    between atoms: O_2  and  C_3
REMARK    3  A    between atoms: C_8  and  C_9
REMARK    4  A    between atoms: C_10  and  C_11
REMARK    5  A    between atoms: C_15  and  C_16
REMARK    6  A    between atoms: C_18  and  SE_19
REMARK    7  A    between atoms: SE_19  and  C_20
REMARK                            x       y       z     vdW  Elec       q    Type
REMARK                         _______ _______ _______ _____ _____    ______ ____
ROOT
ATOM      1  C   UNL     1       3.297   3.289  19.778  0.00  0.00    +0.000 A 
ATOM      2  C   UNL     1       2.468   3.537  20.892  0.00  0.00    +0.000 A 
ATOM      3  C   UNL     1       1.884   4.790  21.070  0.00  0.00    +0.000 A 
ATOM      4  C   UNL     1       2.114   5.811  20.144  0.00  0.00    +0.000 A 
ATOM      5  N   UNL     1       1.540   7.027  20.333  0.00  0.00    +0.000 NA
ATOM      6  C   UNL     1       1.739   8.083  19.502  0.00  0.00    +0.000 A 
ATOM      7  C   UNL     1       2.583   7.888  18.390  0.00  0.00    +0.000 A 
ATOM      8  C   UNL     1       3.168   6.651  18.127  0.00  0.00    +0.000 A 
ATOM      9  C   UNL     1       2.948   5.585  19.025  0.00  0.00    +0.000 A 
ATOM     10  C   UNL     1       3.538   4.320  18.858  0.00  0.00    +0.000 A 
ENDROOT
BRANCH   6  11
ATOM     11  C   UNL     1       1.072   9.404  19.804  0.00  0.00    +0.000 A 
ATOM     12  C   UNL     1       0.092   9.527  20.861  0.00  0.00    +0.000 A 
ATOM     13  C   UNL     1      -0.352   8.430  21.810  0.00  0.00    +0.000 C 
ATOM     14  C   UNL     1      -0.523  10.766  21.103  0.00  0.00    +0.000 A 
ATOM     15  C   UNL     1      -0.222  11.883  20.343  0.00  0.00    +0.000 A 
ATOM     16  C   UNL     1       0.688  11.791  19.307  0.00  0.00    +0.000 A 
ATOM     17  C   UNL     1       1.341  10.584  19.012  0.00  0.00    +0.000 A 
ATOM     18  C   UNL     1       2.245  10.618  17.795  0.00  0.00    +0.000 C 
ENDBRANCH   6  11
BRANCH   1  20
ATOM     19  C   UNL     1       3.654   1.290  18.442  0.00  0.00    +0.000 C 
ATOM     20  O   UNL     1       3.868   2.079  19.553  0.00  0.00    +0.000 OA
ENDBRANCH   1  20
BRANCH   8  21
ATOM     21 SE   UNL     1       4.339   6.533  16.576  0.00  0.00    +0.000 Se
BRANCH  21  22
ATOM     22  C   UNL     1       6.068   6.749  17.438  0.00  0.00    +0.000 A 
ATOM     23  C   UNL     1       6.819   7.930  17.263  0.00  0.00    +0.000 A 
ATOM     24  C   UNL     1       8.016   8.119  17.973  0.00  0.00    +0.000 A 
ATOM     25  C   UNL     1       8.470   7.135  18.857  0.00  0.00    +0.000 A 
ATOM     26  C   UNL     1       7.735   5.958  19.021  0.00  0.00    +0.000 A 
ATOM     27  C   UNL     1       6.539   5.767  18.317  0.00  0.00    +0.000 A 
ENDBRANCH  21  22
ENDBRANCH   8  21
TORSDOF 4
ENDMDL
