MODEL 1
REMARK VINA RESULT:      -7.7      0.000      0.000
REMARK  Name = 
REMARK  15 active torsions:
REMARK  status: ('A' for Active; 'I' for Inactive)
REMARK    1  A    between atoms: C_1  and  C_2
REMARK    2  A    between atoms: C_2  and  C_3
REMARK    3  A    between atoms: C_3  and  C_4
REMARK    4  A    between atoms: C_4  and  C_5
REMARK    5  A    between atoms: C_5  and  C_6
REMARK    6  A    between atoms: C_6  and  S_7
REMARK    7  A    between atoms: S_7  and  N_10
REMARK    8  A    between atoms: N_10  and  C_11
REMARK    9  A    between atoms: C_17  and  C_18
REMARK   10  A    between atoms: C_18  and  C_19
REMARK   11  A    between atoms: C_20  and  C_21
REMARK   12  A    between atoms: C_21  and  C_22
REMARK   13  A    between atoms: C_22  and  C_23
REMARK   14  A    between atoms: C_23  and  C_24
REMARK   15  A    between atoms: C_24  and  O_26
REMARK                            x       y       z     vdW  Elec       q    Type
REMARK                         _______ _______ _______ _____ _____    ______ ____
ROOT
ATOM      1  C   UNL     1       3.983   5.169  17.616  0.00  0.00    +0.000 C 
ATOM      2  C   UNL     1       3.311   3.859  17.115  0.00  0.00    +0.000 C 
ATOM      3  C   UNL     1       3.632   2.573  17.897  0.00  0.00    +0.000 C 
ATOM      4  C   UNL     1       3.103   2.865  19.302  0.00  0.00    +0.000 C 
ATOM      5  C   UNL     1       2.352   4.184  19.100  0.00  0.00    +0.000 C 
ATOM      6  C   UNL     1       1.887   4.087  17.643  0.00  0.00    +0.000 C 
ATOM      7  C   UNL     1       3.379   5.343  19.043  0.00  0.00    +0.000 C 
ENDROOT
BRANCH   1   8
ATOM      8  N   UNL     1       5.488   5.239  17.607  0.00  0.00    +0.000 NA
ATOM      9  H   UNL     1       5.783   6.008  18.218  0.00  0.00    +0.000 HD
BRANCH   8  10
ATOM     10  S   UNL     1       6.118   5.538  16.054  0.00  0.00    +0.000 S 
ATOM     11  O   UNL     1       7.452   6.037  16.256  0.00  0.00    +0.000 OA
ATOM     12  O   UNL     1       5.124   6.311  15.334  0.00  0.00    +0.000 OA
BRANCH  10  13
ATOM     13  C   UNL     1       6.254   3.916  15.233  0.00  0.00    +0.000 C 
BRANCH  13  14
ATOM     14  C   UNL     1       5.591   4.092  13.860  0.00  0.00    +0.000 C 
BRANCH  14  15
ATOM     15  C   UNL     1       6.434   3.651  12.677  0.00  0.00    +0.000 C 
BRANCH  15  16
ATOM     16  C   UNL     1       5.553   2.900  11.671  0.00  0.00    +0.000 C 
BRANCH  16  18
ATOM     17  C   UNL     1       3.464   3.486  10.392  0.00  0.00    +0.000 C 
ATOM     18  C   UNL     1       4.106   3.368  11.763  0.00  0.00    +0.000 C 
ENDBRANCH  16  18
ENDBRANCH  15  16
ENDBRANCH  14  15
ENDBRANCH  13  14
ENDBRANCH  10  13
ENDBRANCH   8  10
ENDBRANCH   1   8
BRANCH   7  19
ATOM     19  C   UNL     1       2.661   6.699  19.181  0.00  0.00    +0.000 C 
BRANCH  19  20
ATOM     20  C   UNL     1       2.784   7.577  17.960  0.00  0.00    +0.000 C 
ATOM     21  C   UNL     1       2.216   8.783  17.817  0.00  0.00    +0.000 C 
BRANCH  21  22
ATOM     22  C   UNL     1       1.312   9.412  18.842  0.00  0.00    +0.000 C 
BRANCH  22  23
ATOM     23  C   UNL     1      -0.028   9.854  18.261  0.00  0.00    +0.000 C 
BRANCH  23  24
ATOM     24  C   UNL     1      -0.525  11.170  18.860  0.00  0.00    +0.000 C 
BRANCH  24  25
ATOM     25  C   UNL     1      -1.469  11.900  17.930  0.00  0.00    +0.000 C 
ATOM     26  O   UNL     1      -2.576  11.497  17.598  0.00  0.00    +0.000 OA
BRANCH  25  27
ATOM     27  O   UNL     1      -0.976  13.078  17.493  0.00  0.00    +0.000 OA
ATOM     28  H   UNL     1      -0.527  13.023  16.628  0.00  0.00    +0.000 HD
ENDBRANCH  25  27
ENDBRANCH  24  25
ENDBRANCH  23  24
ENDBRANCH  22  23
ENDBRANCH  21  22
ENDBRANCH  19  20
ENDBRANCH   7  19
TORSDOF 14
ENDMDL
MODEL 2
REMARK VINA RESULT:      -7.3      1.835      2.231
REMARK  Name = 
REMARK  15 active torsions:
REMARK  status: ('A' for Active; 'I' for Inactive)
REMARK    1  A    between atoms: C_1  and  C_2
REMARK    2  A    between atoms: C_2  and  C_3
REMARK    3  A    between atoms: C_3  and  C_4
REMARK    4  A    between atoms: C_4  and  C_5
REMARK    5  A    between atoms: C_5  and  C_6
REMARK    6  A    between atoms: C_6  and  S_7
REMARK    7  A    between atoms: S_7  and  N_10
REMARK    8  A    between atoms: N_10  and  C_11
REMARK    9  A    between atoms: C_17  and  C_18
REMARK   10  A    between atoms: C_18  and  C_19
REMARK   11  A    between atoms: C_20  and  C_21
REMARK   12  A    between atoms: C_21  and  C_22
REMARK   13  A    between atoms: C_22  and  C_23
REMARK   14  A    between atoms: C_23  and  C_24
REMARK   15  A    between atoms: C_24  and  O_26
REMARK                            x       y       z     vdW  Elec       q    Type
REMARK                         _______ _______ _______ _____ _____    ______ ____
ROOT
ATOM      1  C   UNL     1       3.638   4.276  18.736  0.00  0.00    +0.000 C 
ATOM      2  C   UNL     1       2.846   3.576  17.596  0.00  0.00    +0.000 C 
ATOM      3  C   UNL     1       2.670   2.051  17.709  0.00  0.00    +0.000 C 
ATOM      4  C   UNL     1       1.878   1.877  19.006  0.00  0.00    +0.000 C 
ATOM      5  C   UNL     1       1.509   3.320  19.360  0.00  0.00    +0.000 C 
ATOM      6  C   UNL     1       1.420   3.991  17.985  0.00  0.00    +0.000 C 
ATOM      7  C   UNL     1       2.744   4.014  19.987  0.00  0.00    +0.000 C 
ENDROOT
BRANCH   1   8
ATOM      8  N   UNL     1       5.074   3.872  18.951  0.00  0.00    +0.000 NA
ATOM      9  H   UNL     1       5.195   3.608  19.935  0.00  0.00    +0.000 HD
BRANCH   8  10
ATOM     10  S   UNL     1       6.164   5.136  18.613  0.00  0.00    +0.000 S 
ATOM     11  O   UNL     1       6.943   5.318  19.808  0.00  0.00    +0.000 OA
ATOM     12  O   UNL     1       5.390   6.223  18.044  0.00  0.00    +0.000 OA
BRANCH  10  13
ATOM     13  C   UNL     1       7.282   4.517  17.314  0.00  0.00    +0.000 C 
BRANCH  13  14
ATOM     14  C   UNL     1       6.649   4.948  15.984  0.00  0.00    +0.000 C 
BRANCH  14  15
ATOM     15  C   UNL     1       6.045   3.822  15.164  0.00  0.00    +0.000 C 
BRANCH  15  16
ATOM     16  C   UNL     1       6.458   3.980  13.695  0.00  0.00    +0.000 C 
BRANCH  16  18
ATOM     17  C   UNL     1       5.544   2.642  11.768  0.00  0.00    +0.000 C 
ATOM     18  C   UNL     1       5.270   3.749  12.771  0.00  0.00    +0.000 C 
ENDBRANCH  16  18
ENDBRANCH  15  16
ENDBRANCH  14  15
ENDBRANCH  13  14
ENDBRANCH  10  13
ENDBRANCH   8  10
ENDBRANCH   1   8
BRANCH   7  19
ATOM     19  C   UNL     1       2.329   5.337  20.659  0.00  0.00    +0.000 C 
BRANCH  19  20
ATOM     20  C   UNL     1       2.489   6.545  19.770  0.00  0.00    +0.000 C 
ATOM     21  C   UNL     1       1.976   7.759  20.017  0.00  0.00    +0.000 C 
BRANCH  21  22
ATOM     22  C   UNL     1       1.103   8.075  21.201  0.00  0.00    +0.000 C 
BRANCH  22  23
ATOM     23  C   UNL     1       0.014   9.096  20.880  0.00  0.00    +0.000 C 
BRANCH  23  24
ATOM     24  C   UNL     1       0.557  10.329  20.158  0.00  0.00    +0.000 C 
BRANCH  24  25
ATOM     25  C   UNL     1       0.069  10.413  18.727  0.00  0.00    +0.000 C 
ATOM     26  O   UNL     1      -1.098  10.298  18.378  0.00  0.00    +0.000 OA
BRANCH  25  27
ATOM     27  O   UNL     1       1.062  10.646  17.843  0.00  0.00    +0.000 OA
ATOM     28  H   UNL     1       1.932  10.307  18.127  0.00  0.00    +0.000 HD
ENDBRANCH  25  27
ENDBRANCH  24  25
ENDBRANCH  23  24
ENDBRANCH  22  23
ENDBRANCH  21  22
ENDBRANCH  19  20
ENDBRANCH   7  19
TORSDOF 14
ENDMDL
MODEL 3
REMARK VINA RESULT:      -7.1      2.440      2.888
REMARK  Name = 
REMARK  15 active torsions:
REMARK  status: ('A' for Active; 'I' for Inactive)
REMARK    1  A    between atoms: C_1  and  C_2
REMARK    2  A    between atoms: C_2  and  C_3
REMARK    3  A    between atoms: C_3  and  C_4
REMARK    4  A    between atoms: C_4  and  C_5
REMARK    5  A    between atoms: C_5  and  C_6
REMARK    6  A    between atoms: C_6  and  S_7
REMARK    7  A    between atoms: S_7  and  N_10
REMARK    8  A    between atoms: N_10  and  C_11
REMARK    9  A    between atoms: C_17  and  C_18
REMARK   10  A    between atoms: C_18  and  C_19
REMARK   11  A    between atoms: C_20  and  C_21
REMARK   12  A    between atoms: C_21  and  C_22
REMARK   13  A    between atoms: C_22  and  C_23
REMARK   14  A    between atoms: C_23  and  C_24
REMARK   15  A    between atoms: C_24  and  O_26
REMARK                            x       y       z     vdW  Elec       q    Type
REMARK                         _______ _______ _______ _____ _____    ______ ____
ROOT
ATOM      1  C   UNL     1       4.284   4.213  18.274  0.00  0.00    +0.000 C 
ATOM      2  C   UNL     1       3.448   3.245  17.390  0.00  0.00    +0.000 C 
ATOM      3  C   UNL     1       3.162   1.849  17.972  0.00  0.00    +0.000 C 
ATOM      4  C   UNL     1       2.356   2.145  19.237  0.00  0.00    +0.000 C 
ATOM      5  C   UNL     1       2.090   3.648  19.111  0.00  0.00    +0.000 C 
ATOM      6  C   UNL     1       2.054   3.857  17.594  0.00  0.00    +0.000 C 
ATOM      7  C   UNL     1       3.370   4.420  19.520  0.00  0.00    +0.000 C 
ENDROOT
BRANCH   1   8
ATOM      8  N   UNL     1       5.687   3.802  18.641  0.00  0.00    +0.000 NA
ATOM      9  H   UNL     1       5.743   3.711  19.661  0.00  0.00    +0.000 HD
BRANCH   8  10
ATOM     10  S   UNL     1       6.849   4.948  18.156  0.00  0.00    +0.000 S 
ATOM     11  O   UNL     1       8.089   4.535  18.759  0.00  0.00    +0.000 OA
ATOM     12  O   UNL     1       6.286   6.260  18.412  0.00  0.00    +0.000 OA
BRANCH  10  13
ATOM     13  C   UNL     1       7.028   4.768  16.351  0.00  0.00    +0.000 C 
BRANCH  13  14
ATOM     14  C   UNL     1       5.897   5.607  15.739  0.00  0.00    +0.000 C 
BRANCH  14  15
ATOM     15  C   UNL     1       5.551   5.267  14.300  0.00  0.00    +0.000 C 
BRANCH  15  16
ATOM     16  C   UNL     1       5.815   3.778  14.047  0.00  0.00    +0.000 C 
BRANCH  16  18
ATOM     17  C   UNL     1       4.987   3.037  11.788  0.00  0.00    +0.000 C 
ATOM     18  C   UNL     1       6.179   3.532  12.589  0.00  0.00    +0.000 C 
ENDBRANCH  16  18
ENDBRANCH  15  16
ENDBRANCH  14  15
ENDBRANCH  13  14
ENDBRANCH  10  13
ENDBRANCH   8  10
ENDBRANCH   1   8
BRANCH   7  19
ATOM     19  C   UNL     1       3.048   5.911  19.732  0.00  0.00    +0.000 C 
BRANCH  19  20
ATOM     20  C   UNL     1       1.929   6.156  20.714  0.00  0.00    +0.000 C 
ATOM     21  C   UNL     1       1.229   7.295  20.818  0.00  0.00    +0.000 C 
BRANCH  21  22
ATOM     22  C   UNL     1       1.506   8.527  20.001  0.00  0.00    +0.000 C 
BRANCH  22  23
ATOM     23  C   UNL     1       1.129   9.817  20.725  0.00  0.00    +0.000 C 
BRANCH  23  24
ATOM     24  C   UNL     1      -0.348   9.862  21.119  0.00  0.00    +0.000 C 
BRANCH  24  25
ATOM     25  C   UNL     1      -0.536  10.049  22.609  0.00  0.00    +0.000 C 
ATOM     26  O   UNL     1      -0.449  11.118  23.197  0.00  0.00    +0.000 OA
BRANCH  25  27
ATOM     27  O   UNL     1      -0.830   8.900  23.253  0.00  0.00    +0.000 OA
ATOM     28  H   UNL     1      -1.588   8.972  23.863  0.00  0.00    +0.000 HD
ENDBRANCH  25  27
ENDBRANCH  24  25
ENDBRANCH  23  24
ENDBRANCH  22  23
ENDBRANCH  21  22
ENDBRANCH  19  20
ENDBRANCH   7  19
TORSDOF 14
ENDMDL
MODEL 4
REMARK VINA RESULT:      -7.1      1.473      1.825
REMARK  Name = 
REMARK  15 active torsions:
REMARK  status: ('A' for Active; 'I' for Inactive)
REMARK    1  A    between atoms: C_1  and  C_2
REMARK    2  A    between atoms: C_2  and  C_3
REMARK    3  A    between atoms: C_3  and  C_4
REMARK    4  A    between atoms: C_4  and  C_5
REMARK    5  A    between atoms: C_5  and  C_6
REMARK    6  A    between atoms: C_6  and  S_7
REMARK    7  A    between atoms: S_7  and  N_10
REMARK    8  A    between atoms: N_10  and  C_11
REMARK    9  A    between atoms: C_17  and  C_18
REMARK   10  A    between atoms: C_18  and  C_19
REMARK   11  A    between atoms: C_20  and  C_21
REMARK   12  A    between atoms: C_21  and  C_22
REMARK   13  A    between atoms: C_22  and  C_23
REMARK   14  A    between atoms: C_23  and  C_24
REMARK   15  A    between atoms: C_24  and  O_26
REMARK                            x       y       z     vdW  Elec       q    Type
REMARK                         _______ _______ _______ _____ _____    ______ ____
ROOT
ATOM      1  C   UNL     1       4.394   4.104  18.110  0.00  0.00    +0.000 C 
ATOM      2  C   UNL     1       3.454   2.939  17.691  0.00  0.00    +0.000 C 
ATOM      3  C   UNL     1       3.127   1.891  18.769  0.00  0.00    +0.000 C 
ATOM      4  C   UNL     1       2.416   2.700  19.854  0.00  0.00    +0.000 C 
ATOM      5  C   UNL     1       2.227   4.060  19.175  0.00  0.00    +0.000 C 
ATOM      6  C   UNL     1       2.112   3.684  17.695  0.00  0.00    +0.000 C 
ATOM      7  C   UNL     1       3.570   4.832  19.215  0.00  0.00    +0.000 C 
ENDROOT
BRANCH   1   8
ATOM      8  N   UNL     1       5.792   3.759  18.557  0.00  0.00    +0.000 NA
ATOM      9  H   UNL     1       5.825   3.795  19.582  0.00  0.00    +0.000 HD
BRANCH   8  10
ATOM     10  S   UNL     1       6.955   4.850  17.961  0.00  0.00    +0.000 S 
ATOM     11  O   UNL     1       8.132   4.067  17.691  0.00  0.00    +0.000 OA
ATOM     12  O   UNL     1       6.991   5.975  18.876  0.00  0.00    +0.000 OA
BRANCH  10  13
ATOM     13  C   UNL     1       6.320   5.458  16.365  0.00  0.00    +0.000 C 
BRANCH  13  14
ATOM     14  C   UNL     1       6.527   4.307  15.372  0.00  0.00    +0.000 C 
BRANCH  14  15
ATOM     15  C   UNL     1       5.610   4.328  14.162  0.00  0.00    +0.000 C 
BRANCH  15  16
ATOM     16  C   UNL     1       6.312   3.656  12.975  0.00  0.00    +0.000 C 
BRANCH  16  18
ATOM     17  C   UNL     1       5.917   1.853  11.262  0.00  0.00    +0.000 C 
ATOM     18  C   UNL     1       5.299   2.995  12.049  0.00  0.00    +0.000 C 
ENDBRANCH  16  18
ENDBRANCH  15  16
ENDBRANCH  14  15
ENDBRANCH  13  14
ENDBRANCH  10  13
ENDBRANCH   8  10
ENDBRANCH   1   8
BRANCH   7  19
ATOM     19  C   UNL     1       3.345   6.313  18.856  0.00  0.00    +0.000 C 
BRANCH  19  20
ATOM     20  C   UNL     1       2.438   7.039  19.818  0.00  0.00    +0.000 C 
ATOM     21  C   UNL     1       1.705   8.121  19.520  0.00  0.00    +0.000 C 
BRANCH  21  22
ATOM     22  C   UNL     1       1.731   8.811  18.184  0.00  0.00    +0.000 C 
BRANCH  22  23
ATOM     23  C   UNL     1       1.109  10.204  18.221  0.00  0.00    +0.000 C 
BRANCH  23  24
ATOM     24  C   UNL     1       0.002  10.327  19.268  0.00  0.00    +0.000 C 
BRANCH  24  25
ATOM     25  C   UNL     1      -0.891  11.523  19.017  0.00  0.00    +0.000 C 
ATOM     26  O   UNL     1      -0.778  12.295  18.074  0.00  0.00    +0.000 OA
BRANCH  25  27
ATOM     27  O   UNL     1      -1.862  11.662  19.943  0.00  0.00    +0.000 OA
ATOM     28  H   UNL     1      -1.549  11.566  20.863  0.00  0.00    +0.000 HD
ENDBRANCH  25  27
ENDBRANCH  24  25
ENDBRANCH  23  24
ENDBRANCH  22  23
ENDBRANCH  21  22
ENDBRANCH  19  20
ENDBRANCH   7  19
TORSDOF 14
ENDMDL
MODEL 5
REMARK VINA RESULT:      -7.0      2.164      2.491
REMARK  Name = 
REMARK  15 active torsions:
REMARK  status: ('A' for Active; 'I' for Inactive)
REMARK    1  A    between atoms: C_1  and  C_2
REMARK    2  A    between atoms: C_2  and  C_3
REMARK    3  A    between atoms: C_3  and  C_4
REMARK    4  A    between atoms: C_4  and  C_5
REMARK    5  A    between atoms: C_5  and  C_6
REMARK    6  A    between atoms: C_6  and  S_7
REMARK    7  A    between atoms: S_7  and  N_10
REMARK    8  A    between atoms: N_10  and  C_11
REMARK    9  A    between atoms: C_17  and  C_18
REMARK   10  A    between atoms: C_18  and  C_19
REMARK   11  A    between atoms: C_20  and  C_21
REMARK   12  A    between atoms: C_21  and  C_22
REMARK   13  A    between atoms: C_22  and  C_23
REMARK   14  A    between atoms: C_23  and  C_24
REMARK   15  A    between atoms: C_24  and  O_26
REMARK                            x       y       z     vdW  Elec       q    Type
REMARK                         _______ _______ _______ _____ _____    ______ ____
ROOT
ATOM      1  C   UNL     1       4.225   3.797  17.872  0.00  0.00    +0.000 C 
ATOM      2  C   UNL     1       3.782   2.312  17.987  0.00  0.00    +0.000 C 
ATOM      3  C   UNL     1       3.828   1.682  19.390  0.00  0.00    +0.000 C 
ATOM      4  C   UNL     1       2.843   2.529  20.197  0.00  0.00    +0.000 C 
ATOM      5  C   UNL     1       2.193   3.394  19.113  0.00  0.00    +0.000 C 
ATOM      6  C   UNL     1       2.261   2.492  17.876  0.00  0.00    +0.000 C 
ATOM      7  C   UNL     1       3.164   4.542  18.738  0.00  0.00    +0.000 C 
ENDROOT
BRANCH   1   8
ATOM      8  N   UNL     1       5.640   4.145  18.258  0.00  0.00    +0.000 NA
ATOM      9  H   UNL     1       5.620   4.658  19.146  0.00  0.00    +0.000 HD
BRANCH   8  10
ATOM     10  S   UNL     1       6.406   5.135  17.103  0.00  0.00    +0.000 S 
ATOM     11  O   UNL     1       7.697   4.546  16.869  0.00  0.00    +0.000 OA
ATOM     12  O   UNL     1       6.274   6.505  17.564  0.00  0.00    +0.000 OA
BRANCH  10  13
ATOM     13  C   UNL     1       5.439   4.976  15.567  0.00  0.00    +0.000 C 
BRANCH  13  14
ATOM     14  C   UNL     1       6.132   3.871  14.756  0.00  0.00    +0.000 C 
BRANCH  14  15
ATOM     15  C   UNL     1       6.856   4.347  13.509  0.00  0.00    +0.000 C 
BRANCH  15  16
ATOM     16  C   UNL     1       6.311   3.601  12.285  0.00  0.00    +0.000 C 
BRANCH  16  18
ATOM     17  C   UNL     1       4.095   3.258  11.138  0.00  0.00    +0.000 C 
ATOM     18  C   UNL     1       4.835   3.270  12.465  0.00  0.00    +0.000 C 
ENDBRANCH  16  18
ENDBRANCH  15  16
ENDBRANCH  14  15
ENDBRANCH  13  14
ENDBRANCH  10  13
ENDBRANCH   8  10
ENDBRANCH   1   8
BRANCH   7  19
ATOM     19  C   UNL     1       2.427   5.615  17.913  0.00  0.00    +0.000 C 
BRANCH  19  20
ATOM     20  C   UNL     1       2.755   7.028  18.326  0.00  0.00    +0.000 C 
ATOM     21  C   UNL     1       2.412   7.589  19.494  0.00  0.00    +0.000 C 
BRANCH  21  22
ATOM     22  C   UNL     1       1.587   6.901  20.546  0.00  0.00    +0.000 C 
BRANCH  22  23
ATOM     23  C   UNL     1       0.629   7.847  21.264  0.00  0.00    +0.000 C 
BRANCH  23  24
ATOM     24  C   UNL     1       0.798   9.302  20.824  0.00  0.00    +0.000 C 
BRANCH  24  25
ATOM     25  C   UNL     1       0.663  10.267  21.982  0.00  0.00    +0.000 C 
ATOM     26  O   UNL     1       0.412   9.946  23.136  0.00  0.00    +0.000 OA
BRANCH  25  27
ATOM     27  O   UNL     1       0.862  11.553  21.625  0.00  0.00    +0.000 OA
ATOM     28  H   UNL     1       1.581  11.676  20.976  0.00  0.00    +0.000 HD
ENDBRANCH  25  27
ENDBRANCH  24  25
ENDBRANCH  23  24
ENDBRANCH  22  23
ENDBRANCH  21  22
ENDBRANCH  19  20
ENDBRANCH   7  19
TORSDOF 14
ENDMDL
MODEL 6
REMARK VINA RESULT:      -7.0      1.801      2.307
REMARK  Name = 
REMARK  15 active torsions:
REMARK  status: ('A' for Active; 'I' for Inactive)
REMARK    1  A    between atoms: C_1  and  C_2
REMARK    2  A    between atoms: C_2  and  C_3
REMARK    3  A    between atoms: C_3  and  C_4
REMARK    4  A    between atoms: C_4  and  C_5
REMARK    5  A    between atoms: C_5  and  C_6
REMARK    6  A    between atoms: C_6  and  S_7
REMARK    7  A    between atoms: S_7  and  N_10
REMARK    8  A    between atoms: N_10  and  C_11
REMARK    9  A    between atoms: C_17  and  C_18
REMARK   10  A    between atoms: C_18  and  C_19
REMARK   11  A    between atoms: C_20  and  C_21
REMARK   12  A    between atoms: C_21  and  C_22
REMARK   13  A    between atoms: C_22  and  C_23
REMARK   14  A    between atoms: C_23  and  C_24
REMARK   15  A    between atoms: C_24  and  O_26
REMARK                            x       y       z     vdW  Elec       q    Type
REMARK                         _______ _______ _______ _____ _____    ______ ____
ROOT
ATOM      1  C   UNL     1       4.185   4.244  18.227  0.00  0.00    +0.000 C 
ATOM      2  C   UNL     1       3.211   3.537  17.243  0.00  0.00    +0.000 C 
ATOM      3  C   UNL     1       2.875   2.064  17.539  0.00  0.00    +0.000 C 
ATOM      4  C   UNL     1       2.200   2.118  18.910  0.00  0.00    +0.000 C 
ATOM      5  C   UNL     1       2.033   3.624  19.132  0.00  0.00    +0.000 C 
ATOM      6  C   UNL     1       1.887   4.161  17.705  0.00  0.00    +0.000 C 
ATOM      7  C   UNL     1       3.395   4.220  19.571  0.00  0.00    +0.000 C 
ENDROOT
BRANCH   1   8
ATOM      8  N   UNL     1       5.580   3.690  18.361  0.00  0.00    +0.000 NA
ATOM      9  H   UNL     1       5.711   3.364  19.325  0.00  0.00    +0.000 HD
BRANCH   8  10
ATOM     10  S   UNL     1       6.778   4.856  18.039  0.00  0.00    +0.000 S 
ATOM     11  O   UNL     1       8.026   4.142  18.000  0.00  0.00    +0.000 OA
ATOM     12  O   UNL     1       6.565   5.952  18.966  0.00  0.00    +0.000 OA
BRANCH  10  13
ATOM     13  C   UNL     1       6.448   5.483  16.360  0.00  0.00    +0.000 C 
BRANCH  13  14
ATOM     14  C   UNL     1       6.389   4.241  15.460  0.00  0.00    +0.000 C 
BRANCH  14  15
ATOM     15  C   UNL     1       6.660   4.501  13.988  0.00  0.00    +0.000 C 
BRANCH  15  16
ATOM     16  C   UNL     1       5.750   3.608  13.135  0.00  0.00    +0.000 C 
BRANCH  16  18
ATOM     17  C   UNL     1       5.922   1.869  11.322  0.00  0.00    +0.000 C 
ATOM     18  C   UNL     1       6.451   3.192  11.849  0.00  0.00    +0.000 C 
ENDBRANCH  16  18
ENDBRANCH  15  16
ENDBRANCH  14  15
ENDBRANCH  13  14
ENDBRANCH  10  13
ENDBRANCH   8  10
ENDBRANCH   1   8
BRANCH   7  19
ATOM     19  C   UNL     1       3.200   5.644  20.125  0.00  0.00    +0.000 C 
BRANCH  19  20
ATOM     20  C   UNL     1       1.822   5.892  20.688  0.00  0.00    +0.000 C 
ATOM     21  C   UNL     1       1.167   7.061  20.637  0.00  0.00    +0.000 C 
BRANCH  21  22
ATOM     22  C   UNL     1       1.746   8.323  20.060  0.00  0.00    +0.000 C 
BRANCH  22  23
ATOM     23  C   UNL     1       1.848   8.289  18.538  0.00  0.00    +0.000 C 
BRANCH  23  24
ATOM     24  C   UNL     1       1.958   9.684  17.923  0.00  0.00    +0.000 C 
BRANCH  24  25
ATOM     25  C   UNL     1       0.892  10.623  18.446  0.00  0.00    +0.000 C 
ATOM     26  O   UNL     1       1.084  11.516  19.260  0.00  0.00    +0.000 OA
BRANCH  25  27
ATOM     27  O   UNL     1      -0.325  10.392  17.910  0.00  0.00    +0.000 OA
ATOM     28  H   UNL     1      -1.066  10.564  18.523  0.00  0.00    +0.000 HD
ENDBRANCH  25  27
ENDBRANCH  24  25
ENDBRANCH  23  24
ENDBRANCH  22  23
ENDBRANCH  21  22
ENDBRANCH  19  20
ENDBRANCH   7  19
TORSDOF 14
ENDMDL
MODEL 7
REMARK VINA RESULT:      -7.0      1.317      1.719
REMARK  Name = 
REMARK  15 active torsions:
REMARK  status: ('A' for Active; 'I' for Inactive)
REMARK    1  A    between atoms: C_1  and  C_2
REMARK    2  A    between atoms: C_2  and  C_3
REMARK    3  A    between atoms: C_3  and  C_4
REMARK    4  A    between atoms: C_4  and  C_5
REMARK    5  A    between atoms: C_5  and  C_6
REMARK    6  A    between atoms: C_6  and  S_7
REMARK    7  A    between atoms: S_7  and  N_10
REMARK    8  A    between atoms: N_10  and  C_11
REMARK    9  A    between atoms: C_17  and  C_18
REMARK   10  A    between atoms: C_18  and  C_19
REMARK   11  A    between atoms: C_20  and  C_21
REMARK   12  A    between atoms: C_21  and  C_22
REMARK   13  A    between atoms: C_22  and  C_23
REMARK   14  A    between atoms: C_23  and  C_24
REMARK   15  A    between atoms: C_24  and  O_26
REMARK                            x       y       z     vdW  Elec       q    Type
REMARK                         _______ _______ _______ _____ _____    ______ ____
ROOT
ATOM      1  C   UNL     1       3.680   5.028  17.763  0.00  0.00    +0.000 C 
ATOM      2  C   UNL     1       2.865   3.834  17.191  0.00  0.00    +0.000 C 
ATOM      3  C   UNL     1       2.930   2.512  17.976  0.00  0.00    +0.000 C 
ATOM      4  C   UNL     1       2.339   2.874  19.339  0.00  0.00    +0.000 C 
ATOM      5  C   UNL     1       1.809   4.290  19.099  0.00  0.00    +0.000 C 
ATOM      6  C   UNL     1       1.453   4.268  17.609  0.00  0.00    +0.000 C 
ATOM      7  C   UNL     1       2.996   5.284  19.140  0.00  0.00    +0.000 C 
ENDROOT
BRANCH   1   8
ATOM      8  N   UNL     1       5.176   4.874  17.874  0.00  0.00    +0.000 NA
ATOM      9  H   UNL     1       5.491   5.355  18.724  0.00  0.00    +0.000 HD
BRANCH   8  10
ATOM     10  S   UNL     1       6.001   5.559  16.552  0.00  0.00    +0.000 S 
ATOM     11  O   UNL     1       7.192   6.158  17.095  0.00  0.00    +0.000 OA
ATOM     12  O   UNL     1       5.035   6.344  15.808  0.00  0.00    +0.000 OA
BRANCH  10  13
ATOM     13  C   UNL     1       6.516   4.170  15.491  0.00  0.00    +0.000 C 
BRANCH  13  14
ATOM     14  C   UNL     1       5.690   4.306  14.204  0.00  0.00    +0.000 C 
BRANCH  14  15
ATOM     15  C   UNL     1       6.329   3.707  12.964  0.00  0.00    +0.000 C 
BRANCH  15  16
ATOM     16  C   UNL     1       5.236   3.158  12.039  0.00  0.00    +0.000 C 
BRANCH  16  18
ATOM     17  C   UNL     1       7.175   1.810  11.164  0.00  0.00    +0.000 C 
ATOM     18  C   UNL     1       5.675   1.846  11.400  0.00  0.00    +0.000 C 
ENDBRANCH  16  18
ENDBRANCH  15  16
ENDBRANCH  14  15
ENDBRANCH  13  14
ENDBRANCH  10  13
ENDBRANCH   8  10
ENDBRANCH   1   8
BRANCH   7  19
ATOM     19  C   UNL     1       2.477   6.731  19.242  0.00  0.00    +0.000 C 
BRANCH  19  20
ATOM     20  C   UNL     1       2.961   7.628  18.130  0.00  0.00    +0.000 C 
ATOM     21  C   UNL     1       2.317   8.715  17.680  0.00  0.00    +0.000 C 
BRANCH  21  22
ATOM     22  C   UNL     1       0.974   9.164  18.186  0.00  0.00    +0.000 C 
BRANCH  22  23
ATOM     23  C   UNL     1       1.066   9.985  19.469  0.00  0.00    +0.000 C 
BRANCH  23  24
ATOM     24  C   UNL     1       1.192  11.485  19.201  0.00  0.00    +0.000 C 
BRANCH  24  25
ATOM     25  C   UNL     1       0.573  12.316  20.305  0.00  0.00    +0.000 C 
ATOM     26  O   UNL     1       0.899  12.268  21.483  0.00  0.00    +0.000 OA
BRANCH  25  27
ATOM     27  O   UNL     1      -0.391  13.150  19.862  0.00  0.00    +0.000 OA
ATOM     28  H   UNL     1      -0.801  12.870  19.022  0.00  0.00    +0.000 HD
ENDBRANCH  25  27
ENDBRANCH  24  25
ENDBRANCH  23  24
ENDBRANCH  22  23
ENDBRANCH  21  22
ENDBRANCH  19  20
ENDBRANCH   7  19
TORSDOF 14
ENDMDL
MODEL 8
REMARK VINA RESULT:      -6.9      0.993      1.187
REMARK  Name = 
REMARK  15 active torsions:
REMARK  status: ('A' for Active; 'I' for Inactive)
REMARK    1  A    between atoms: C_1  and  C_2
REMARK    2  A    between atoms: C_2  and  C_3
REMARK    3  A    between atoms: C_3  and  C_4
REMARK    4  A    between atoms: C_4  and  C_5
REMARK    5  A    between atoms: C_5  and  C_6
REMARK    6  A    between atoms: C_6  and  S_7
REMARK    7  A    between atoms: S_7  and  N_10
REMARK    8  A    between atoms: N_10  and  C_11
REMARK    9  A    between atoms: C_17  and  C_18
REMARK   10  A    between atoms: C_18  and  C_19
REMARK   11  A    between atoms: C_20  and  C_21
REMARK   12  A    between atoms: C_21  and  C_22
REMARK   13  A    between atoms: C_22  and  C_23
REMARK   14  A    between atoms: C_23  and  C_24
REMARK   15  A    between atoms: C_24  and  O_26
REMARK                            x       y       z     vdW  Elec       q    Type
REMARK                         _______ _______ _______ _____ _____    ______ ____
ROOT
ATOM      1  C   UNL     1       4.065   5.654  17.468  0.00  0.00    +0.000 C 
ATOM      2  C   UNL     1       3.859   4.130  17.697  0.00  0.00    +0.000 C 
ATOM      3  C   UNL     1       4.143   3.598  19.113  0.00  0.00    +0.000 C 
ATOM      4  C   UNL     1       3.134   4.345  19.987  0.00  0.00    +0.000 C 
ATOM      5  C   UNL     1       2.255   5.043  18.946  0.00  0.00    +0.000 C 
ATOM      6  C   UNL     1       2.325   4.088  17.751  0.00  0.00    +0.000 C 
ATOM      7  C   UNL     1       3.003   6.292  18.414  0.00  0.00    +0.000 C 
ENDROOT
BRANCH   1   8
ATOM      8  N   UNL     1       5.446   6.220  17.677  0.00  0.00    +0.000 NA
ATOM      9  H   UNL     1       5.404   7.238  17.557  0.00  0.00    +0.000 HD
BRANCH   8  10
ATOM     10  S   UNL     1       6.576   5.611  16.559  0.00  0.00    +0.000 S 
ATOM     11  O   UNL     1       6.979   4.325  17.062  0.00  0.00    +0.000 OA
ATOM     12  O   UNL     1       7.545   6.663  16.317  0.00  0.00    +0.000 OA
BRANCH  10  13
ATOM     13  C   UNL     1       5.665   5.335  15.005  0.00  0.00    +0.000 C 
BRANCH  13  14
ATOM     14  C   UNL     1       6.162   3.984  14.469  0.00  0.00    +0.000 C 
BRANCH  14  15
ATOM     15  C   UNL     1       6.598   3.991  13.015  0.00  0.00    +0.000 C 
BRANCH  15  16
ATOM     16  C   UNL     1       5.686   3.062  12.203  0.00  0.00    +0.000 C 
BRANCH  16  18
ATOM     17  C   UNL     1       3.633   2.990  10.747  0.00  0.00    +0.000 C 
ATOM     18  C   UNL     1       4.416   3.787  11.776  0.00  0.00    +0.000 C 
ENDBRANCH  16  18
ENDBRANCH  15  16
ENDBRANCH  14  15
ENDBRANCH  13  14
ENDBRANCH  10  13
ENDBRANCH   8  10
ENDBRANCH   1   8
BRANCH   7  19
ATOM     19  C   UNL     1       2.035   7.200  17.632  0.00  0.00    +0.000 C 
BRANCH  19  20
ATOM     20  C   UNL     1       2.401   8.662  17.682  0.00  0.00    +0.000 C 
ATOM     21  C   UNL     1       1.955   9.538  18.595  0.00  0.00    +0.000 C 
BRANCH  21  22
ATOM     22  C   UNL     1       0.966   9.195  19.674  0.00  0.00    +0.000 C 
BRANCH  22  23
ATOM     23  C   UNL     1      -0.091  10.277  19.878  0.00  0.00    +0.000 C 
BRANCH  23  24
ATOM     24  C   UNL     1      -0.017  11.379  18.821  0.00  0.00    +0.000 C 
BRANCH  24  25
ATOM     25  C   UNL     1      -1.370  11.672  18.207  0.00  0.00    +0.000 C 
ATOM     26  O   UNL     1      -2.421  11.143  18.545  0.00  0.00    +0.000 OA
BRANCH  25  27
ATOM     27  O   UNL     1      -1.319  12.606  17.235  0.00  0.00    +0.000 OA
ATOM     28  H   UNL     1      -0.927  13.453  17.521  0.00  0.00    +0.000 HD
ENDBRANCH  25  27
ENDBRANCH  24  25
ENDBRANCH  23  24
ENDBRANCH  22  23
ENDBRANCH  21  22
ENDBRANCH  19  20
ENDBRANCH   7  19
TORSDOF 14
ENDMDL
MODEL 9
REMARK VINA RESULT:      -6.9      1.502      1.757
REMARK  Name = 
REMARK  15 active torsions:
REMARK  status: ('A' for Active; 'I' for Inactive)
REMARK    1  A    between atoms: C_1  and  C_2
REMARK    2  A    between atoms: C_2  and  C_3
REMARK    3  A    between atoms: C_3  and  C_4
REMARK    4  A    between atoms: C_4  and  C_5
REMARK    5  A    between atoms: C_5  and  C_6
REMARK    6  A    between atoms: C_6  and  S_7
REMARK    7  A    between atoms: S_7  and  N_10
REMARK    8  A    between atoms: N_10  and  C_11
REMARK    9  A    between atoms: C_17  and  C_18
REMARK   10  A    between atoms: C_18  and  C_19
REMARK   11  A    between atoms: C_20  and  C_21
REMARK   12  A    between atoms: C_21  and  C_22
REMARK   13  A    between atoms: C_22  and  C_23
REMARK   14  A    between atoms: C_23  and  C_24
REMARK   15  A    between atoms: C_24  and  O_26
REMARK                            x       y       z     vdW  Elec       q    Type
REMARK                         _______ _______ _______ _____ _____    ______ ____
ROOT
ATOM      1  C   UNL     1       4.212   4.198  17.537  0.00  0.00    +0.000 C 
ATOM      2  C   UNL     1       3.218   3.036  17.258  0.00  0.00    +0.000 C 
ATOM      3  C   UNL     1       3.086   1.960  18.351  0.00  0.00    +0.000 C 
ATOM      4  C   UNL     1       2.571   2.739  19.562  0.00  0.00    +0.000 C 
ATOM      5  C   UNL     1       2.263   4.113  18.959  0.00  0.00    +0.000 C 
ATOM      6  C   UNL     1       1.894   3.770  17.512  0.00  0.00    +0.000 C 
ATOM      7  C   UNL     1       3.590   4.894  18.785  0.00  0.00    +0.000 C 
ENDROOT
BRANCH   1   8
ATOM      8  N   UNL     1       5.667   3.853  17.727  0.00  0.00    +0.000 NA
ATOM      9  H   UNL     1       5.879   3.870  18.730  0.00  0.00    +0.000 HD
BRANCH   8  10
ATOM     10  S   UNL     1       6.706   4.961  16.957  0.00  0.00    +0.000 S 
ATOM     11  O   UNL     1       7.892   4.222  16.616  0.00  0.00    +0.000 OA
ATOM     12  O   UNL     1       6.768   6.141  17.799  0.00  0.00    +0.000 OA
BRANCH  10  13
ATOM     13  C   UNL     1       5.887   5.438  15.400  0.00  0.00    +0.000 C 
BRANCH  13  14
ATOM     14  C   UNL     1       6.202   4.311  14.406  0.00  0.00    +0.000 C 
BRANCH  14  15
ATOM     15  C   UNL     1       7.250   4.650  13.361  0.00  0.00    +0.000 C 
BRANCH  15  16
ATOM     16  C   UNL     1       6.842   4.045  12.012  0.00  0.00    +0.000 C 
BRANCH  16  18
ATOM     17  C   UNL     1       5.865   1.795  11.442  0.00  0.00    +0.000 C 
ATOM     18  C   UNL     1       5.653   3.108  12.176  0.00  0.00    +0.000 C 
ENDBRANCH  16  18
ENDBRANCH  15  16
ENDBRANCH  14  15
ENDBRANCH  13  14
ENDBRANCH  10  13
ENDBRANCH   8  10
ENDBRANCH   1   8
BRANCH   7  19
ATOM     19  C   UNL     1       3.301   6.381  18.506  0.00  0.00    +0.000 C 
BRANCH  19  20
ATOM     20  C   UNL     1       2.438   7.038  19.555  0.00  0.00    +0.000 C 
ATOM     21  C   UNL     1       1.751   8.177  19.386  0.00  0.00    +0.000 C 
BRANCH  21  22
ATOM     22  C   UNL     1       1.794   9.005  18.130  0.00  0.00    +0.000 C 
BRANCH  22  23
ATOM     23  C   UNL     1       1.393  10.459  18.363  0.00  0.00    +0.000 C 
BRANCH  23  24
ATOM     24  C   UNL     1      -0.109  10.625  18.599  0.00  0.00    +0.000 C 
BRANCH  24  25
ATOM     25  C   UNL     1      -0.412  11.162  19.982  0.00  0.00    +0.000 C 
ATOM     26  O   UNL     1      -0.554  10.474  20.984  0.00  0.00    +0.000 OA
BRANCH  25  27
ATOM     27  O   UNL     1      -0.502  12.508  20.019  0.00  0.00    +0.000 OA
ATOM     28  H   UNL     1      -0.580  12.923  19.139  0.00  0.00    +0.000 HD
ENDBRANCH  25  27
ENDBRANCH  24  25
ENDBRANCH  23  24
ENDBRANCH  22  23
ENDBRANCH  21  22
ENDBRANCH  19  20
ENDBRANCH   7  19
TORSDOF 14
ENDMDL
