MODEL 1
REMARK VINA RESULT:      -7.6      0.000      0.000
REMARK  Name = 
REMARK  6 active torsions:
REMARK  status: ('A' for Active; 'I' for Inactive)
REMARK    1  A    between atoms: C_2  and  C_3
REMARK    2  A    between atoms: C_3  and  C_4
REMARK    3  A    between atoms: C_11  and  C_12
REMARK    4  A    between atoms: C_12  and  C_13
REMARK    5  A    between atoms: N_15  and  O_16
REMARK    6  A    between atoms: N_17  and  O_18
REMARK                            x       y       z     vdW  Elec       q    Type
REMARK                         _______ _______ _______ _____ _____    ______ ____
ROOT
ATOM      1  C   UNL     1       3.482   4.889  19.137  0.00  0.00    +0.000 C 
ATOM      2  C   UNL     1       3.756   3.439  18.675  0.00  0.00    +0.000 C 
ATOM      3  C   UNL     1       3.378   3.822  17.236  0.00  0.00    +0.000 C 
ATOM      4  C   UNL     1       3.116   5.267  17.680  0.00  0.00    +0.000 C 
ATOM      5  C   UNL     1       4.565   5.660  17.376  0.00  0.00    +0.000 C 
ATOM      6  C   UNL     1       4.952   5.274  18.872  0.00  0.00    +0.000 C 
ATOM      7  C   UNL     1       5.229   3.772  18.421  0.00  0.00    +0.000 C 
ATOM      8  C   UNL     1       4.850   4.148  16.907  0.00  0.00    +0.000 C 
ENDROOT
BRANCH   1   9
ATOM      9  C   UNL     1       2.663   5.274  20.327  0.00  0.00    +0.000 C 
BRANCH   9  11
ATOM     10  O   UNL     1       0.621   3.956  20.289  0.00  0.00    +0.000 OA
ATOM     11  C   UNL     1       1.705   4.207  20.806  0.00  0.00    +0.000 C 
ATOM     12  N   UNL     1       2.168   3.511  21.899  0.00  0.00    +0.000 N 
ATOM     13  H   UNL     1       3.140   3.510  22.192  0.00  0.00    +0.000 HD
BRANCH  12  14
ATOM     14  O   UNL     1       1.379   2.411  22.311  0.00  0.00    +0.000 OA
ATOM     15  H   UNL     1       1.609   2.334  23.264  0.00  0.00    +0.000 HD
ENDBRANCH  12  14
ENDBRANCH   9  11
ENDBRANCH   1   9
BRANCH   8  16
ATOM     16  C   UNL     1       5.624   3.704  15.711  0.00  0.00    +0.000 C 
BRANCH  16  17
ATOM     17  C   UNL     1       6.908   4.481  15.513  0.00  0.00    +0.000 C 
ATOM     18  O   UNL     1       7.791   4.580  16.362  0.00  0.00    +0.000 OA
ATOM     19  N   UNL     1       7.027   5.076  14.280  0.00  0.00    +0.000 N 
ATOM     20  H   UNL     1       6.510   4.771  13.464  0.00  0.00    +0.000 HD
BRANCH  19  21
ATOM     21  O   UNL     1       8.268   5.716  14.038  0.00  0.00    +0.000 OA
ATOM     22  H   UNL     1       8.043   6.337  13.310  0.00  0.00    +0.000 HD
ENDBRANCH  19  21
ENDBRANCH  16  17
ENDBRANCH   8  16
TORSDOF 6
ENDMDL
MODEL 2
REMARK VINA RESULT:      -7.4      0.475      6.588
REMARK  Name = 
REMARK  6 active torsions:
REMARK  status: ('A' for Active; 'I' for Inactive)
REMARK    1  A    between atoms: C_2  and  C_3
REMARK    2  A    between atoms: C_3  and  C_4
REMARK    3  A    between atoms: C_11  and  C_12
REMARK    4  A    between atoms: C_12  and  C_13
REMARK    5  A    between atoms: N_15  and  O_16
REMARK    6  A    between atoms: N_17  and  O_18
REMARK                            x       y       z     vdW  Elec       q    Type
REMARK                         _______ _______ _______ _____ _____    ______ ____
ROOT
ATOM      1  C   UNL     1       5.016   4.325  16.938  0.00  0.00    +0.000 C 
ATOM      2  C   UNL     1       4.277   5.653  17.224  0.00  0.00    +0.000 C 
ATOM      3  C   UNL     1       3.024   4.871  17.644  0.00  0.00    +0.000 C 
ATOM      4  C   UNL     1       3.751   3.545  17.376  0.00  0.00    +0.000 C 
ATOM      5  C   UNL     1       4.244   3.482  18.825  0.00  0.00    +0.000 C 
ATOM      6  C   UNL     1       5.548   4.283  18.385  0.00  0.00    +0.000 C 
ATOM      7  C   UNL     1       4.803   5.664  18.663  0.00  0.00    +0.000 C 
ATOM      8  C   UNL     1       3.484   4.869  19.117  0.00  0.00    +0.000 C 
ENDROOT
BRANCH   1   9
ATOM      9  C   UNL     1       5.792   4.021  15.697  0.00  0.00    +0.000 C 
BRANCH   9  11
ATOM     10  O   UNL     1       7.344   5.835  16.157  0.00  0.00    +0.000 OA
ATOM     11  C   UNL     1       6.869   5.029  15.364  0.00  0.00    +0.000 C 
ATOM     12  N   UNL     1       7.295   4.958  14.057  0.00  0.00    +0.000 N 
ATOM     13  H   UNL     1       7.120   4.162  13.453  0.00  0.00    +0.000 HD
BRANCH  12  14
ATOM     14  O   UNL     1       8.394   5.783  13.719  0.00  0.00    +0.000 OA
ATOM     15  H   UNL     1       9.096   5.124  13.520  0.00  0.00    +0.000 HD
ENDBRANCH  12  14
ENDBRANCH   9  11
ENDBRANCH   1   9
BRANCH   8  16
ATOM     16  C   UNL     1       2.665   5.216  20.316  0.00  0.00    +0.000 C 
BRANCH  16  17
ATOM     17  C   UNL     1       1.776   4.081  20.775  0.00  0.00    +0.000 C 
ATOM     18  O   UNL     1       0.761   3.718  20.184  0.00  0.00    +0.000 OA
ATOM     19  N   UNL     1       2.198   3.459  21.925  0.00  0.00    +0.000 N 
ATOM     20  H   UNL     1       3.155   3.495  22.256  0.00  0.00    +0.000 HD
BRANCH  19  21
ATOM     21  O   UNL     1       1.439   2.326  22.310  0.00  0.00    +0.000 OA
ATOM     22  H   UNL     1       1.301   1.867  21.451  0.00  0.00    +0.000 HD
ENDBRANCH  19  21
ENDBRANCH  16  17
ENDBRANCH   8  16
TORSDOF 6
ENDMDL
MODEL 3
REMARK VINA RESULT:      -7.4      0.445      1.168
REMARK  Name = 
REMARK  6 active torsions:
REMARK  status: ('A' for Active; 'I' for Inactive)
REMARK    1  A    between atoms: C_2  and  C_3
REMARK    2  A    between atoms: C_3  and  C_4
REMARK    3  A    between atoms: C_11  and  C_12
REMARK    4  A    between atoms: C_12  and  C_13
REMARK    5  A    between atoms: N_15  and  O_16
REMARK    6  A    between atoms: N_17  and  O_18
REMARK                            x       y       z     vdW  Elec       q    Type
REMARK                         _______ _______ _______ _____ _____    ______ ____
ROOT
ATOM      1  C   UNL     1       3.578   4.831  19.058  0.00  0.00    +0.000 C 
ATOM      2  C   UNL     1       3.056   4.816  17.602  0.00  0.00    +0.000 C 
ATOM      3  C   UNL     1       4.311   5.572  17.141  0.00  0.00    +0.000 C 
ATOM      4  C   UNL     1       4.845   5.581  18.580  0.00  0.00    +0.000 C 
ATOM      5  C   UNL     1       5.587   4.260  18.350  0.00  0.00    +0.000 C 
ATOM      6  C   UNL     1       4.289   3.480  18.840  0.00  0.00    +0.000 C 
ATOM      7  C   UNL     1       3.727   3.462  17.349  0.00  0.00    +0.000 C 
ATOM      8  C   UNL     1       5.035   4.243  16.839  0.00  0.00    +0.000 C 
ENDROOT
BRANCH   1   9
ATOM      9  C   UNL     1       2.777   5.230  20.256  0.00  0.00    +0.000 C 
BRANCH   9  11
ATOM     10  O   UNL     1       0.726   3.924  20.247  0.00  0.00    +0.000 OA
ATOM     11  C   UNL     1       1.815   4.174  20.753  0.00  0.00    +0.000 C 
ATOM     12  N   UNL     1       2.283   3.485  21.848  0.00  0.00    +0.000 N 
ATOM     13  H   UNL     1       3.257   3.480  22.134  0.00  0.00    +0.000 HD
BRANCH  12  14
ATOM     14  O   UNL     1       1.490   2.394  22.278  0.00  0.00    +0.000 OA
ATOM     15  H   UNL     1       1.056   2.755  23.082  0.00  0.00    +0.000 HD
ENDBRANCH  12  14
ENDBRANCH   9  11
ENDBRANCH   1   9
BRANCH   8  16
ATOM     16  C   UNL     1       5.794   3.891  15.603  0.00  0.00    +0.000 C 
BRANCH  16  17
ATOM     17  C   UNL     1       6.874   4.895  15.265  0.00  0.00    +0.000 C 
ATOM     18  O   UNL     1       7.432   5.612  16.093  0.00  0.00    +0.000 OA
ATOM     19  N   UNL     1       7.208   4.944  13.933  0.00  0.00    +0.000 N 
ATOM     20  H   UNL     1       7.028   4.183  13.288  0.00  0.00    +0.000 HD
BRANCH  19  21
ATOM     21  O   UNL     1       8.292   5.799  13.614  0.00  0.00    +0.000 OA
ATOM     22  H   UNL     1       8.772   5.279  12.932  0.00  0.00    +0.000 HD
ENDBRANCH  19  21
ENDBRANCH  16  17
ENDBRANCH   8  16
TORSDOF 6
ENDMDL
MODEL 4
REMARK VINA RESULT:      -7.4      0.462      6.579
REMARK  Name = 
REMARK  6 active torsions:
REMARK  status: ('A' for Active; 'I' for Inactive)
REMARK    1  A    between atoms: C_2  and  C_3
REMARK    2  A    between atoms: C_3  and  C_4
REMARK    3  A    between atoms: C_11  and  C_12
REMARK    4  A    between atoms: C_12  and  C_13
REMARK    5  A    between atoms: N_15  and  O_16
REMARK    6  A    between atoms: N_17  and  O_18
REMARK                            x       y       z     vdW  Elec       q    Type
REMARK                         _______ _______ _______ _____ _____    ______ ____
ROOT
ATOM      1  C   UNL     1       4.923   4.402  16.889  0.00  0.00    +0.000 C 
ATOM      2  C   UNL     1       3.649   3.674  17.377  0.00  0.00    +0.000 C 
ATOM      3  C   UNL     1       4.219   3.624  18.802  0.00  0.00    +0.000 C 
ATOM      4  C   UNL     1       5.483   4.357  18.332  0.00  0.00    +0.000 C 
ATOM      5  C   UNL     1       4.856   5.717  18.659  0.00  0.00    +0.000 C 
ATOM      6  C   UNL     1       4.277   5.773  17.176  0.00  0.00    +0.000 C 
ATOM      7  C   UNL     1       2.960   5.014  17.655  0.00  0.00    +0.000 C 
ATOM      8  C   UNL     1       3.529   4.958  19.156  0.00  0.00    +0.000 C 
ENDROOT
BRANCH   1   9
ATOM      9  C   UNL     1       5.716   4.031  15.677  0.00  0.00    +0.000 C 
BRANCH   9  11
ATOM     10  O   UNL     1       7.369   5.760  16.113  0.00  0.00    +0.000 OA
ATOM     11  C   UNL     1       6.816   5.006  15.319  0.00  0.00    +0.000 C 
ATOM     12  N   UNL     1       7.163   4.969  13.988  0.00  0.00    +0.000 N 
ATOM     13  H   UNL     1       6.920   4.204  13.366  0.00  0.00    +0.000 HD
BRANCH  12  14
ATOM     14  O   UNL     1       8.276   5.760  13.617  0.00  0.00    +0.000 OA
ATOM     15  H   UNL     1       8.848   5.704  14.414  0.00  0.00    +0.000 HD
ENDBRANCH  12  14
ENDBRANCH   9  11
ENDBRANCH   1   9
BRANCH   8  16
ATOM     16  C   UNL     1       2.718   5.257  20.373  0.00  0.00    +0.000 C 
BRANCH  16  17
ATOM     17  C   UNL     1       1.812   4.115  20.778  0.00  0.00    +0.000 C 
ATOM     18  O   UNL     1       0.812   3.773  20.150  0.00  0.00    +0.000 OA
ATOM     19  N   UNL     1       2.200   3.460  21.922  0.00  0.00    +0.000 N 
ATOM     20  H   UNL     1       3.148   3.482  22.279  0.00  0.00    +0.000 HD
BRANCH  19  21
ATOM     21  O   UNL     1       1.427   2.321  22.255  0.00  0.00    +0.000 OA
ATOM     22  H   UNL     1       0.730   2.705  22.833  0.00  0.00    +0.000 HD
ENDBRANCH  19  21
ENDBRANCH  16  17
ENDBRANCH   8  16
TORSDOF 6
ENDMDL
MODEL 5
REMARK VINA RESULT:      -7.4      0.303      1.389
REMARK  Name = 
REMARK  6 active torsions:
REMARK  status: ('A' for Active; 'I' for Inactive)
REMARK    1  A    between atoms: C_2  and  C_3
REMARK    2  A    between atoms: C_3  and  C_4
REMARK    3  A    between atoms: C_11  and  C_12
REMARK    4  A    between atoms: C_12  and  C_13
REMARK    5  A    between atoms: N_15  and  O_16
REMARK    6  A    between atoms: N_17  and  O_18
REMARK                            x       y       z     vdW  Elec       q    Type
REMARK                         _______ _______ _______ _____ _____    ______ ____
ROOT
ATOM      1  C   UNL     1       3.532   4.832  19.102  0.00  0.00    +0.000 C 
ATOM      2  C   UNL     1       4.814   5.515  18.571  0.00  0.00    +0.000 C 
ATOM      3  C   UNL     1       5.448   4.139  18.322  0.00  0.00    +0.000 C 
ATOM      4  C   UNL     1       4.177   3.449  18.835  0.00  0.00    +0.000 C 
ATOM      5  C   UNL     1       3.588   3.405  17.420  0.00  0.00    +0.000 C 
ATOM      6  C   UNL     1       2.921   4.827  17.686  0.00  0.00    +0.000 C 
ATOM      7  C   UNL     1       4.236   5.552  17.153  0.00  0.00    +0.000 C 
ATOM      8  C   UNL     1       4.918   4.125  16.873  0.00  0.00    +0.000 C 
ENDROOT
BRANCH   1   9
ATOM      9  C   UNL     1       2.828   5.191  20.371  0.00  0.00    +0.000 C 
BRANCH   9  11
ATOM     10  O   UNL     1       0.708   4.002  20.345  0.00  0.00    +0.000 OA
ATOM     11  C   UNL     1       1.816   4.170  20.843  0.00  0.00    +0.000 C 
ATOM     12  N   UNL     1       2.260   3.414  21.903  0.00  0.00    +0.000 N 
ATOM     13  H   UNL     1       3.236   3.345  22.172  0.00  0.00    +0.000 HD
BRANCH  12  14
ATOM     14  O   UNL     1       1.414   2.352  22.302  0.00  0.00    +0.000 OA
ATOM     15  H   UNL     1       1.394   1.787  21.499  0.00  0.00    +0.000 HD
ENDBRANCH  12  14
ENDBRANCH   9  11
ENDBRANCH   1   9
BRANCH   8  16
ATOM     16  C   UNL     1       5.684   3.788  15.637  0.00  0.00    +0.000 C 
BRANCH  16  17
ATOM     17  C   UNL     1       6.906   4.659  15.440  0.00  0.00    +0.000 C 
ATOM     18  O   UNL     1       7.644   5.027  16.352  0.00  0.00    +0.000 OA
ATOM     19  N   UNL     1       7.148   5.012  14.134  0.00  0.00    +0.000 N 
ATOM     20  H   UNL     1       6.785   4.493  13.343  0.00  0.00    +0.000 HD
BRANCH  19  21
ATOM     21  O   UNL     1       8.346   5.735  13.918  0.00  0.00    +0.000 OA
ATOM     22  H   UNL     1       8.928   5.056  13.509  0.00  0.00    +0.000 HD
ENDBRANCH  19  21
ENDBRANCH  16  17
ENDBRANCH   8  16
TORSDOF 6
ENDMDL
MODEL 6
REMARK VINA RESULT:      -7.3      2.391      5.680
REMARK  Name = 
REMARK  6 active torsions:
REMARK  status: ('A' for Active; 'I' for Inactive)
REMARK    1  A    between atoms: C_2  and  C_3
REMARK    2  A    between atoms: C_3  and  C_4
REMARK    3  A    between atoms: C_11  and  C_12
REMARK    4  A    between atoms: C_12  and  C_13
REMARK    5  A    between atoms: N_15  and  O_16
REMARK    6  A    between atoms: N_17  and  O_18
REMARK                            x       y       z     vdW  Elec       q    Type
REMARK                         _______ _______ _______ _____ _____    ______ ____
ROOT
ATOM      1  C   UNL     1       5.425   5.615  17.878  0.00  0.00    +0.000 C 
ATOM      2  C   UNL     1       4.998   4.129  17.838  0.00  0.00    +0.000 C 
ATOM      3  C   UNL     1       3.969   4.391  18.948  0.00  0.00    +0.000 C 
ATOM      4  C   UNL     1       4.375   5.871  18.987  0.00  0.00    +0.000 C 
ATOM      5  C   UNL     1       3.307   6.228  17.949  0.00  0.00    +0.000 C 
ATOM      6  C   UNL     1       4.379   5.968  16.800  0.00  0.00    +0.000 C 
ATOM      7  C   UNL     1       3.963   4.431  16.749  0.00  0.00    +0.000 C 
ATOM      8  C   UNL     1       2.873   4.680  17.902  0.00  0.00    +0.000 C 
ENDROOT
BRANCH   1   9
ATOM      9  C   UNL     1       6.837   6.105  17.939  0.00  0.00    +0.000 C 
BRANCH   9  11
ATOM     10  O   UNL     1       8.461   4.364  18.432  0.00  0.00    +0.000 OA
ATOM     11  C   UNL     1       7.751   5.286  18.822  0.00  0.00    +0.000 C 
ATOM     12  N   UNL     1       7.730   5.680  20.140  0.00  0.00    +0.000 N 
ATOM     13  H   UNL     1       7.366   6.574  20.452  0.00  0.00    +0.000 HD
BRANCH  12  14
ATOM     14  O   UNL     1       8.663   5.042  20.991  0.00  0.00    +0.000 OA
ATOM     15  H   UNL     1       8.118   4.834  21.782  0.00  0.00    +0.000 HD
ENDBRANCH  12  14
ENDBRANCH   9  11
ENDBRANCH   1   9
BRANCH   8  16
ATOM     16  C   UNL     1       1.485   4.132  17.877  0.00  0.00    +0.000 C 
BRANCH  16  17
ATOM     17  C   UNL     1       1.221   3.136  18.986  0.00  0.00    +0.000 C 
ATOM     18  O   UNL     1       1.362   1.921  18.868  0.00  0.00    +0.000 OA
ATOM     19  N   UNL     1       0.812   3.701  20.170  0.00  0.00    +0.000 N 
ATOM     20  H   UNL     1       0.989   4.668  20.414  0.00  0.00    +0.000 HD
BRANCH  19  21
ATOM     21  O   UNL     1       0.666   2.795  21.250  0.00  0.00    +0.000 OA
ATOM     22  H   UNL     1       1.578   2.758  21.616  0.00  0.00    +0.000 HD
ENDBRANCH  19  21
ENDBRANCH  16  17
ENDBRANCH   8  16
TORSDOF 6
ENDMDL
MODEL 7
REMARK VINA RESULT:      -7.3      2.245      2.811
REMARK  Name = 
REMARK  6 active torsions:
REMARK  status: ('A' for Active; 'I' for Inactive)
REMARK    1  A    between atoms: C_2  and  C_3
REMARK    2  A    between atoms: C_3  and  C_4
REMARK    3  A    between atoms: C_11  and  C_12
REMARK    4  A    between atoms: C_12  and  C_13
REMARK    5  A    between atoms: N_15  and  O_16
REMARK    6  A    between atoms: N_17  and  O_18
REMARK                            x       y       z     vdW  Elec       q    Type
REMARK                         _______ _______ _______ _____ _____    ______ ____
ROOT
ATOM      1  C   UNL     1       2.813   4.470  18.463  0.00  0.00    +0.000 C 
ATOM      2  C   UNL     1       3.609   4.494  17.137  0.00  0.00    +0.000 C 
ATOM      3  C   UNL     1       3.996   5.958  17.392  0.00  0.00    +0.000 C 
ATOM      4  C   UNL     1       3.220   5.943  18.716  0.00  0.00    +0.000 C 
ATOM      5  C   UNL     1       4.471   5.506  19.484  0.00  0.00    +0.000 C 
ATOM      6  C   UNL     1       4.062   3.988  19.230  0.00  0.00    +0.000 C 
ATOM      7  C   UNL     1       4.867   3.994  17.855  0.00  0.00    +0.000 C 
ATOM      8  C   UNL     1       5.294   5.522  18.102  0.00  0.00    +0.000 C 
ENDROOT
BRANCH   1   9
ATOM      9  C   UNL     1       1.419   3.952  18.622  0.00  0.00    +0.000 C 
BRANCH   9  11
ATOM     10  O   UNL     1       1.331   1.695  19.522  0.00  0.00    +0.000 OA
ATOM     11  C   UNL     1       1.253   2.906  19.701  0.00  0.00    +0.000 C 
ATOM     12  N   UNL     1       1.010   3.443  20.945  0.00  0.00    +0.000 N 
ATOM     13  H   UNL     1       1.188   4.414  21.181  0.00  0.00    +0.000 HD
BRANCH  12  14
ATOM     14  O   UNL     1       0.980   2.524  22.020  0.00  0.00    +0.000 OA
ATOM     15  H   UNL     1       0.880   3.115  22.798  0.00  0.00    +0.000 HD
ENDBRANCH  12  14
ENDBRANCH   9  11
ENDBRANCH   1   9
BRANCH   8  16
ATOM     16  C   UNL     1       6.668   6.058  17.875  0.00  0.00    +0.000 C 
BRANCH  16  17
ATOM     17  C   UNL     1       7.739   5.273  18.601  0.00  0.00    +0.000 C 
ATOM     18  O   UNL     1       8.403   4.375  18.086  0.00  0.00    +0.000 OA
ATOM     19  N   UNL     1       7.932   5.650  19.908  0.00  0.00    +0.000 N 
ATOM     20  H   UNL     1       7.661   6.557  20.270  0.00  0.00    +0.000 HD
BRANCH  19  21
ATOM     21  O   UNL     1       9.003   5.001  20.570  0.00  0.00    +0.000 OA
ATOM     22  H   UNL     1       9.566   5.759  20.846  0.00  0.00    +0.000 HD
ENDBRANCH  19  21
ENDBRANCH  16  17
ENDBRANCH   8  16
TORSDOF 6
ENDMDL
MODEL 8
REMARK VINA RESULT:      -7.2      1.176      1.372
REMARK  Name = 
REMARK  6 active torsions:
REMARK  status: ('A' for Active; 'I' for Inactive)
REMARK    1  A    between atoms: C_2  and  C_3
REMARK    2  A    between atoms: C_3  and  C_4
REMARK    3  A    between atoms: C_11  and  C_12
REMARK    4  A    between atoms: C_12  and  C_13
REMARK    5  A    between atoms: N_15  and  O_16
REMARK    6  A    between atoms: N_17  and  O_18
REMARK                            x       y       z     vdW  Elec       q    Type
REMARK                         _______ _______ _______ _____ _____    ______ ____
ROOT
ATOM      1  C   UNL     1       3.284   4.873  18.806  0.00  0.00    +0.000 C 
ATOM      2  C   UNL     1       4.486   4.021  19.279  0.00  0.00    +0.000 C 
ATOM      3  C   UNL     1       4.683   3.500  17.848  0.00  0.00    +0.000 C 
ATOM      4  C   UNL     1       3.501   4.351  17.364  0.00  0.00    +0.000 C 
ATOM      5  C   UNL     1       4.432   5.523  17.038  0.00  0.00    +0.000 C 
ATOM      6  C   UNL     1       4.216   6.068  18.519  0.00  0.00    +0.000 C 
ATOM      7  C   UNL     1       5.444   5.191  19.029  0.00  0.00    +0.000 C 
ATOM      8  C   UNL     1       5.678   4.638  17.540  0.00  0.00    +0.000 C 
ENDROOT
BRANCH   1   9
ATOM      9  C   UNL     1       1.950   4.929  19.480  0.00  0.00    +0.000 C 
BRANCH   9  11
ATOM     10  O   UNL     1       1.016   2.689  19.618  0.00  0.00    +0.000 OA
ATOM     11  C   UNL     1       1.539   3.650  20.173  0.00  0.00    +0.000 C 
ATOM     12  N   UNL     1       1.820   3.647  21.520  0.00  0.00    +0.000 N 
ATOM     13  H   UNL     1       2.466   4.295  21.960  0.00  0.00    +0.000 HD
BRANCH  12  14
ATOM     14  O   UNL     1       1.583   2.428  22.199  0.00  0.00    +0.000 OA
ATOM     15  H   UNL     1       2.418   2.302  22.701  0.00  0.00    +0.000 HD
ENDBRANCH  12  14
ENDBRANCH   9  11
ENDBRANCH   1   9
BRANCH   8  16
ATOM     16  C   UNL     1       7.017   4.513  16.891  0.00  0.00    +0.000 C 
BRANCH  16  17
ATOM     17  C   UNL     1       6.958   4.618  15.383  0.00  0.00    +0.000 C 
ATOM     18  O   UNL     1       7.455   5.539  14.737  0.00  0.00    +0.000 OA
ATOM     19  N   UNL     1       6.303   3.580  14.767  0.00  0.00    +0.000 N 
ATOM     20  H   UNL     1       6.170   2.673  15.199  0.00  0.00    +0.000 HD
BRANCH  19  21
ATOM     21  O   UNL     1       6.332   3.605  13.351  0.00  0.00    +0.000 OA
ATOM     22  H   UNL     1       5.865   2.772  13.118  0.00  0.00    +0.000 HD
ENDBRANCH  19  21
ENDBRANCH  16  17
ENDBRANCH   8  16
TORSDOF 6
ENDMDL
MODEL 9
REMARK VINA RESULT:      -7.1      1.184      1.882
REMARK  Name = 
REMARK  6 active torsions:
REMARK  status: ('A' for Active; 'I' for Inactive)
REMARK    1  A    between atoms: C_2  and  C_3
REMARK    2  A    between atoms: C_3  and  C_4
REMARK    3  A    between atoms: C_11  and  C_12
REMARK    4  A    between atoms: C_12  and  C_13
REMARK    5  A    between atoms: N_15  and  O_16
REMARK    6  A    between atoms: N_17  and  O_18
REMARK                            x       y       z     vdW  Elec       q    Type
REMARK                         _______ _______ _______ _____ _____    ______ ____
ROOT
ATOM      1  C   UNL     1       3.257   4.853  18.790  0.00  0.00    +0.000 C 
ATOM      2  C   UNL     1       4.297   5.986  18.621  0.00  0.00    +0.000 C 
ATOM      3  C   UNL     1       5.412   5.035  19.080  0.00  0.00    +0.000 C 
ATOM      4  C   UNL     1       4.392   3.899  19.239  0.00  0.00    +0.000 C 
ATOM      5  C   UNL     1       4.628   3.438  17.797  0.00  0.00    +0.000 C 
ATOM      6  C   UNL     1       3.463   4.416  17.325  0.00  0.00    +0.000 C 
ATOM      7  C   UNL     1       4.514   5.600  17.155  0.00  0.00    +0.000 C 
ATOM      8  C   UNL     1       5.701   4.624  17.621  0.00  0.00    +0.000 C 
ENDROOT
BRANCH   1   9
ATOM      9  C   UNL     1       1.949   4.983  19.502  0.00  0.00    +0.000 C 
BRANCH   9  11
ATOM     10  O   UNL     1       0.823   2.836  19.681  0.00  0.00    +0.000 OA
ATOM     11  C   UNL     1       1.484   3.728  20.204  0.00  0.00    +0.000 C 
ATOM     12  N   UNL     1       1.885   3.659  21.519  0.00  0.00    +0.000 N 
ATOM     13  H   UNL     1       2.627   4.231  21.909  0.00  0.00    +0.000 HD
BRANCH  12  14
ATOM     14  O   UNL     1       1.597   2.448  22.191  0.00  0.00    +0.000 OA
ATOM     15  H   UNL     1       1.552   1.803  21.451  0.00  0.00    +0.000 HD
ENDBRANCH  12  14
ENDBRANCH   9  11
ENDBRANCH   1   9
BRANCH   8  16
ATOM     16  C   UNL     1       7.035   4.544  16.956  0.00  0.00    +0.000 C 
BRANCH  16  17
ATOM     17  C   UNL     1       6.946   4.568  15.445  0.00  0.00    +0.000 C 
ATOM     18  O   UNL     1       7.397   5.471  14.743  0.00  0.00    +0.000 OA
ATOM     19  N   UNL     1       6.321   3.475  14.896  0.00  0.00    +0.000 N 
ATOM     20  H   UNL     1       6.230   2.587  15.377  0.00  0.00    +0.000 HD
BRANCH  19  21
ATOM     21  O   UNL     1       6.326   3.427  13.480  0.00  0.00    +0.000 OA
ATOM     22  H   UNL     1       6.116   2.483  13.304  0.00  0.00    +0.000 HD
ENDBRANCH  19  21
ENDBRANCH  16  17
ENDBRANCH   8  16
TORSDOF 6
ENDMDL
