MODEL 1
REMARK VINA RESULT:      -7.8      0.000      0.000
REMARK  Name = 
REMARK  5 active torsions:
REMARK  status: ('A' for Active; 'I' for Inactive)
REMARK    1  A    between atoms: C_1  and  O_2
REMARK    2  A    between atoms: O_2  and  C_3
REMARK    3  A    between atoms: C_13  and  C_14
REMARK    4  A    between atoms: C_14  and  N_15
REMARK    5  A    between atoms: C_16  and  C_17
REMARK                            x       y       z     vdW  Elec       q    Type
REMARK                         _______ _______ _______ _____ _____    ______ ____
ROOT
ATOM      1  C   UNL     1       2.203   7.796  18.428  0.00  0.00    +0.000 A 
ATOM      2  C   UNL     1       1.924   8.038  19.770  0.00  0.00    +0.000 A 
ATOM      3  C   UNL     1       1.796   6.967  20.660  0.00  0.00    +0.000 A 
ATOM      4  C   UNL     1       2.002   5.646  20.231  0.00  0.00    +0.000 A 
ATOM      5  C   UNL     1       1.830   4.556  21.111  0.00  0.00    +0.000 A 
ATOM      6  C   UNL     1       2.080   3.248  20.693  0.00  0.00    +0.000 A 
ATOM      7  C   UNL     1       2.584   3.045  19.419  0.00  0.00    +0.000 A 
ATOM      8  C   UNL     1       2.792   4.112  18.544  0.00  0.00    +0.000 A 
ATOM      9  C   UNL     1       2.406   5.413  18.897  0.00  0.00    +0.000 A 
ATOM     10  C   UNL     1       2.421   6.490  17.991  0.00  0.00    +0.000 A 
ATOM     11  C   UNL     1       3.576   3.673  17.329  0.00  0.00    +0.000 C 
ATOM     12  C   UNL     1       3.596   2.133  17.469  0.00  0.00    +0.000 C 
ATOM     13  C   UNL     1       2.990   1.741  18.822  0.00  0.00    +0.000 C 
ENDROOT
BRANCH   1  15
ATOM     14  C   UNL     1       1.951  10.072  17.907  0.00  0.00    +0.000 C 
ATOM     15  O   UNL     1       2.257   8.758  17.458  0.00  0.00    +0.000 OA
ENDBRANCH   1  15
BRANCH  11  16
ATOM     16  C   UNL     1       5.013   4.245  17.348  0.00  0.00    +0.000 C 
BRANCH  16  17
ATOM     17  N   UNL     1       5.526   4.611  16.038  0.00  0.00    +0.000 N 
ATOM     18  C   UNL     1       6.874   4.608  15.738  0.00  0.00    +0.000 C 
ATOM     19  C   UNL     1       7.195   4.924  14.300  0.00  0.00    +0.000 C 
ATOM     20  O   UNL     1       7.749   4.383  16.559  0.00  0.00    +0.000 OA
ATOM     21  H   UNL     1       4.864   4.836  15.308  0.00  0.00    +0.000 HD
ENDBRANCH  16  17
ENDBRANCH  11  16
TORSDOF 3
ENDMDL
MODEL 2
REMARK VINA RESULT:      -7.6      2.272      5.577
REMARK  Name = 
REMARK  5 active torsions:
REMARK  status: ('A' for Active; 'I' for Inactive)
REMARK    1  A    between atoms: C_1  and  O_2
REMARK    2  A    between atoms: O_2  and  C_3
REMARK    3  A    between atoms: C_13  and  C_14
REMARK    4  A    between atoms: C_14  and  N_15
REMARK    5  A    between atoms: C_16  and  C_17
REMARK                            x       y       z     vdW  Elec       q    Type
REMARK                         _______ _______ _______ _____ _____    ______ ____
ROOT
ATOM      1  C   UNL     1       6.387   5.596  17.780  0.00  0.00    +0.000 A 
ATOM      2  C   UNL     1       6.326   5.047  16.503  0.00  0.00    +0.000 A 
ATOM      3  C   UNL     1       5.271   4.195  16.159  0.00  0.00    +0.000 A 
ATOM      4  C   UNL     1       4.235   3.929  17.068  0.00  0.00    +0.000 A 
ATOM      5  C   UNL     1       3.191   3.036  16.747  0.00  0.00    +0.000 A 
ATOM      6  C   UNL     1       2.139   2.810  17.637  0.00  0.00    +0.000 A 
ATOM      7  C   UNL     1       2.093   3.545  18.809  0.00  0.00    +0.000 A 
ATOM      8  C   UNL     1       3.099   4.457  19.131  0.00  0.00    +0.000 A 
ATOM      9  C   UNL     1       4.236   4.586  18.321  0.00  0.00    +0.000 A 
ATOM     10  C   UNL     1       5.359   5.349  18.689  0.00  0.00    +0.000 A 
ATOM     11  C   UNL     1       2.702   5.308  20.315  0.00  0.00    +0.000 C 
ATOM     12  C   UNL     1       1.418   4.612  20.825  0.00  0.00    +0.000 C 
ATOM     13  C   UNL     1       1.016   3.508  19.839  0.00  0.00    +0.000 C 
ENDROOT
BRANCH   1  15
ATOM     14  C   UNL     1       7.571   7.616  17.597  0.00  0.00    +0.000 C 
ATOM     15  O   UNL     1       7.417   6.362  18.250  0.00  0.00    +0.000 OA
ENDBRANCH   1  15
BRANCH  11  16
ATOM     16  C   UNL     1       2.404   6.765  19.889  0.00  0.00    +0.000 C 
BRANCH  16  17
ATOM     17  N   UNL     1       1.776   7.572  20.921  0.00  0.00    +0.000 N 
ATOM     18  C   UNL     1       1.122   8.756  20.647  0.00  0.00    +0.000 C 
ATOM     19  C   UNL     1       0.455   9.393  21.839  0.00  0.00    +0.000 C 
ATOM     20  O   UNL     1       1.086   9.267  19.539  0.00  0.00    +0.000 OA
ATOM     21  H   UNL     1       1.784   7.228  21.872  0.00  0.00    +0.000 HD
ENDBRANCH  16  17
ENDBRANCH  11  16
TORSDOF 3
ENDMDL
MODEL 3
REMARK VINA RESULT:      -7.6      2.753      4.997
REMARK  Name = 
REMARK  5 active torsions:
REMARK  status: ('A' for Active; 'I' for Inactive)
REMARK    1  A    between atoms: C_1  and  O_2
REMARK    2  A    between atoms: O_2  and  C_3
REMARK    3  A    between atoms: C_13  and  C_14
REMARK    4  A    between atoms: C_14  and  N_15
REMARK    5  A    between atoms: C_16  and  C_17
REMARK                            x       y       z     vdW  Elec       q    Type
REMARK                         _______ _______ _______ _____ _____    ______ ____
ROOT
ATOM      1  C   UNL     1       5.309   4.326  16.213  0.00  0.00    +0.000 A 
ATOM      2  C   UNL     1       5.364   5.715  16.154  0.00  0.00    +0.000 A 
ATOM      3  C   UNL     1       4.566   6.483  17.009  0.00  0.00    +0.000 A 
ATOM      4  C   UNL     1       3.748   5.871  17.971  0.00  0.00    +0.000 A 
ATOM      5  C   UNL     1       2.906   6.635  18.807  0.00  0.00    +0.000 A 
ATOM      6  C   UNL     1       2.128   6.025  19.794  0.00  0.00    +0.000 A 
ATOM      7  C   UNL     1       2.262   4.662  19.995  0.00  0.00    +0.000 A 
ATOM      8  C   UNL     1       3.114   3.893  19.200  0.00  0.00    +0.000 A 
ATOM      9  C   UNL     1       3.787   4.465  18.111  0.00  0.00    +0.000 A 
ATOM     10  C   UNL     1       4.508   3.706  17.171  0.00  0.00    +0.000 A 
ATOM     11  C   UNL     1       3.280   2.503  19.770  0.00  0.00    +0.000 C 
ATOM     12  C   UNL     1       2.209   2.457  20.885  0.00  0.00    +0.000 C 
ATOM     13  C   UNL     1       1.586   3.849  21.045  0.00  0.00    +0.000 C 
ENDROOT
BRANCH   1  15
ATOM     14  C   UNL     1       6.286   4.044  14.096  0.00  0.00    +0.000 C 
ATOM     15  O   UNL     1       5.972   3.483  15.365  0.00  0.00    +0.000 OA
ENDBRANCH   1  15
BRANCH  11  16
ATOM     16  C   UNL     1       4.696   2.301  20.360  0.00  0.00    +0.000 C 
BRANCH  16  17
ATOM     17  N   UNL     1       5.191   0.938  20.268  0.00  0.00    +0.000 N 
ATOM     18  C   UNL     1       5.871   0.320  21.299  0.00  0.00    +0.000 C 
ATOM     19  C   UNL     1       6.215  -1.125  21.044  0.00  0.00    +0.000 C 
ATOM     20  O   UNL     1       6.186   0.886  22.334  0.00  0.00    +0.000 OA
ATOM     21  H   UNL     1       4.991   0.409  19.430  0.00  0.00    +0.000 HD
ENDBRANCH  16  17
ENDBRANCH  11  16
TORSDOF 3
ENDMDL
MODEL 4
REMARK VINA RESULT:      -7.6      2.237      5.558
REMARK  Name = 
REMARK  5 active torsions:
REMARK  status: ('A' for Active; 'I' for Inactive)
REMARK    1  A    between atoms: C_1  and  O_2
REMARK    2  A    between atoms: O_2  and  C_3
REMARK    3  A    between atoms: C_13  and  C_14
REMARK    4  A    between atoms: C_14  and  N_15
REMARK    5  A    between atoms: C_16  and  C_17
REMARK                            x       y       z     vdW  Elec       q    Type
REMARK                         _______ _______ _______ _____ _____    ______ ____
ROOT
ATOM      1  C   UNL     1       6.125   6.119  16.723  0.00  0.00    +0.000 A 
ATOM      2  C   UNL     1       5.987   5.194  15.692  0.00  0.00    +0.000 A 
ATOM      3  C   UNL     1       5.017   4.191  15.781  0.00  0.00    +0.000 A 
ATOM      4  C   UNL     1       4.136   4.136  16.872  0.00  0.00    +0.000 A 
ATOM      5  C   UNL     1       3.184   3.101  16.992  0.00  0.00    +0.000 A 
ATOM      6  C   UNL     1       2.279   3.076  18.056  0.00  0.00    +0.000 A 
ATOM      7  C   UNL     1       2.277   4.135  18.948  0.00  0.00    +0.000 A 
ATOM      8  C   UNL     1       3.188   5.185  18.828  0.00  0.00    +0.000 A 
ATOM      9  C   UNL     1       4.198   5.149  17.856  0.00  0.00    +0.000 A 
ATOM     10  C   UNL     1       5.250   6.082  17.807  0.00  0.00    +0.000 A 
ATOM     11  C   UNL     1       2.826   6.327  19.749  0.00  0.00    +0.000 C 
ATOM     12  C   UNL     1       1.708   5.718  20.629  0.00  0.00    +0.000 C 
ATOM     13  C   UNL     1       1.340   4.331  20.091  0.00  0.00    +0.000 C 
ENDROOT
BRANCH   1  15
ATOM     14  C   UNL     1       7.805   7.132  18.014  0.00  0.00    +0.000 C 
ATOM     15  O   UNL     1       7.097   7.080  16.782  0.00  0.00    +0.000 OA
ENDBRANCH   1  15
BRANCH  11  16
ATOM     16  C   UNL     1       2.297   7.545  18.956  0.00  0.00    +0.000 C 
BRANCH  16  17
ATOM     17  N   UNL     1       1.553   8.502  19.758  0.00  0.00    +0.000 N 
ATOM     18  C   UNL     1       0.900   9.587  19.209  0.00  0.00    +0.000 C 
ATOM     19  C   UNL     1       0.106  10.404  20.196  0.00  0.00    +0.000 C 
ATOM     20  O   UNL     1       0.960   9.884  18.027  0.00  0.00    +0.000 OA
ATOM     21  H   UNL     1       1.477   8.339  20.753  0.00  0.00    +0.000 HD
ENDBRANCH  16  17
ENDBRANCH  11  16
TORSDOF 3
ENDMDL
MODEL 5
REMARK VINA RESULT:      -7.4      2.109      3.074
REMARK  Name = 
REMARK  5 active torsions:
REMARK  status: ('A' for Active; 'I' for Inactive)
REMARK    1  A    between atoms: C_1  and  O_2
REMARK    2  A    between atoms: O_2  and  C_3
REMARK    3  A    between atoms: C_13  and  C_14
REMARK    4  A    between atoms: C_14  and  N_15
REMARK    5  A    between atoms: C_16  and  C_17
REMARK                            x       y       z     vdW  Elec       q    Type
REMARK                         _______ _______ _______ _____ _____    ______ ____
ROOT
ATOM      1  C   UNL     1       2.083   7.271  19.553  0.00  0.00    +0.000 A 
ATOM      2  C   UNL     1       1.795   6.255  20.459  0.00  0.00    +0.000 A 
ATOM      3  C   UNL     1       2.160   4.936  20.169  0.00  0.00    +0.000 A 
ATOM      4  C   UNL     1       2.868   4.627  18.997  0.00  0.00    +0.000 A 
ATOM      5  C   UNL     1       3.201   3.294  18.674  0.00  0.00    +0.000 A 
ATOM      6  C   UNL     1       3.945   2.996  17.530  0.00  0.00    +0.000 A 
ATOM      7  C   UNL     1       4.425   4.042  16.761  0.00  0.00    +0.000 A 
ATOM      8  C   UNL     1       4.134   5.369  17.081  0.00  0.00    +0.000 A 
ATOM      9  C   UNL     1       3.267   5.677  18.139  0.00  0.00    +0.000 A 
ATOM     10  C   UNL     1       2.795   6.979  18.390  0.00  0.00    +0.000 A 
ATOM     11  C   UNL     1       4.969   6.322  16.257  0.00  0.00    +0.000 C 
ATOM     12  C   UNL     1       5.625   5.389  15.212  0.00  0.00    +0.000 C 
ATOM     13  C   UNL     1       5.300   3.932  15.560  0.00  0.00    +0.000 C 
ENDROOT
BRANCH   1  15
ATOM     14  C   UNL     1       1.572   9.292  18.470  0.00  0.00    +0.000 C 
ATOM     15  O   UNL     1       1.691   8.573  19.692  0.00  0.00    +0.000 OA
ENDBRANCH   1  15
BRANCH  11  16
ATOM     16  C   UNL     1       6.045   7.021  17.121  0.00  0.00    +0.000 C 
BRANCH  16  17
ATOM     17  N   UNL     1       6.696   6.149  18.084  0.00  0.00    +0.000 N 
ATOM     18  C   UNL     1       7.832   6.519  18.777  0.00  0.00    +0.000 C 
ATOM     19  C   UNL     1       8.296   5.513  19.799  0.00  0.00    +0.000 C 
ATOM     20  O   UNL     1       8.431   7.564  18.582  0.00  0.00    +0.000 OA
ATOM     21  H   UNL     1       6.273   5.252  18.283  0.00  0.00    +0.000 HD
ENDBRANCH  16  17
ENDBRANCH  11  16
TORSDOF 3
ENDMDL
MODEL 6
REMARK VINA RESULT:      -7.3      2.485      4.624
REMARK  Name = 
REMARK  5 active torsions:
REMARK  status: ('A' for Active; 'I' for Inactive)
REMARK    1  A    between atoms: C_1  and  O_2
REMARK    2  A    between atoms: O_2  and  C_3
REMARK    3  A    between atoms: C_13  and  C_14
REMARK    4  A    between atoms: C_14  and  N_15
REMARK    5  A    between atoms: C_16  and  C_17
REMARK                            x       y       z     vdW  Elec       q    Type
REMARK                         _______ _______ _______ _____ _____    ______ ____
ROOT
ATOM      1  C   UNL     1       3.266   3.402  19.453  0.00  0.00    +0.000 A 
ATOM      2  C   UNL     1       2.133   3.766  18.731  0.00  0.00    +0.000 A 
ATOM      3  C   UNL     1       2.137   4.941  17.972  0.00  0.00    +0.000 A 
ATOM      4  C   UNL     1       3.291   5.735  17.880  0.00  0.00    +0.000 A 
ATOM      5  C   UNL     1       3.291   6.944  17.154  0.00  0.00    +0.000 A 
ATOM      6  C   UNL     1       4.454   7.707  17.027  0.00  0.00    +0.000 A 
ATOM      7  C   UNL     1       5.633   7.210  17.557  0.00  0.00    +0.000 A 
ATOM      8  C   UNL     1       5.661   6.000  18.251  0.00  0.00    +0.000 A 
ATOM      9  C   UNL     1       4.477   5.297  18.515  0.00  0.00    +0.000 A 
ATOM     10  C   UNL     1       4.422   4.175  19.362  0.00  0.00    +0.000 A 
ATOM     11  C   UNL     1       7.082   5.552  18.505  0.00  0.00    +0.000 C 
ATOM     12  C   UNL     1       7.913   6.790  18.089  0.00  0.00    +0.000 C 
ATOM     13  C   UNL     1       6.984   7.831  17.454  0.00  0.00    +0.000 C 
ENDROOT
BRANCH   1  15
ATOM     14  C   UNL     1       2.654   2.497  21.532  0.00  0.00    +0.000 C 
ATOM     15  O   UNL     1       3.339   2.329  20.297  0.00  0.00    +0.000 OA
ENDBRANCH   1  15
BRANCH  11  16
ATOM     16  C   UNL     1       7.451   4.326  17.637  0.00  0.00    +0.000 C 
BRANCH  16  17
ATOM     17  N   UNL     1       6.561   4.105  16.510  0.00  0.00    +0.000 N 
ATOM     18  C   UNL     1       6.827   4.589  15.244  0.00  0.00    +0.000 C 
ATOM     19  C   UNL     1       5.831   4.170  14.193  0.00  0.00    +0.000 C 
ATOM     20  O   UNL     1       7.777   5.309  14.982  0.00  0.00    +0.000 OA
ATOM     21  H   UNL     1       5.737   3.537  16.651  0.00  0.00    +0.000 HD
ENDBRANCH  16  17
ENDBRANCH  11  16
TORSDOF 3
ENDMDL
MODEL 7
REMARK VINA RESULT:      -7.3      1.401      1.401
REMARK  Name = 
REMARK  5 active torsions:
REMARK  status: ('A' for Active; 'I' for Inactive)
REMARK    1  A    between atoms: C_1  and  O_2
REMARK    2  A    between atoms: O_2  and  C_3
REMARK    3  A    between atoms: C_13  and  C_14
REMARK    4  A    between atoms: C_14  and  N_15
REMARK    5  A    between atoms: C_16  and  C_17
REMARK                            x       y       z     vdW  Elec       q    Type
REMARK                         _______ _______ _______ _____ _____    ______ ____
ROOT
ATOM      1  C   UNL     1       2.478   7.642  18.915  0.00  0.00    +0.000 A 
ATOM      2  C   UNL     1       1.778   7.722  20.115  0.00  0.00    +0.000 A 
ATOM      3  C   UNL     1       1.320   6.555  20.735  0.00  0.00    +0.000 A 
ATOM      4  C   UNL     1       1.607   5.292  20.194  0.00  0.00    +0.000 A 
ATOM      5  C   UNL     1       1.111   4.112  20.787  0.00  0.00    +0.000 A 
ATOM      6  C   UNL     1       1.437   2.856  20.271  0.00  0.00    +0.000 A 
ATOM      7  C   UNL     1       2.328   2.785  19.214  0.00  0.00    +0.000 A 
ATOM      8  C   UNL     1       2.855   3.939  18.633  0.00  0.00    +0.000 A 
ATOM      9  C   UNL     1       2.423   5.209  19.042  0.00  0.00    +0.000 A 
ATOM     10  C   UNL     1       2.779   6.394  18.372  0.00  0.00    +0.000 A 
ATOM     11  C   UNL     1       3.982   3.603  17.683  0.00  0.00    +0.000 C 
ATOM     12  C   UNL     1       3.895   2.062  17.578  0.00  0.00    +0.000 C 
ATOM     13  C   UNL     1       2.860   1.544  18.583  0.00  0.00    +0.000 C 
ENDROOT
BRANCH   1  15
ATOM     14  C   UNL     1       1.875   9.682  17.920  0.00  0.00    +0.000 C 
ATOM     15  O   UNL     1       2.889   8.719  18.179  0.00  0.00    +0.000 OA
ENDBRANCH   1  15
BRANCH  11  16
ATOM     16  C   UNL     1       5.351   4.038  18.255  0.00  0.00    +0.000 C 
BRANCH  16  17
ATOM     17  N   UNL     1       5.855   5.287  17.709  0.00  0.00    +0.000 N 
ATOM     18  C   UNL     1       7.008   5.891  18.170  0.00  0.00    +0.000 C 
ATOM     19  C   UNL     1       7.415   7.126  17.409  0.00  0.00    +0.000 C 
ATOM     20  O   UNL     1       7.651   5.480  19.123  0.00  0.00    +0.000 OA
ATOM     21  H   UNL     1       5.364   5.705  16.931  0.00  0.00    +0.000 HD
ENDBRANCH  16  17
ENDBRANCH  11  16
TORSDOF 3
ENDMDL
MODEL 8
REMARK VINA RESULT:      -7.3      1.613      2.033
REMARK  Name = 
REMARK  5 active torsions:
REMARK  status: ('A' for Active; 'I' for Inactive)
REMARK    1  A    between atoms: C_1  and  O_2
REMARK    2  A    between atoms: O_2  and  C_3
REMARK    3  A    between atoms: C_13  and  C_14
REMARK    4  A    between atoms: C_14  and  N_15
REMARK    5  A    between atoms: C_16  and  C_17
REMARK                            x       y       z     vdW  Elec       q    Type
REMARK                         _______ _______ _______ _____ _____    ______ ____
ROOT
ATOM      1  C   UNL     1       1.812   8.779  18.678  0.00  0.00    +0.000 A 
ATOM      2  C   UNL     1       1.516   8.628  20.030  0.00  0.00    +0.000 A 
ATOM      3  C   UNL     1       1.697   7.387  20.649  0.00  0.00    +0.000 A 
ATOM      4  C   UNL     1       2.231   6.300  19.939  0.00  0.00    +0.000 A 
ATOM      5  C   UNL     1       2.375   5.032  20.543  0.00  0.00    +0.000 A 
ATOM      6  C   UNL     1       2.949   3.966  19.848  0.00  0.00    +0.000 A 
ATOM      7  C   UNL     1       3.453   4.197  18.579  0.00  0.00    +0.000 A 
ATOM      8  C   UNL     1       3.350   5.452  17.976  0.00  0.00    +0.000 A 
ATOM      9  C   UNL     1       2.645   6.491  18.601  0.00  0.00    +0.000 A 
ATOM     10  C   UNL     1       2.352   7.711  17.965  0.00  0.00    +0.000 A 
ATOM     11  C   UNL     1       4.188   5.522  16.721  0.00  0.00    +0.000 C 
ATOM     12  C   UNL     1       4.616   4.051  16.509  0.00  0.00    +0.000 C 
ATOM     13  C   UNL     1       4.171   3.216  17.717  0.00  0.00    +0.000 C 
ENDROOT
BRANCH   1  15
ATOM     14  C   UNL     1       1.135  11.028  18.719  0.00  0.00    +0.000 C 
ATOM     15  O   UNL     1       1.585   9.917  17.954  0.00  0.00    +0.000 OA
ENDBRANCH   1  15
BRANCH  11  16
ATOM     16  C   UNL     1       5.425   6.430  16.918  0.00  0.00    +0.000 C 
BRANCH  16  17
ATOM     17  N   UNL     1       6.120   6.225  18.178  0.00  0.00    +0.000 N 
ATOM     18  C   UNL     1       7.307   5.526  18.268  0.00  0.00    +0.000 C 
ATOM     19  C   UNL     1       7.918   5.507  19.646  0.00  0.00    +0.000 C 
ATOM     20  O   UNL     1       7.828   4.953  17.324  0.00  0.00    +0.000 OA
ATOM     21  H   UNL     1       5.739   6.648  19.012  0.00  0.00    +0.000 HD
ENDBRANCH  16  17
ENDBRANCH  11  16
TORSDOF 3
ENDMDL
MODEL 9
REMARK VINA RESULT:      -7.3      2.469      3.450
REMARK  Name = 
REMARK  5 active torsions:
REMARK  status: ('A' for Active; 'I' for Inactive)
REMARK    1  A    between atoms: C_1  and  O_2
REMARK    2  A    between atoms: O_2  and  C_3
REMARK    3  A    between atoms: C_13  and  C_14
REMARK    4  A    between atoms: C_14  and  N_15
REMARK    5  A    between atoms: C_16  and  C_17
REMARK                            x       y       z     vdW  Elec       q    Type
REMARK                         _______ _______ _______ _____ _____    ______ ____
ROOT
ATOM      1  C   UNL     1       2.254   6.936  19.696  0.00  0.00    +0.000 A 
ATOM      2  C   UNL     1       1.793   5.829  20.403  0.00  0.00    +0.000 A 
ATOM      3  C   UNL     1       2.043   4.540  19.921  0.00  0.00    +0.000 A 
ATOM      4  C   UNL     1       2.806   4.341  18.759  0.00  0.00    +0.000 A 
ATOM      5  C   UNL     1       3.025   3.047  18.241  0.00  0.00    +0.000 A 
ATOM      6  C   UNL     1       3.822   2.850  17.112  0.00  0.00    +0.000 A 
ATOM      7  C   UNL     1       4.466   3.943  16.557  0.00  0.00    +0.000 A 
ATOM      8  C   UNL     1       4.289   5.227  17.074  0.00  0.00    +0.000 A 
ATOM      9  C   UNL     1       3.376   5.461  18.113  0.00  0.00    +0.000 A 
ATOM     10  C   UNL     1       3.022   6.752  18.547  0.00  0.00    +0.000 A 
ATOM     11  C   UNL     1       5.279   6.197  16.472  0.00  0.00    +0.000 C 
ATOM     12  C   UNL     1       5.917   5.373  15.329  0.00  0.00    +0.000 C 
ATOM     13  C   UNL     1       5.417   3.925  15.410  0.00  0.00    +0.000 C 
ENDROOT
BRANCH   1  15
ATOM     14  C   UNL     1       1.214   8.403  21.206  0.00  0.00    +0.000 C 
ATOM     15  O   UNL     1       1.988   8.236  20.025  0.00  0.00    +0.000 OA
ENDBRANCH   1  15
BRANCH  11  16
ATOM     16  C   UNL     1       6.349   6.624  17.504  0.00  0.00    +0.000 C 
BRANCH  16  17
ATOM     17  N   UNL     1       6.836   7.982  17.330  0.00  0.00    +0.000 N 
ATOM     18  C   UNL     1       7.966   8.456  17.966  0.00  0.00    +0.000 C 
ATOM     19  C   UNL     1       8.359   9.859  17.579  0.00  0.00    +0.000 C 
ATOM     20  O   UNL     1       8.601   7.811  18.785  0.00  0.00    +0.000 OA
ATOM     21  H   UNL     1       6.349   8.589  16.685  0.00  0.00    +0.000 HD
ENDBRANCH  16  17
ENDBRANCH  11  16
TORSDOF 3
ENDMDL
