MODEL 1
REMARK VINA RESULT:      -8.4      0.000      0.000
REMARK  Name = 
REMARK  2 active torsions:
REMARK  status: ('A' for Active; 'I' for Inactive)
REMARK    1  A    between atoms: C_2  and  C_13
REMARK    2  A    between atoms: N_3  and  C_4
REMARK                            x       y       z     vdW  Elec       q    Type
REMARK                         _______ _______ _______ _____ _____    ______ ____
ROOT
ATOM      1  O   UNL     1       0.972   4.538  17.211  0.00  0.00    +0.000 OA
ATOM      2  C   UNL     1       1.804   4.267  18.076  0.00  0.00    +0.000 C 
ATOM      3  N   UNL     1       2.325   5.155  18.999  0.00  0.00    +0.000 N 
ATOM      4  H   UNL     1       3.145   4.839  19.505  0.00  0.00    +0.000 HD
ENDROOT
BRANCH   2   5
ATOM      5  C   UNL     1       2.313   2.828  18.181  0.00  0.00    +0.000 C 
ATOM      6  C   UNL     1       2.139   2.240  19.587  0.00  0.00    +0.000 C 
ATOM      7  C   UNL     1       3.228   2.670  20.573  0.00  0.00    +0.000 C 
ATOM      8  C   UNL     1       4.636   2.530  19.989  0.00  0.00    +0.000 C 
ATOM      9  N   UNL     1       4.686   3.149  18.672  0.00  0.00    +0.000 N 
ATOM     10  C   UNL     1       5.590   4.137  18.364  0.00  0.00    +0.000 A 
ATOM     11  N   UNL     1       6.316   4.679  19.351  0.00  0.00    +0.000 NA
ATOM     12  C   UNL     1       7.059   5.766  19.062  0.00  0.00    +0.000 A 
ATOM     13  C   UNL     1       7.097   6.351  17.823  0.00  0.00    +0.000 A 
ATOM     14  C   UNL     1       6.333   5.732  16.873  0.00  0.00    +0.000 A 
ATOM     15  N   UNL     1       5.588   4.641  17.121  0.00  0.00    +0.000 NA
ATOM     16  C   UNL     1       3.742   2.672  17.665  0.00  0.00    +0.000 C 
ENDBRANCH   2   5
BRANCH   3  17
ATOM     17  C   UNL     1       2.004   6.521  19.142  0.00  0.00    +0.000 A 
ATOM     18  C   UNL     1       2.149   7.440  18.090  0.00  0.00    +0.000 A 
ATOM     19  C   UNL     1       1.901   8.799  18.279  0.00  0.00    +0.000 A 
ATOM     20  C   UNL     1       1.487   9.226  19.524  0.00  0.00    +0.000 A 
ATOM     21  C   UNL     1       1.295   8.319  20.571  0.00  0.00    +0.000 A 
ATOM     22  C   UNL     1       1.537   6.964  20.391  0.00  0.00    +0.000 A 
ATOM     23  C   UNL     1       0.913   9.045  21.825  0.00  0.00    +0.000 C 
ATOM     24  C   UNL     1       0.458  10.402  21.261  0.00  0.00    +0.000 C 
ATOM     25  C   UNL     1       1.258  10.632  19.975  0.00  0.00    +0.000 C 
ENDBRANCH   3  17
TORSDOF 2
ENDMDL
MODEL 2
REMARK VINA RESULT:      -8.4      0.457      1.471
REMARK  Name = 
REMARK  2 active torsions:
REMARK  status: ('A' for Active; 'I' for Inactive)
REMARK    1  A    between atoms: C_2  and  C_13
REMARK    2  A    between atoms: N_3  and  C_4
REMARK                            x       y       z     vdW  Elec       q    Type
REMARK                         _______ _______ _______ _____ _____    ______ ____
ROOT
ATOM      1  O   UNL     1       1.013   4.697  17.369  0.00  0.00    +0.000 OA
ATOM      2  C   UNL     1       1.806   4.336  18.239  0.00  0.00    +0.000 C 
ATOM      3  N   UNL     1       2.299   5.129  19.258  0.00  0.00    +0.000 N 
ATOM      4  H   UNL     1       3.094   4.757  19.766  0.00  0.00    +0.000 HD
ENDROOT
BRANCH   2   5
ATOM      5  C   UNL     1       2.294   2.885  18.234  0.00  0.00    +0.000 C 
ATOM      6  C   UNL     1       2.160   2.212  19.605  0.00  0.00    +0.000 C 
ATOM      7  C   UNL     1       3.290   2.560  20.575  0.00  0.00    +0.000 C 
ATOM      8  C   UNL     1       4.674   2.438  19.933  0.00  0.00    +0.000 C 
ATOM      9  N   UNL     1       4.688   3.139  18.656  0.00  0.00    +0.000 N 
ATOM     10  C   UNL     1       5.597   4.131  18.380  0.00  0.00    +0.000 A 
ATOM     11  N   UNL     1       6.367   4.598  19.372  0.00  0.00    +0.000 NA
ATOM     12  C   UNL     1       7.118   5.689  19.125  0.00  0.00    +0.000 A 
ATOM     13  C   UNL     1       7.122   6.352  17.926  0.00  0.00    +0.000 A 
ATOM     14  C   UNL     1       6.315   5.807  16.967  0.00  0.00    +0.000 A 
ATOM     15  N   UNL     1       5.559   4.714  17.172  0.00  0.00    +0.000 NA
ATOM     16  C   UNL     1       3.701   2.742  17.657  0.00  0.00    +0.000 C 
ENDBRANCH   2   5
BRANCH   3  17
ATOM     17  C   UNL     1       1.989   6.481  19.511  0.00  0.00    +0.000 A 
ATOM     18  C   UNL     1       1.471   6.915  20.742  0.00  0.00    +0.000 A 
ATOM     19  C   UNL     1       1.098   8.244  20.941  0.00  0.00    +0.000 A 
ATOM     20  C   UNL     1       1.268   9.138  19.904  0.00  0.00    +0.000 A 
ATOM     21  C   UNL     1       1.822   8.733  18.686  0.00  0.00    +0.000 A 
ATOM     22  C   UNL     1       2.199   7.413  18.481  0.00  0.00    +0.000 A 
ATOM     23  C   UNL     1       1.833   9.874  17.715  0.00  0.00    +0.000 C 
ATOM     24  C   UNL     1       1.656  11.075  18.658  0.00  0.00    +0.000 C 
ATOM     25  C   UNL     1       0.853  10.572  19.863  0.00  0.00    +0.000 C 
ENDBRANCH   3  17
TORSDOF 2
ENDMDL
MODEL 3
REMARK VINA RESULT:      -8.0      1.751      3.702
REMARK  Name = 
REMARK  2 active torsions:
REMARK  status: ('A' for Active; 'I' for Inactive)
REMARK    1  A    between atoms: C_2  and  C_13
REMARK    2  A    between atoms: N_3  and  C_4
REMARK                            x       y       z     vdW  Elec       q    Type
REMARK                         _______ _______ _______ _____ _____    ______ ____
ROOT
ATOM      1  O   UNL     1       5.439   7.393  17.416  0.00  0.00    +0.000 OA
ATOM      2  C   UNL     1       5.013   6.366  17.944  0.00  0.00    +0.000 C 
ATOM      3  N   UNL     1       3.804   6.240  18.603  0.00  0.00    +0.000 N 
ATOM      4  H   UNL     1       3.687   5.401  19.160  0.00  0.00    +0.000 HD
ENDROOT
BRANCH   2   5
ATOM      5  C   UNL     1       5.860   5.093  17.866  0.00  0.00    +0.000 C 
ATOM      6  C   UNL     1       5.965   4.540  16.440  0.00  0.00    +0.000 C 
ATOM      7  C   UNL     1       4.746   3.724  16.004  0.00  0.00    +0.000 C 
ATOM      8  C   UNL     1       4.318   2.701  17.059  0.00  0.00    +0.000 C 
ATOM      9  N   UNL     1       4.224   3.347  18.361  0.00  0.00    +0.000 N 
ATOM     10  C   UNL     1       3.071   3.315  19.108  0.00  0.00    +0.000 A 
ATOM     11  N   UNL     1       1.949   2.844  18.547  0.00  0.00    +0.000 NA
ATOM     12  C   UNL     1       0.796   2.991  19.229  0.00  0.00    +0.000 A 
ATOM     13  C   UNL     1       0.708   3.607  20.450  0.00  0.00    +0.000 A 
ATOM     14  C   UNL     1       1.899   4.052  20.954  0.00  0.00    +0.000 A 
ATOM     15  N   UNL     1       3.071   3.915  20.308  0.00  0.00    +0.000 NA
ATOM     16  C   UNL     1       5.412   4.028  18.865  0.00  0.00    +0.000 C 
ENDBRANCH   2   5
BRANCH   3  17
ATOM     17  C   UNL     1       2.828   7.240  18.788  0.00  0.00    +0.000 A 
ATOM     18  C   UNL     1       2.429   8.101  17.753  0.00  0.00    +0.000 A 
ATOM     19  C   UNL     1       1.519   9.133  17.981  0.00  0.00    +0.000 A 
ATOM     20  C   UNL     1       0.997   9.282  19.250  0.00  0.00    +0.000 A 
ATOM     21  C   UNL     1       1.349   8.407  20.282  0.00  0.00    +0.000 A 
ATOM     22  C   UNL     1       2.252   7.376  20.063  0.00  0.00    +0.000 A 
ATOM     23  C   UNL     1       0.700   8.828  21.565  0.00  0.00    +0.000 C 
ATOM     24  C   UNL     1      -0.418   9.751  21.049  0.00  0.00    +0.000 C 
ATOM     25  C   UNL     1       0.091  10.364  19.739  0.00  0.00    +0.000 C 
ENDBRANCH   3  17
TORSDOF 2
ENDMDL
MODEL 4
REMARK VINA RESULT:      -7.9      1.488      2.367
REMARK  Name = 
REMARK  2 active torsions:
REMARK  status: ('A' for Active; 'I' for Inactive)
REMARK    1  A    between atoms: C_2  and  C_13
REMARK    2  A    between atoms: N_3  and  C_4
REMARK                            x       y       z     vdW  Elec       q    Type
REMARK                         _______ _______ _______ _____ _____    ______ ____
ROOT
ATOM      1  O   UNL     1       3.262   7.452  17.823  0.00  0.00    +0.000 OA
ATOM      2  C   UNL     1       2.482   6.680  18.379  0.00  0.00    +0.000 C 
ATOM      3  N   UNL     1       1.581   7.020  19.371  0.00  0.00    +0.000 N 
ATOM      4  H   UNL     1       1.159   6.247  19.872  0.00  0.00    +0.000 HD
ENDROOT
BRANCH   2   5
ATOM      5  C   UNL     1       2.467   5.212  17.946  0.00  0.00    +0.000 C 
ATOM      6  C   UNL     1       1.982   4.273  19.058  0.00  0.00    +0.000 C 
ATOM      7  C   UNL     1       3.059   3.931  20.089  0.00  0.00    +0.000 C 
ATOM      8  C   UNL     1       4.385   3.525  19.440  0.00  0.00    +0.000 C 
ATOM      9  N   UNL     1       4.756   4.503  18.428  0.00  0.00    +0.000 N 
ATOM     10  C   UNL     1       5.963   5.160  18.457  0.00  0.00    +0.000 A 
ATOM     11  N   UNL     1       6.738   5.041  19.544  0.00  0.00    +0.000 NA
ATOM     12  C   UNL     1       7.825   5.833  19.630  0.00  0.00    +0.000 A 
ATOM     13  C   UNL     1       8.167   6.760  18.680  0.00  0.00    +0.000 A 
ATOM     14  C   UNL     1       7.328   6.812  17.602  0.00  0.00    +0.000 A 
ATOM     15  N   UNL     1       6.241   6.031  17.475  0.00  0.00    +0.000 NA
ATOM     16  C   UNL     1       3.801   4.761  17.355  0.00  0.00    +0.000 C 
ENDBRANCH   2   5
BRANCH   3  17
ATOM     17  C   UNL     1       1.368   8.299  19.925  0.00  0.00    +0.000 A 
ATOM     18  C   UNL     1       1.313   8.517  21.311  0.00  0.00    +0.000 A 
ATOM     19  C   UNL     1       1.023   9.777  21.833  0.00  0.00    +0.000 A 
ATOM     20  C   UNL     1       0.808  10.820  20.956  0.00  0.00    +0.000 A 
ATOM     21  C   UNL     1       0.901  10.631  19.574  0.00  0.00    +0.000 A 
ATOM     22  C   UNL     1       1.192   9.381  19.046  0.00  0.00    +0.000 A 
ATOM     23  C   UNL     1       0.557  11.898  18.851  0.00  0.00    +0.000 C 
ATOM     24  C   UNL     1       0.714  12.938  19.974  0.00  0.00    +0.000 C 
ATOM     25  C   UNL     1       0.392  12.216  21.287  0.00  0.00    +0.000 C 
ENDBRANCH   3  17
TORSDOF 2
ENDMDL
MODEL 5
REMARK VINA RESULT:      -7.9      3.444      7.847
REMARK  Name = 
REMARK  2 active torsions:
REMARK  status: ('A' for Active; 'I' for Inactive)
REMARK    1  A    between atoms: C_2  and  C_13
REMARK    2  A    between atoms: N_3  and  C_4
REMARK                            x       y       z     vdW  Elec       q    Type
REMARK                         _______ _______ _______ _____ _____    ______ ____
ROOT
ATOM      1  O   UNL     1      -0.343   8.193  21.032  0.00  0.00    +0.000 OA
ATOM      2  C   UNL     1       0.818   8.491  21.312  0.00  0.00    +0.000 C 
ATOM      3  N   UNL     1       1.946   7.794  20.920  0.00  0.00    +0.000 N 
ATOM      4  H   UNL     1       2.807   8.039  21.395  0.00  0.00    +0.000 HD
ENDROOT
BRANCH   2   5
ATOM      5  C   UNL     1       1.074   9.748  22.148  0.00  0.00    +0.000 C 
ATOM      6  C   UNL     1       0.253   9.773  23.443  0.00  0.00    +0.000 C 
ATOM      7  C   UNL     1      -1.194  10.229  23.247  0.00  0.00    +0.000 C 
ATOM      8  C   UNL     1      -1.299  11.497  22.397  0.00  0.00    +0.000 C 
ATOM      9  N   UNL     1      -0.507  11.344  21.184  0.00  0.00    +0.000 N 
ATOM     10  C   UNL     1      -1.053  11.496  19.932  0.00  0.00    +0.000 A 
ATOM     11  N   UNL     1      -2.384  11.599  19.816  0.00  0.00    +0.000 NA
ATOM     12  C   UNL     1      -2.911  11.562  18.576  0.00  0.00    +0.000 A 
ATOM     13  C   UNL     1      -2.164  11.409  17.438  0.00  0.00    +0.000 A 
ATOM     14  C   UNL     1      -0.816  11.318  17.645  0.00  0.00    +0.000 A 
ATOM     15  N   UNL     1      -0.252  11.361  18.865  0.00  0.00    +0.000 NA
ATOM     16  C   UNL     1       0.911  11.033  21.339  0.00  0.00    +0.000 C 
ENDBRANCH   2   5
BRANCH   3  17
ATOM     17  C   UNL     1       1.994   6.631  20.124  0.00  0.00    +0.000 A 
ATOM     18  C   UNL     1       2.396   6.658  18.779  0.00  0.00    +0.000 A 
ATOM     19  C   UNL     1       2.360   5.508  17.991  0.00  0.00    +0.000 A 
ATOM     20  C   UNL     1       1.938   4.328  18.568  0.00  0.00    +0.000 A 
ATOM     21  C   UNL     1       1.576   4.273  19.917  0.00  0.00    +0.000 A 
ATOM     22  C   UNL     1       1.612   5.413  20.709  0.00  0.00    +0.000 A 
ATOM     23  C   UNL     1       1.095   2.899  20.272  0.00  0.00    +0.000 C 
ATOM     24  C   UNL     1       1.661   2.071  19.105  0.00  0.00    +0.000 C 
ATOM     25  C   UNL     1       1.731   3.010  17.896  0.00  0.00    +0.000 C 
ENDBRANCH   3  17
TORSDOF 2
ENDMDL
MODEL 6
REMARK VINA RESULT:      -7.7      1.616      2.176
REMARK  Name = 
REMARK  2 active torsions:
REMARK  status: ('A' for Active; 'I' for Inactive)
REMARK    1  A    between atoms: C_2  and  C_13
REMARK    2  A    between atoms: N_3  and  C_4
REMARK                            x       y       z     vdW  Elec       q    Type
REMARK                         _______ _______ _______ _____ _____    ______ ____
ROOT
ATOM      1  O   UNL     1       2.892   6.723  19.888  0.00  0.00    +0.000 OA
ATOM      2  C   UNL     1       2.340   6.614  18.792  0.00  0.00    +0.000 C 
ATOM      3  N   UNL     1       1.730   7.638  18.092  0.00  0.00    +0.000 N 
ATOM      4  H   UNL     1       1.145   7.356  17.313  0.00  0.00    +0.000 HD
ENDROOT
BRANCH   2   5
ATOM      5  C   UNL     1       2.329   5.244  18.109  0.00  0.00    +0.000 C 
ATOM      6  C   UNL     1       2.006   4.102  19.080  0.00  0.00    +0.000 C 
ATOM      7  C   UNL     1       3.205   3.646  19.915  0.00  0.00    +0.000 C 
ATOM      8  C   UNL     1       4.462   3.433  19.068  0.00  0.00    +0.000 C 
ATOM      9  N   UNL     1       4.682   4.590  18.213  0.00  0.00    +0.000 N 
ATOM     10  C   UNL     1       5.860   5.298  18.232  0.00  0.00    +0.000 A 
ATOM     11  N   UNL     1       6.756   5.035  19.192  0.00  0.00    +0.000 NA
ATOM     12  C   UNL     1       7.817   5.858  19.304  0.00  0.00    +0.000 A 
ATOM     13  C   UNL     1       8.017   6.953  18.503  0.00  0.00    +0.000 A 
ATOM     14  C   UNL     1       7.060   7.144  17.546  0.00  0.00    +0.000 A 
ATOM     15  N   UNL     1       5.993   6.339  17.397  0.00  0.00    +0.000 NA
ATOM     16  C   UNL     1       3.602   4.977  17.309  0.00  0.00    +0.000 C 
ENDBRANCH   2   5
BRANCH   3  17
ATOM     17  C   UNL     1       1.630   8.990  18.476  0.00  0.00    +0.000 A 
ATOM     18  C   UNL     1       2.237  10.025  17.746  0.00  0.00    +0.000 A 
ATOM     19  C   UNL     1       2.189  11.347  18.189  0.00  0.00    +0.000 A 
ATOM     20  C   UNL     1       1.512  11.625  19.358  0.00  0.00    +0.000 A 
ATOM     21  C   UNL     1       0.864  10.614  20.075  0.00  0.00    +0.000 A 
ATOM     22  C   UNL     1       0.904   9.296  19.639  0.00  0.00    +0.000 A 
ATOM     23  C   UNL     1       0.267  11.168  21.332  0.00  0.00    +0.000 C 
ATOM     24  C   UNL     1       0.245  12.674  21.018  0.00  0.00    +0.000 C 
ATOM     25  C   UNL     1       1.415  12.938  20.063  0.00  0.00    +0.000 C 
ENDBRANCH   3  17
TORSDOF 2
ENDMDL
MODEL 7
REMARK VINA RESULT:      -7.7      1.801      3.837
REMARK  Name = 
REMARK  2 active torsions:
REMARK  status: ('A' for Active; 'I' for Inactive)
REMARK    1  A    between atoms: C_2  and  C_13
REMARK    2  A    between atoms: N_3  and  C_4
REMARK                            x       y       z     vdW  Elec       q    Type
REMARK                         _______ _______ _______ _____ _____    ______ ____
ROOT
ATOM      1  O   UNL     1       6.012   7.873  17.426  0.00  0.00    +0.000 OA
ATOM      2  C   UNL     1       5.563   6.729  17.494  0.00  0.00    +0.000 C 
ATOM      3  N   UNL     1       4.281   6.389  17.885  0.00  0.00    +0.000 N 
ATOM      4  H   UNL     1       4.125   5.408  18.089  0.00  0.00    +0.000 HD
ENDROOT
BRANCH   2   5
ATOM      5  C   UNL     1       6.467   5.559  17.099  0.00  0.00    +0.000 C 
ATOM      6  C   UNL     1       6.504   5.325  15.584  0.00  0.00    +0.000 C 
ATOM      7  C   UNL     1       5.302   4.541  15.053  0.00  0.00    +0.000 C 
ATOM      8  C   UNL     1       5.000   3.294  15.887  0.00  0.00    +0.000 C 
ATOM      9  N   UNL     1       4.961   3.645  17.300  0.00  0.00    +0.000 N 
ATOM     10  C   UNL     1       3.864   3.383  18.086  0.00  0.00    +0.000 A 
ATOM     11  N   UNL     1       2.733   2.968  17.501  0.00  0.00    +0.000 NA
ATOM     12  C   UNL     1       1.623   2.893  18.261  0.00  0.00    +0.000 A 
ATOM     13  C   UNL     1       1.587   3.233  19.588  0.00  0.00    +0.000 A 
ATOM     14  C   UNL     1       2.784   3.638  20.108  0.00  0.00    +0.000 A 
ATOM     15  N   UNL     1       3.915   3.716  19.384  0.00  0.00    +0.000 NA
ATOM     16  C   UNL     1       6.144   4.281  17.871  0.00  0.00    +0.000 C 
ENDBRANCH   2   5
BRANCH   3  17
ATOM     17  C   UNL     1       3.245   7.267  18.264  0.00  0.00    +0.000 A 
ATOM     18  C   UNL     1       2.755   8.266  17.407  0.00  0.00    +0.000 A 
ATOM     19  C   UNL     1       1.785   9.172  17.833  0.00  0.00    +0.000 A 
ATOM     20  C   UNL     1       1.296   9.058  19.118  0.00  0.00    +0.000 A 
ATOM     21  C   UNL     1       1.741   8.043  19.972  0.00  0.00    +0.000 A 
ATOM     22  C   UNL     1       2.704   7.134  19.554  0.00  0.00    +0.000 A 
ATOM     23  C   UNL     1       1.106   8.183  21.321  0.00  0.00    +0.000 C 
ATOM     24  C   UNL     1      -0.087   9.099  21.000  0.00  0.00    +0.000 C 
ATOM     25  C   UNL     1       0.336   9.968  19.810  0.00  0.00    +0.000 C 
ENDBRANCH   3  17
TORSDOF 2
ENDMDL
MODEL 8
REMARK VINA RESULT:      -7.7      1.826      2.742
REMARK  Name = 
REMARK  2 active torsions:
REMARK  status: ('A' for Active; 'I' for Inactive)
REMARK    1  A    between atoms: C_2  and  C_13
REMARK    2  A    between atoms: N_3  and  C_4
REMARK                            x       y       z     vdW  Elec       q    Type
REMARK                         _______ _______ _______ _____ _____    ______ ____
ROOT
ATOM      1  O   UNL     1       3.049   6.704  19.810  0.00  0.00    +0.000 OA
ATOM      2  C   UNL     1       2.399   6.645  18.766  0.00  0.00    +0.000 C 
ATOM      3  N   UNL     1       1.683   7.685  18.203  0.00  0.00    +0.000 N 
ATOM      4  H   UNL     1       1.037   7.431  17.464  0.00  0.00    +0.000 HD
ENDROOT
BRANCH   2   5
ATOM      5  C   UNL     1       2.376   5.328  17.988  0.00  0.00    +0.000 C 
ATOM      6  C   UNL     1       2.023   4.125  18.872  0.00  0.00    +0.000 C 
ATOM      7  C   UNL     1       3.204   3.593  19.687  0.00  0.00    +0.000 C 
ATOM      8  C   UNL     1       4.469   3.420  18.843  0.00  0.00    +0.000 C 
ATOM      9  N   UNL     1       4.717   4.631  18.074  0.00  0.00    +0.000 N 
ATOM     10  C   UNL     1       5.905   5.317  18.158  0.00  0.00    +0.000 A 
ATOM     11  N   UNL     1       6.785   4.973  19.108  0.00  0.00    +0.000 NA
ATOM     12  C   UNL     1       7.856   5.770  19.291  0.00  0.00    +0.000 A 
ATOM     13  C   UNL     1       8.083   6.914  18.572  0.00  0.00    +0.000 A 
ATOM     14  C   UNL     1       7.142   7.188  17.619  0.00  0.00    +0.000 A 
ATOM     15  N   UNL     1       6.066   6.412  17.400  0.00  0.00    +0.000 NA
ATOM     16  C   UNL     1       3.656   5.097  17.187  0.00  0.00    +0.000 C 
ENDBRANCH   2   5
BRANCH   3  17
ATOM     17  C   UNL     1       1.566   9.002  18.694  0.00  0.00    +0.000 A 
ATOM     18  C   UNL     1       0.802   9.315  19.830  0.00  0.00    +0.000 A 
ATOM     19  C   UNL     1       0.637  10.635  20.249  0.00  0.00    +0.000 A 
ATOM     20  C   UNL     1       1.260  11.636  19.532  0.00  0.00    +0.000 A 
ATOM     21  C   UNL     1       2.060  11.339  18.424  0.00  0.00    +0.000 A 
ATOM     22  C   UNL     1       2.232  10.028  18.002  0.00  0.00    +0.000 A 
ATOM     23  C   UNL     1       2.560  12.602  17.791  0.00  0.00    +0.000 C 
ATOM     24  C   UNL     1       2.341  13.616  18.926  0.00  0.00    +0.000 C 
ATOM     25  C   UNL     1       1.145  13.110  19.741  0.00  0.00    +0.000 C 
ENDBRANCH   3  17
TORSDOF 2
ENDMDL
MODEL 9
REMARK VINA RESULT:      -7.7      3.944      8.159
REMARK  Name = 
REMARK  2 active torsions:
REMARK  status: ('A' for Active; 'I' for Inactive)
REMARK    1  A    between atoms: C_2  and  C_13
REMARK    2  A    between atoms: N_3  and  C_4
REMARK                            x       y       z     vdW  Elec       q    Type
REMARK                         _______ _______ _______ _____ _____    ______ ____
ROOT
ATOM      1  O   UNL     1       0.505   9.511  18.014  0.00  0.00    +0.000 OA
ATOM      2  C   UNL     1       1.095   9.720  19.074  0.00  0.00    +0.000 C 
ATOM      3  N   UNL     1       1.799   8.779  19.802  0.00  0.00    +0.000 N 
ATOM      4  H   UNL     1       2.051   9.047  20.747  0.00  0.00    +0.000 HD
ENDROOT
BRANCH   2   5
ATOM      5  C   UNL     1       1.085  11.136  19.654  0.00  0.00    +0.000 C 
ATOM      6  C   UNL     1       0.787  11.157  21.158  0.00  0.00    +0.000 C 
ATOM      7  C   UNL     1      -0.701  11.037  21.493  0.00  0.00    +0.000 C 
ATOM      8  C   UNL     1      -1.568  11.980  20.654  0.00  0.00    +0.000 C 
ATOM      9  N   UNL     1      -1.217  11.850  19.247  0.00  0.00    +0.000 N 
ATOM     10  C   UNL     1      -2.149  11.534  18.289  0.00  0.00    +0.000 A 
ATOM     11  N   UNL     1      -3.372  11.149  18.679  0.00  0.00    +0.000 NA
ATOM     12  C   UNL     1      -4.210  10.670  17.738  0.00  0.00    +0.000 A 
ATOM     13  C   UNL     1      -3.874  10.541  16.416  0.00  0.00    +0.000 A 
ATOM     14  C   UNL     1      -2.611  10.962  16.102  0.00  0.00    +0.000 A 
ATOM     15  N   UNL     1      -1.751  11.455  17.011  0.00  0.00    +0.000 NA
ATOM     16  C   UNL     1       0.175  12.083  18.874  0.00  0.00    +0.000 C 
ENDBRANCH   2   5
BRANCH   3  17
ATOM     17  C   UNL     1       1.992   7.421  19.478  0.00  0.00    +0.000 A 
ATOM     18  C   UNL     1       2.542   7.012  18.252  0.00  0.00    +0.000 A 
ATOM     19  C   UNL     1       2.650   5.661  17.922  0.00  0.00    +0.000 A 
ATOM     20  C   UNL     1       2.221   4.724  18.840  0.00  0.00    +0.000 A 
ATOM     21  C   UNL     1       1.712   5.111  20.083  0.00  0.00    +0.000 A 
ATOM     22  C   UNL     1       1.604   6.454  20.420  0.00  0.00    +0.000 A 
ATOM     23  C   UNL     1       1.260   3.910  20.857  0.00  0.00    +0.000 C 
ATOM     24  C   UNL     1       1.992   2.780  20.114  0.00  0.00    +0.000 C 
ATOM     25  C   UNL     1       2.154   3.242  18.662  0.00  0.00    +0.000 C 
ENDBRANCH   3  17
TORSDOF 2
ENDMDL
