MODEL 1
REMARK VINA RESULT:      -7.7      0.000      0.000
REMARK  Name = 
REMARK  8 active torsions:
REMARK  status: ('A' for Active; 'I' for Inactive)
REMARK    1  A    between atoms: C_1  and  O_2
REMARK    2  A    between atoms: O_2  and  C_3
REMARK    3  A    between atoms: C_6  and  C_7
REMARK    4  A    between atoms: C_12  and  C_13
REMARK    5  A    between atoms: C_18  and  O_19
REMARK    6  A    between atoms: O_19  and  C_20
REMARK    7  A    between atoms: C_28  and  C_29
REMARK    8  A    between atoms: C_31  and  N_32
REMARK                            x       y       z     vdW  Elec       q    Type
REMARK                         _______ _______ _______ _____ _____    ______ ____
ROOT
ATOM      1  C   UNL     1      -4.157  12.353  20.786  0.00  0.00    +0.000 A 
ATOM      2  N   UNL     1      -5.472  12.154  21.166  0.00  0.00    +0.000 N 
ATOM      3  N   UNL     1      -5.766  12.566  22.410  0.00  0.00    +0.000 NA
ATOM      4  C   UNL     1      -4.594  13.006  22.843  0.00  0.00    +0.000 A 
ATOM      5  C   UNL     1      -3.542  12.859  21.930  0.00  0.00    +0.000 A 
ATOM      6  C   UNL     1      -2.143  13.279  22.301  0.00  0.00    +0.000 C 
ATOM      7  C   UNL     1      -2.163  13.987  23.649  0.00  0.00    +0.000 C 
ATOM      8  C   UNL     1      -3.284  14.152  24.402  0.00  0.00    +0.000 C 
ATOM      9  O   UNL     1      -4.501  13.556  24.064  0.00  0.00    +0.000 OA
ATOM     10  H   UNL     1      -6.223  11.765  20.607  0.00  0.00    +0.000 HD
ENDROOT
BRANCH   1  14
ATOM     11  C   UNL     1      -2.789  11.248  16.882  0.00  0.00    +0.000 A 
ATOM     12  C   UNL     1      -4.147  11.320  17.167  0.00  0.00    +0.000 A 
ATOM     13  C   UNL     1      -4.589  11.740  18.420  0.00  0.00    +0.000 A 
ATOM     14  C   UNL     1      -3.683  12.085  19.426  0.00  0.00    +0.000 A 
ATOM     15  C   UNL     1      -2.316  12.078  19.107  0.00  0.00    +0.000 A 
ATOM     16  C   UNL     1      -1.869  11.656  17.845  0.00  0.00    +0.000 A 
BRANCH  11  18
ATOM     17  C   UNL     1      -3.605  10.367  14.840  0.00  0.00    +0.000 C 
ATOM     18  O   UNL     1      -2.500  10.720  15.656  0.00  0.00    +0.000 OA
ENDBRANCH  11  18
ENDBRANCH   1  14
BRANCH   6  19
ATOM     19  C   UNL     1      -1.201  12.074  22.250  0.00  0.00    +0.000 A 
ATOM     20  C   UNL     1      -1.441  10.905  23.004  0.00  0.00    +0.000 A 
ATOM     21  C   UNL     1      -0.558   9.821  23.005  0.00  0.00    +0.000 A 
ATOM     22  C   UNL     1       0.627   9.888  22.302  0.00  0.00    +0.000 A 
ATOM     23  C   UNL     1       0.909  11.020  21.548  0.00  0.00    +0.000 A 
ATOM     24  C   UNL     1      -0.014  12.077  21.478  0.00  0.00    +0.000 A 
BRANCH  24  25
ATOM     25  O   UNL     1       0.438  13.146  20.669  0.00  0.00    +0.000 OA
BRANCH  25  26
ATOM     26  C   UNL     1       1.603  13.845  20.981  0.00  0.00    +0.000 C 
ATOM     27  O   UNL     1       1.916  14.184  22.117  0.00  0.00    +0.000 OA
ATOM     28  N   UNL     1       2.419  14.042  19.878  0.00  0.00    +0.000 N 
ATOM     29  C   UNL     1       3.766  14.555  20.081  0.00  0.00    +0.000 C 
ATOM     30  C   UNL     1       3.731  16.082  19.988  0.00  0.00    +0.000 C 
ATOM     31  O   UNL     1       3.212  16.485  18.706  0.00  0.00    +0.000 OA
ATOM     32  C   UNL     1       1.889  15.959  18.476  0.00  0.00    +0.000 C 
ATOM     33  C   UNL     1       1.857  14.424  18.585  0.00  0.00    +0.000 C 
ENDBRANCH  25  26
ENDBRANCH  24  25
ENDBRANCH   6  19
BRANCH   8  34
ATOM     34  N   UNL     1      -3.382  14.986  25.493  0.00  0.00    +0.000 N 
ATOM     35  H   UNL     1      -2.947  15.902  25.425  0.00  0.00    +0.000 HD
ATOM     36  H   UNL     1      -3.244  14.514  26.383  0.00  0.00    +0.000 HD
ENDBRANCH   8  34
BRANCH   7  37
ATOM     37  C   UNL     1      -1.032  14.958  23.943  0.00  0.00    +0.000 C 
ATOM     38  N   UNL     1      -0.093  15.764  24.188  0.00  0.00    +0.000 NA
ENDBRANCH   7  37
TORSDOF 7
ENDMDL
MODEL 2
REMARK VINA RESULT:      -7.6      1.012      1.056
REMARK  Name = 
REMARK  8 active torsions:
REMARK  status: ('A' for Active; 'I' for Inactive)
REMARK    1  A    between atoms: C_1  and  O_2
REMARK    2  A    between atoms: O_2  and  C_3
REMARK    3  A    between atoms: C_6  and  C_7
REMARK    4  A    between atoms: C_12  and  C_13
REMARK    5  A    between atoms: C_18  and  O_19
REMARK    6  A    between atoms: O_19  and  C_20
REMARK    7  A    between atoms: C_28  and  C_29
REMARK    8  A    between atoms: C_31  and  N_32
REMARK                            x       y       z     vdW  Elec       q    Type
REMARK                         _______ _______ _______ _____ _____    ______ ____
ROOT
ATOM      1  C   UNL     1      -4.200  12.288  20.717  0.00  0.00    +0.000 A 
ATOM      2  N   UNL     1      -5.519  12.122  21.100  0.00  0.00    +0.000 N 
ATOM      3  N   UNL     1      -5.805  12.560  22.337  0.00  0.00    +0.000 NA
ATOM      4  C   UNL     1      -4.625  12.983  22.763  0.00  0.00    +0.000 A 
ATOM      5  C   UNL     1      -3.575  12.800  21.853  0.00  0.00    +0.000 A 
ATOM      6  C   UNL     1      -2.169  13.197  22.218  0.00  0.00    +0.000 C 
ATOM      7  C   UNL     1      -2.175  13.928  23.554  0.00  0.00    +0.000 C 
ATOM      8  C   UNL     1      -3.292  14.127  24.304  0.00  0.00    +0.000 C 
ATOM      9  O   UNL     1      -4.521  13.551  23.976  0.00  0.00    +0.000 OA
ATOM     10  H   UNL     1      -6.278  11.739  20.547  0.00  0.00    +0.000 HD
ENDROOT
BRANCH   1  14
ATOM     11  C   UNL     1      -2.786  11.100  16.854  0.00  0.00    +0.000 A 
ATOM     12  C   UNL     1      -4.123  10.952  17.200  0.00  0.00    +0.000 A 
ATOM     13  C   UNL     1      -4.592  11.397  18.434  0.00  0.00    +0.000 A 
ATOM     14  C   UNL     1      -3.732  11.989  19.362  0.00  0.00    +0.000 A 
ATOM     15  C   UNL     1      -2.398  12.198  18.978  0.00  0.00    +0.000 A 
ATOM     16  C   UNL     1      -1.924  11.752  17.734  0.00  0.00    +0.000 A 
BRANCH  11  18
ATOM     17  C   UNL     1      -3.498  10.320  14.734  0.00  0.00    +0.000 C 
ATOM     18  O   UNL     1      -2.446  10.525  15.663  0.00  0.00    +0.000 OA
ENDBRANCH  11  18
ENDBRANCH   1  14
BRANCH   6  19
ATOM     19  C   UNL     1      -1.251  11.973  22.187  0.00  0.00    +0.000 A 
ATOM     20  C   UNL     1      -1.432  10.881  23.063  0.00  0.00    +0.000 A 
ATOM     21  C   UNL     1      -0.567   9.783  23.079  0.00  0.00    +0.000 A 
ATOM     22  C   UNL     1       0.547   9.762  22.263  0.00  0.00    +0.000 A 
ATOM     23  C   UNL     1       0.768  10.817  21.387  0.00  0.00    +0.000 A 
ATOM     24  C   UNL     1      -0.144  11.882  21.309  0.00  0.00    +0.000 A 
BRANCH  24  25
ATOM     25  O   UNL     1       0.241  12.865  20.368  0.00  0.00    +0.000 OA
BRANCH  25  26
ATOM     26  C   UNL     1       1.068  13.928  20.730  0.00  0.00    +0.000 C 
ATOM     27  O   UNL     1       1.722  13.966  21.766  0.00  0.00    +0.000 OA
ATOM     28  N   UNL     1       1.144  14.904  19.748  0.00  0.00    +0.000 N 
ATOM     29  C   UNL     1       2.136  15.961  19.882  0.00  0.00    +0.000 C 
ATOM     30  C   UNL     1       1.504  17.140  20.623  0.00  0.00    +0.000 C 
ATOM     31  O   UNL     1       0.344  17.606  19.908  0.00  0.00    +0.000 OA
ATOM     32  C   UNL     1      -0.637  16.562  19.741  0.00  0.00    +0.000 C 
ATOM     33  C   UNL     1      -0.048  15.335  19.023  0.00  0.00    +0.000 C 
ENDBRANCH  25  26
ENDBRANCH  24  25
ENDBRANCH   6  19
BRANCH   8  34
ATOM     34  N   UNL     1      -3.374  14.981  25.382  0.00  0.00    +0.000 N 
ATOM     35  H   UNL     1      -4.124  15.667  25.381  0.00  0.00    +0.000 HD
ATOM     36  H   UNL     1      -2.473  15.335  25.692  0.00  0.00    +0.000 HD
ENDBRANCH   8  34
BRANCH   7  37
ATOM     37  C   UNL     1      -1.024  14.880  23.833  0.00  0.00    +0.000 C 
ATOM     38  N   UNL     1      -0.070  15.672  24.065  0.00  0.00    +0.000 NA
ENDBRANCH   7  37
TORSDOF 7
ENDMDL
MODEL 3
REMARK VINA RESULT:      -7.1      1.251      1.517
REMARK  Name = 
REMARK  8 active torsions:
REMARK  status: ('A' for Active; 'I' for Inactive)
REMARK    1  A    between atoms: C_1  and  O_2
REMARK    2  A    between atoms: O_2  and  C_3
REMARK    3  A    between atoms: C_6  and  C_7
REMARK    4  A    between atoms: C_12  and  C_13
REMARK    5  A    between atoms: C_18  and  O_19
REMARK    6  A    between atoms: O_19  and  C_20
REMARK    7  A    between atoms: C_28  and  C_29
REMARK    8  A    between atoms: C_31  and  N_32
REMARK                            x       y       z     vdW  Elec       q    Type
REMARK                         _______ _______ _______ _____ _____    ______ ____
ROOT
ATOM      1  C   UNL     1      -3.623  12.627  20.150  0.00  0.00    +0.000 A 
ATOM      2  N   UNL     1      -4.925  12.943  20.493  0.00  0.00    +0.000 N 
ATOM      3  N   UNL     1      -5.044  13.769  21.546  0.00  0.00    +0.000 NA
ATOM      4  C   UNL     1      -3.782  13.951  21.901  0.00  0.00    +0.000 A 
ATOM      5  C   UNL     1      -2.850  13.242  21.134  0.00  0.00    +0.000 A 
ATOM      6  C   UNL     1      -1.379  13.322  21.449  0.00  0.00    +0.000 C 
ATOM      7  C   UNL     1      -1.146  14.367  22.532  0.00  0.00    +0.000 C 
ATOM      8  C   UNL     1      -2.143  15.066  23.139  0.00  0.00    +0.000 C 
ATOM      9  O   UNL     1      -3.491  14.783  22.916  0.00  0.00    +0.000 OA
ATOM     10  H   UNL     1      -5.775  12.646  20.026  0.00  0.00    +0.000 HD
ENDROOT
BRANCH   1  14
ATOM     11  C   UNL     1      -2.729  10.613  16.478  0.00  0.00    +0.000 A 
ATOM     12  C   UNL     1      -1.766  11.380  17.123  0.00  0.00    +0.000 A 
ATOM     13  C   UNL     1      -2.041  11.982  18.349  0.00  0.00    +0.000 A 
ATOM     14  C   UNL     1      -3.293  11.846  18.955  0.00  0.00    +0.000 A 
ATOM     15  C   UNL     1      -4.235  11.014  18.332  0.00  0.00    +0.000 A 
ATOM     16  C   UNL     1      -3.960  10.404  17.097  0.00  0.00    +0.000 A 
BRANCH  11  18
ATOM     17  C   UNL     1      -3.366  10.165  14.241  0.00  0.00    +0.000 C 
ATOM     18  O   UNL     1      -2.359  10.174  15.239  0.00  0.00    +0.000 OA
ENDBRANCH  11  18
ENDBRANCH   1  14
BRANCH   6  19
ATOM     19  C   UNL     1      -0.840  11.934  21.803  0.00  0.00    +0.000 A 
ATOM     20  C   UNL     1      -1.334  11.199  22.903  0.00  0.00    +0.000 A 
ATOM     21  C   UNL     1      -0.811   9.954  23.266  0.00  0.00    +0.000 A 
ATOM     22  C   UNL     1       0.265   9.425  22.582  0.00  0.00    +0.000 A 
ATOM     23  C   UNL     1       0.787  10.114  21.496  0.00  0.00    +0.000 A 
ATOM     24  C   UNL     1       0.211  11.325  21.076  0.00  0.00    +0.000 A 
BRANCH  24  25
ATOM     25  O   UNL     1       0.871  11.888  19.959  0.00  0.00    +0.000 OA
BRANCH  25  26
ATOM     26  C   UNL     1       1.851  12.868  20.116  0.00  0.00    +0.000 C 
ATOM     27  O   UNL     1       2.592  12.947  21.090  0.00  0.00    +0.000 OA
ATOM     28  N   UNL     1       1.961  13.695  19.009  0.00  0.00    +0.000 N 
ATOM     29  C   UNL     1       3.084  14.619  18.930  0.00  0.00    +0.000 C 
ATOM     30  C   UNL     1       2.667  15.954  19.548  0.00  0.00    +0.000 C 
ATOM     31  O   UNL     1       1.516  16.479  18.859  0.00  0.00    +0.000 OA
ATOM     32  C   UNL     1       0.403  15.562  18.903  0.00  0.00    +0.000 C 
ATOM     33  C   UNL     1       0.773  14.187  18.317  0.00  0.00    +0.000 C 
ENDBRANCH  25  26
ENDBRANCH  24  25
ENDBRANCH   6  19
BRANCH   8  34
ATOM     34  N   UNL     1      -1.954  16.174  23.935  0.00  0.00    +0.000 N 
ATOM     35  H   UNL     1      -1.569  16.024  24.864  0.00  0.00    +0.000 HD
ATOM     36  H   UNL     1      -2.719  16.842  23.893  0.00  0.00    +0.000 HD
ENDBRANCH   8  34
BRANCH   7  37
ATOM     37  C   UNL     1       0.232  15.004  22.600  0.00  0.00    +0.000 C 
ATOM     38  N   UNL     1       1.376  15.533  22.656  0.00  0.00    +0.000 NA
ENDBRANCH   7  37
TORSDOF 7
ENDMDL
MODEL 4
REMARK VINA RESULT:      -7.1      2.622      4.901
REMARK  Name = 
REMARK  8 active torsions:
REMARK  status: ('A' for Active; 'I' for Inactive)
REMARK    1  A    between atoms: C_1  and  O_2
REMARK    2  A    between atoms: O_2  and  C_3
REMARK    3  A    between atoms: C_6  and  C_7
REMARK    4  A    between atoms: C_12  and  C_13
REMARK    5  A    between atoms: C_18  and  O_19
REMARK    6  A    between atoms: O_19  and  C_20
REMARK    7  A    between atoms: C_28  and  C_29
REMARK    8  A    between atoms: C_31  and  N_32
REMARK                            x       y       z     vdW  Elec       q    Type
REMARK                         _______ _______ _______ _____ _____    ______ ____
ROOT
ATOM      1  C   UNL     1      -3.155  12.233  19.354  0.00  0.00    +0.000 A 
ATOM      2  N   UNL     1      -3.160  12.206  17.971  0.00  0.00    +0.000 N 
ATOM      3  N   UNL     1      -2.063  11.666  17.416  0.00  0.00    +0.000 NA
ATOM      4  C   UNL     1      -1.326  11.376  18.477  0.00  0.00    +0.000 A 
ATOM      5  C   UNL     1      -1.897  11.744  19.702  0.00  0.00    +0.000 A 
ATOM      6  C   UNL     1      -1.155  11.511  20.993  0.00  0.00    +0.000 C 
ATOM      7  C   UNL     1       0.111  10.713  20.716  0.00  0.00    +0.000 C 
ATOM      8  C   UNL     1       0.510  10.329  19.473  0.00  0.00    +0.000 C 
ATOM      9  O   UNL     1      -0.144  10.759  18.317  0.00  0.00    +0.000 OA
ATOM     10  H   UNL     1      -3.899  12.518  17.351  0.00  0.00    +0.000 HD
ENDROOT
BRANCH   1  14
ATOM     11  C   UNL     1      -6.422  13.332  21.895  0.00  0.00    +0.000 A 
ATOM     12  C   UNL     1      -5.251  14.079  21.877  0.00  0.00    +0.000 A 
ATOM     13  C   UNL     1      -4.215  13.755  21.004  0.00  0.00    +0.000 A 
ATOM     14  C   UNL     1      -4.316  12.666  20.135  0.00  0.00    +0.000 A 
ATOM     15  C   UNL     1      -5.529  11.960  20.110  0.00  0.00    +0.000 A 
ATOM     16  C   UNL     1      -6.575  12.285  20.988  0.00  0.00    +0.000 A 
BRANCH  11  18
ATOM     17  C   UNL     1      -7.197  13.016  24.111  0.00  0.00    +0.000 C 
ATOM     18  O   UNL     1      -7.305  13.696  22.871  0.00  0.00    +0.000 OA
ENDBRANCH  11  18
ENDBRANCH   1  14
BRANCH   6  19
ATOM     19  C   UNL     1      -0.904  12.843  21.702  0.00  0.00    +0.000 A 
ATOM     20  C   UNL     1      -1.366  13.090  23.013  0.00  0.00    +0.000 A 
ATOM     21  C   UNL     1      -1.188  14.323  23.649  0.00  0.00    +0.000 A 
ATOM     22  C   UNL     1      -0.596  15.374  22.978  0.00  0.00    +0.000 A 
ATOM     23  C   UNL     1      -0.130  15.179  21.685  0.00  0.00    +0.000 A 
ATOM     24  C   UNL     1      -0.232  13.919  21.073  0.00  0.00    +0.000 A 
BRANCH  24  25
ATOM     25  O   UNL     1       0.292  13.904  19.759  0.00  0.00    +0.000 OA
BRANCH  25  26
ATOM     26  C   UNL     1       1.666  13.972  19.528  0.00  0.00    +0.000 C 
ATOM     27  O   UNL     1       2.488  13.238  20.063  0.00  0.00    +0.000 OA
ATOM     28  N   UNL     1       1.998  14.903  18.556  0.00  0.00    +0.000 N 
ATOM     29  C   UNL     1       3.361  14.932  18.045  0.00  0.00    +0.000 C 
ATOM     30  C   UNL     1       4.180  15.916  18.883  0.00  0.00    +0.000 C 
ATOM     31  O   UNL     1       3.580  17.225  18.831  0.00  0.00    +0.000 OA
ATOM     32  C   UNL     1       2.219  17.208  19.306  0.00  0.00    +0.000 C 
ATOM     33  C   UNL     1       1.351  16.212  18.516  0.00  0.00    +0.000 C 
ENDBRANCH  25  26
ENDBRANCH  24  25
ENDBRANCH   6  19
BRANCH   8  34
ATOM     34  N   UNL     1       1.506   9.413  19.214  0.00  0.00    +0.000 N 
ATOM     35  H   UNL     1       1.566   8.602  19.824  0.00  0.00    +0.000 HD
ATOM     36  H   UNL     1       2.398   9.837  18.977  0.00  0.00    +0.000 HD
ENDBRANCH   8  34
BRANCH   7  37
ATOM     37  C   UNL     1       0.689   9.903  21.865  0.00  0.00    +0.000 C 
ATOM     38  N   UNL     1       1.169   9.231  22.818  0.00  0.00    +0.000 NA
ENDBRANCH   7  37
TORSDOF 7
ENDMDL
MODEL 5
REMARK VINA RESULT:      -7.0      1.069      1.463
REMARK  Name = 
REMARK  8 active torsions:
REMARK  status: ('A' for Active; 'I' for Inactive)
REMARK    1  A    between atoms: C_1  and  O_2
REMARK    2  A    between atoms: O_2  and  C_3
REMARK    3  A    between atoms: C_6  and  C_7
REMARK    4  A    between atoms: C_12  and  C_13
REMARK    5  A    between atoms: C_18  and  O_19
REMARK    6  A    between atoms: O_19  and  C_20
REMARK    7  A    between atoms: C_28  and  C_29
REMARK    8  A    between atoms: C_31  and  N_32
REMARK                            x       y       z     vdW  Elec       q    Type
REMARK                         _______ _______ _______ _____ _____    ______ ____
ROOT
ATOM      1  C   UNL     1      -4.663  12.412  20.773  0.00  0.00    +0.000 A 
ATOM      2  N   UNL     1      -5.858  12.007  21.338  0.00  0.00    +0.000 N 
ATOM      3  N   UNL     1      -6.033  12.387  22.615  0.00  0.00    +0.000 NA
ATOM      4  C   UNL     1      -4.900  13.020  22.875  0.00  0.00    +0.000 A 
ATOM      5  C   UNL     1      -3.981  13.031  21.819  0.00  0.00    +0.000 A 
ATOM      6  C   UNL     1      -2.632  13.681  21.985  0.00  0.00    +0.000 C 
ATOM      7  C   UNL     1      -2.573  14.399  23.326  0.00  0.00    +0.000 C 
ATOM      8  C   UNL     1      -3.585  14.391  24.235  0.00  0.00    +0.000 C 
ATOM      9  O   UNL     1      -4.723  13.599  24.074  0.00  0.00    +0.000 OA
ATOM     10  H   UNL     1      -6.608  11.490  20.892  0.00  0.00    +0.000 HD
ENDROOT
BRANCH   1  14
ATOM     11  C   UNL     1      -3.859  11.486  16.670  0.00  0.00    +0.000 A 
ATOM     12  C   UNL     1      -5.128  11.881  17.075  0.00  0.00    +0.000 A 
ATOM     13  C   UNL     1      -5.370  12.242  18.399  0.00  0.00    +0.000 A 
ATOM     14  C   UNL     1      -4.353  12.201  19.356  0.00  0.00    +0.000 A 
ATOM     15  C   UNL     1      -3.060  11.869  18.924  0.00  0.00    +0.000 A 
ATOM     16  C   UNL     1      -2.813  11.506  17.590  0.00  0.00    +0.000 A 
BRANCH  11  18
ATOM     17  C   UNL     1      -2.995   9.913  15.123  0.00  0.00    +0.000 C 
ATOM     18  O   UNL     1      -3.791  11.059  15.374  0.00  0.00    +0.000 OA
ENDBRANCH  11  18
ENDBRANCH   1  14
BRANCH   6  19
ATOM     19  C   UNL     1      -1.522  12.646  21.789  0.00  0.00    +0.000 A 
ATOM     20  C   UNL     1      -1.550  11.388  22.431  0.00  0.00    +0.000 A 
ATOM     21  C   UNL     1      -0.515  10.458  22.301  0.00  0.00    +0.000 A 
ATOM     22  C   UNL     1       0.616  10.773  21.575  0.00  0.00    +0.000 A 
ATOM     23  C   UNL     1       0.691  12.000  20.929  0.00  0.00    +0.000 A 
ATOM     24  C   UNL     1      -0.382  12.904  20.989  0.00  0.00    +0.000 A 
BRANCH  24  25
ATOM     25  O   UNL     1      -0.132  14.100  20.277  0.00  0.00    +0.000 OA
BRANCH  25  26
ATOM     26  C   UNL     1       0.746  14.126  19.194  0.00  0.00    +0.000 C 
ATOM     27  O   UNL     1       0.630  13.418  18.200  0.00  0.00    +0.000 OA
ATOM     28  N   UNL     1       1.720  15.104  19.320  0.00  0.00    +0.000 N 
ATOM     29  C   UNL     1       2.569  15.404  18.175  0.00  0.00    +0.000 C 
ATOM     30  C   UNL     1       3.822  14.530  18.249  0.00  0.00    +0.000 C 
ATOM     31  O   UNL     1       4.519  14.771  19.487  0.00  0.00    +0.000 OA
ATOM     32  C   UNL     1       3.681  14.507  20.631  0.00  0.00    +0.000 C 
ATOM     33  C   UNL     1       2.388  15.341  20.597  0.00  0.00    +0.000 C 
ENDBRANCH  25  26
ENDBRANCH  24  25
ENDBRANCH   6  19
BRANCH   8  34
ATOM     34  N   UNL     1      -3.661  15.217  25.335  0.00  0.00    +0.000 N 
ATOM     35  H   UNL     1      -3.019  16.005  25.375  0.00  0.00    +0.000 HD
ATOM     36  H   UNL     1      -3.780  14.719  26.213  0.00  0.00    +0.000 HD
ENDBRANCH   8  34
BRANCH   7  37
ATOM     37  C   UNL     1      -1.586  15.547  23.459  0.00  0.00    +0.000 C 
ATOM     38  N   UNL     1      -0.767  16.499  23.570  0.00  0.00    +0.000 NA
ENDBRANCH   7  37
TORSDOF 7
ENDMDL
MODEL 6
REMARK VINA RESULT:      -6.9      1.436      1.915
REMARK  Name = 
REMARK  8 active torsions:
REMARK  status: ('A' for Active; 'I' for Inactive)
REMARK    1  A    between atoms: C_1  and  O_2
REMARK    2  A    between atoms: O_2  and  C_3
REMARK    3  A    between atoms: C_6  and  C_7
REMARK    4  A    between atoms: C_12  and  C_13
REMARK    5  A    between atoms: C_18  and  O_19
REMARK    6  A    between atoms: O_19  and  C_20
REMARK    7  A    between atoms: C_28  and  C_29
REMARK    8  A    between atoms: C_31  and  N_32
REMARK                            x       y       z     vdW  Elec       q    Type
REMARK                         _______ _______ _______ _____ _____    ______ ____
ROOT
ATOM      1  C   UNL     1      -4.272  12.588  21.354  0.00  0.00    +0.000 A 
ATOM      2  N   UNL     1      -5.416  12.306  22.078  0.00  0.00    +0.000 N 
ATOM      3  N   UNL     1      -5.377  12.693  23.364  0.00  0.00    +0.000 NA
ATOM      4  C   UNL     1      -4.159  13.203  23.466  0.00  0.00    +0.000 A 
ATOM      5  C   UNL     1      -3.395  13.126  22.294  0.00  0.00    +0.000 A 
ATOM      6  C   UNL     1      -1.975  13.630  22.273  0.00  0.00    +0.000 C 
ATOM      7  C   UNL     1      -1.662  14.330  23.589  0.00  0.00    +0.000 C 
ATOM      8  C   UNL     1      -2.538  14.420  24.626  0.00  0.00    +0.000 C 
ATOM      9  O   UNL     1      -3.763  13.752  24.626  0.00  0.00    +0.000 OA
ATOM     10  H   UNL     1      -6.269  11.874  21.741  0.00  0.00    +0.000 HD
ENDROOT
BRANCH   1  14
ATOM     11  C   UNL     1      -4.130  11.614  17.187  0.00  0.00    +0.000 A 
ATOM     12  C   UNL     1      -5.282  12.144  17.756  0.00  0.00    +0.000 A 
ATOM     13  C   UNL     1      -5.304  12.518  19.098  0.00  0.00    +0.000 A 
ATOM     14  C   UNL     1      -4.179  12.357  19.911  0.00  0.00    +0.000 A 
ATOM     15  C   UNL     1      -3.001  11.887  19.312  0.00  0.00    +0.000 A 
ATOM     16  C   UNL     1      -2.975  11.510  17.959  0.00  0.00    +0.000 A 
BRANCH  11  18
ATOM     17  C   UNL     1      -3.113  10.757  15.226  0.00  0.00    +0.000 C 
ATOM     18  O   UNL     1      -4.284  11.193  15.897  0.00  0.00    +0.000 OA
ENDBRANCH  11  18
ENDBRANCH   1  14
BRANCH   6  19
ATOM     19  C   UNL     1      -1.015  12.487  21.937  0.00  0.00    +0.000 A 
ATOM     20  C   UNL     1      -1.242  11.166  22.381  0.00  0.00    +0.000 A 
ATOM     21  C   UNL     1      -0.343  10.126  22.125  0.00  0.00    +0.000 A 
ATOM     22  C   UNL     1       0.845  10.379  21.468  0.00  0.00    +0.000 A 
ATOM     23  C   UNL     1       1.113  11.664  21.017  0.00  0.00    +0.000 A 
ATOM     24  C   UNL     1       0.175  12.694  21.199  0.00  0.00    +0.000 A 
BRANCH  24  25
ATOM     25  O   UNL     1       0.615  13.933  20.679  0.00  0.00    +0.000 OA
BRANCH  25  26
ATOM     26  C   UNL     1      -0.079  14.574  19.653  0.00  0.00    +0.000 C 
ATOM     27  O   UNL     1      -0.622  13.988  18.723  0.00  0.00    +0.000 OA
ATOM     28  N   UNL     1      -0.169  15.944  19.843  0.00  0.00    +0.000 N 
ATOM     29  C   UNL     1      -1.050  16.718  18.980  0.00  0.00    +0.000 C 
ATOM     30  C   UNL     1      -0.250  17.211  17.773  0.00  0.00    +0.000 C 
ATOM     31  O   UNL     1       0.869  18.003  18.215  0.00  0.00    +0.000 OA
ATOM     32  C   UNL     1       1.737  17.260  19.095  0.00  0.00    +0.000 C 
ATOM     33  C   UNL     1       0.978  16.714  20.318  0.00  0.00    +0.000 C 
ENDBRANCH  25  26
ENDBRANCH  24  25
ENDBRANCH   6  19
BRANCH   8  34
ATOM     34  N   UNL     1      -2.378  15.242  25.721  0.00  0.00    +0.000 N 
ATOM     35  H   UNL     1      -2.222  14.798  26.622  0.00  0.00    +0.000 HD
ATOM     36  H   UNL     1      -3.021  16.029  25.738  0.00  0.00    +0.000 HD
ENDBRANCH   8  34
BRANCH   7  37
ATOM     37  C   UNL     1      -0.552  15.368  23.580  0.00  0.00    +0.000 C 
ATOM     38  N   UNL     1       0.368  16.230  23.574  0.00  0.00    +0.000 NA
ENDBRANCH   7  37
TORSDOF 7
ENDMDL
MODEL 7
REMARK VINA RESULT:      -6.8      2.079      2.515
REMARK  Name = 
REMARK  8 active torsions:
REMARK  status: ('A' for Active; 'I' for Inactive)
REMARK    1  A    between atoms: C_1  and  O_2
REMARK    2  A    between atoms: O_2  and  C_3
REMARK    3  A    between atoms: C_6  and  C_7
REMARK    4  A    between atoms: C_12  and  C_13
REMARK    5  A    between atoms: C_18  and  O_19
REMARK    6  A    between atoms: O_19  and  C_20
REMARK    7  A    between atoms: C_28  and  C_29
REMARK    8  A    between atoms: C_31  and  N_32
REMARK                            x       y       z     vdW  Elec       q    Type
REMARK                         _______ _______ _______ _____ _____    ______ ____
ROOT
ATOM      1  C   UNL     1      -5.201  12.005  20.044  0.00  0.00    +0.000 A 
ATOM      2  N   UNL     1      -6.301  11.239  20.384  0.00  0.00    +0.000 N 
ATOM      3  N   UNL     1      -6.926  11.622  21.510  0.00  0.00    +0.000 NA
ATOM      4  C   UNL     1      -6.177  12.637  21.913  0.00  0.00    +0.000 A 
ATOM      5  C   UNL     1      -5.066  12.902  21.102  0.00  0.00    +0.000 A 
ATOM      6  C   UNL     1      -4.103  14.003  21.460  0.00  0.00    +0.000 C 
ATOM      7  C   UNL     1      -4.645  14.790  22.646  0.00  0.00    +0.000 C 
ATOM      8  C   UNL     1      -5.802  14.484  23.293  0.00  0.00    +0.000 C 
ATOM      9  O   UNL     1      -6.528  13.327  23.011  0.00  0.00    +0.000 OA
ATOM     10  H   UNL     1      -6.691  10.457  19.870  0.00  0.00    +0.000 HD
ENDROOT
BRANCH   1  14
ATOM     11  C   UNL     1      -3.150  11.139  16.386  0.00  0.00    +0.000 A 
ATOM     12  C   UNL     1      -4.513  11.406  16.392  0.00  0.00    +0.000 A 
ATOM     13  C   UNL     1      -5.165  11.749  17.575  0.00  0.00    +0.000 A 
ATOM     14  C   UNL     1      -4.472  11.818  18.786  0.00  0.00    +0.000 A 
ATOM     15  C   UNL     1      -3.084  11.616  18.759  0.00  0.00    +0.000 A 
ATOM     16  C   UNL     1      -2.425  11.272  17.568  0.00  0.00    +0.000 A 
BRANCH  11  18
ATOM     17  C   UNL     1      -3.570  10.006  14.348  0.00  0.00    +0.000 C 
ATOM     18  O   UNL     1      -2.667  10.714  15.181  0.00  0.00    +0.000 OA
ENDBRANCH  11  18
ENDBRANCH   1  14
BRANCH   6  19
ATOM     19  C   UNL     1      -2.705  13.426  21.689  0.00  0.00    +0.000 A 
ATOM     20  C   UNL     1      -2.498  12.234  22.417  0.00  0.00    +0.000 A 
ATOM     21  C   UNL     1      -1.221  11.728  22.678  0.00  0.00    +0.000 A 
ATOM     22  C   UNL     1      -0.100  12.424  22.272  0.00  0.00    +0.000 A 
ATOM     23  C   UNL     1      -0.254  13.604  21.556  0.00  0.00    +0.000 A 
ATOM     24  C   UNL     1      -1.535  14.073  21.221  0.00  0.00    +0.000 A 
BRANCH  24  25
ATOM     25  O   UNL     1      -1.502  15.285  20.494  0.00  0.00    +0.000 OA
BRANCH  25  26
ATOM     26  C   UNL     1      -0.648  15.451  19.404  0.00  0.00    +0.000 C 
ATOM     27  O   UNL     1      -0.417  14.578  18.575  0.00  0.00    +0.000 OA
ATOM     28  N   UNL     1      -0.155  16.742  19.304  0.00  0.00    +0.000 N 
ATOM     29  C   UNL     1       0.566  17.130  18.100  0.00  0.00    +0.000 C 
ATOM     30  C   UNL     1       2.058  16.866  18.312  0.00  0.00    +0.000 C 
ATOM     31  O   UNL     1       2.530  17.602  19.457  0.00  0.00    +0.000 OA
ATOM     32  C   UNL     1       1.806  17.252  20.654  0.00  0.00    +0.000 C 
ATOM     33  C   UNL     1       0.291  17.471  20.489  0.00  0.00    +0.000 C 
ENDBRANCH  25  26
ENDBRANCH  24  25
ENDBRANCH   6  19
BRANCH   8  34
ATOM     34  N   UNL     1      -6.436  15.305  24.200  0.00  0.00    +0.000 N 
ATOM     35  H   UNL     1      -6.864  16.155  23.843  0.00  0.00    +0.000 HD
ATOM     36  H   UNL     1      -5.929  15.416  25.074  0.00  0.00    +0.000 HD
ENDBRANCH   8  34
BRANCH   7  37
ATOM     37  C   UNL     1      -4.165  16.222  22.810  0.00  0.00    +0.000 C 
ATOM     38  N   UNL     1      -3.767  17.412  22.946  0.00  0.00    +0.000 NA
ENDBRANCH   7  37
TORSDOF 7
ENDMDL
MODEL 8
REMARK VINA RESULT:      -6.8      1.347      1.866
REMARK  Name = 
REMARK  8 active torsions:
REMARK  status: ('A' for Active; 'I' for Inactive)
REMARK    1  A    between atoms: C_1  and  O_2
REMARK    2  A    between atoms: O_2  and  C_3
REMARK    3  A    between atoms: C_6  and  C_7
REMARK    4  A    between atoms: C_12  and  C_13
REMARK    5  A    between atoms: C_18  and  O_19
REMARK    6  A    between atoms: O_19  and  C_20
REMARK    7  A    between atoms: C_28  and  C_29
REMARK    8  A    between atoms: C_31  and  N_32
REMARK                            x       y       z     vdW  Elec       q    Type
REMARK                         _______ _______ _______ _____ _____    ______ ____
ROOT
ATOM      1  C   UNL     1      -5.075  12.253  20.557  0.00  0.00    +0.000 A 
ATOM      2  N   UNL     1      -6.306  11.864  21.053  0.00  0.00    +0.000 N 
ATOM      3  N   UNL     1      -6.640  12.421  22.229  0.00  0.00    +0.000 NA
ATOM      4  C   UNL     1      -5.574  13.157  22.502  0.00  0.00    +0.000 A 
ATOM      5  C   UNL     1      -4.543  13.066  21.557  0.00  0.00    +0.000 A 
ATOM      6  C   UNL     1      -3.253  13.817  21.758  0.00  0.00    +0.000 C 
ATOM      7  C   UNL     1      -3.378  14.733  22.967  0.00  0.00    +0.000 C 
ATOM      8  C   UNL     1      -4.484  14.799  23.757  0.00  0.00    +0.000 C 
ATOM      9  O   UNL     1      -5.559  13.921  23.606  0.00  0.00    +0.000 OA
ATOM     10  H   UNL     1      -6.976  11.239  20.619  0.00  0.00    +0.000 HD
ENDROOT
BRANCH   1  14
ATOM     11  C   UNL     1      -3.573  11.384  16.643  0.00  0.00    +0.000 A 
ATOM     12  C   UNL     1      -2.747  11.301  17.757  0.00  0.00    +0.000 A 
ATOM     13  C   UNL     1      -3.255  11.523  19.035  0.00  0.00    +0.000 A 
ATOM     14  C   UNL     1      -4.599  11.850  19.232  0.00  0.00    +0.000 A 
ATOM     15  C   UNL     1      -5.440  11.863  18.109  0.00  0.00    +0.000 A 
ATOM     16  C   UNL     1      -4.931  11.638  16.819  0.00  0.00    +0.000 A 
BRANCH  11  18
ATOM     17  C   UNL     1      -3.346  10.189  14.610  0.00  0.00    +0.000 C 
ATOM     18  O   UNL     1      -2.921  11.249  15.450  0.00  0.00    +0.000 OA
ENDBRANCH  11  18
ENDBRANCH   1  14
BRANCH   6  19
ATOM     19  C   UNL     1      -2.081  12.836  21.844  0.00  0.00    +0.000 A 
ATOM     20  C   UNL     1      -2.094  11.731  22.722  0.00  0.00    +0.000 A 
ATOM     21  C   UNL     1      -1.006  10.861  22.847  0.00  0.00    +0.000 A 
ATOM     22  C   UNL     1       0.158  11.098  22.144  0.00  0.00    +0.000 A 
ATOM     23  C   UNL     1       0.219  12.175  21.270  0.00  0.00    +0.000 A 
ATOM     24  C   UNL     1      -0.900  13.003  21.080  0.00  0.00    +0.000 A 
BRANCH  24  25
ATOM     25  O   UNL     1      -0.658  14.049  20.159  0.00  0.00    +0.000 OA
BRANCH  25  26
ATOM     26  C   UNL     1       0.352  13.950  19.202  0.00  0.00    +0.000 C 
ATOM     27  O   UNL     1       0.345  13.143  18.279  0.00  0.00    +0.000 OA
ATOM     28  N   UNL     1       1.327  14.923  19.353  0.00  0.00    +0.000 N 
ATOM     29  C   UNL     1       2.323  15.090  18.304  0.00  0.00    +0.000 C 
ATOM     30  C   UNL     1       3.532  14.212  18.628  0.00  0.00    +0.000 C 
ATOM     31  O   UNL     1       4.071  14.573  19.915  0.00  0.00    +0.000 OA
ATOM     32  C   UNL     1       3.088  14.441  20.962  0.00  0.00    +0.000 C 
ATOM     33  C   UNL     1       1.832  15.283  20.675  0.00  0.00    +0.000 C 
ENDBRANCH  25  26
ENDBRANCH  24  25
ENDBRANCH   6  19
BRANCH   8  34
ATOM     34  N   UNL     1      -4.720  15.776  24.699  0.00  0.00    +0.000 N 
ATOM     35  H   UNL     1      -5.105  15.483  25.593  0.00  0.00    +0.000 HD
ATOM     36  H   UNL     1      -5.130  16.623  24.315  0.00  0.00    +0.000 HD
ENDBRANCH   8  34
BRANCH   7  37
ATOM     37  C   UNL     1      -2.467  15.948  23.019  0.00  0.00    +0.000 C 
ATOM     38  N   UNL     1      -1.711  16.956  23.063  0.00  0.00    +0.000 NA
ENDBRANCH   7  37
TORSDOF 7
ENDMDL
MODEL 9
REMARK VINA RESULT:      -6.6      1.483      1.864
REMARK  Name = 
REMARK  8 active torsions:
REMARK  status: ('A' for Active; 'I' for Inactive)
REMARK    1  A    between atoms: C_1  and  O_2
REMARK    2  A    between atoms: O_2  and  C_3
REMARK    3  A    between atoms: C_6  and  C_7
REMARK    4  A    between atoms: C_12  and  C_13
REMARK    5  A    between atoms: C_18  and  O_19
REMARK    6  A    between atoms: O_19  and  C_20
REMARK    7  A    between atoms: C_28  and  C_29
REMARK    8  A    between atoms: C_31  and  N_32
REMARK                            x       y       z     vdW  Elec       q    Type
REMARK                         _______ _______ _______ _____ _____    ______ ____
ROOT
ATOM      1  C   UNL     1      -5.043  12.278  20.753  0.00  0.00    +0.000 A 
ATOM      2  N   UNL     1      -6.199  11.853  21.383  0.00  0.00    +0.000 N 
ATOM      3  N   UNL     1      -6.388  12.360  22.613  0.00  0.00    +0.000 NA
ATOM      4  C   UNL     1      -5.302  13.098  22.780  0.00  0.00    +0.000 A 
ATOM      5  C   UNL     1      -4.397  13.058  21.711  0.00  0.00    +0.000 A 
ATOM      6  C   UNL     1      -3.099  13.819  21.778  0.00  0.00    +0.000 C 
ATOM      7  C   UNL     1      -3.079  14.685  23.030  0.00  0.00    +0.000 C 
ATOM      8  C   UNL     1      -4.077  14.705  23.954  0.00  0.00    +0.000 C 
ATOM      9  O   UNL     1      -5.155  13.820  23.904  0.00  0.00    +0.000 OA
ATOM     10  H   UNL     1      -6.913  11.237  21.011  0.00  0.00    +0.000 HD
ENDROOT
BRANCH   1  14
ATOM     11  C   UNL     1      -4.011  11.574  16.658  0.00  0.00    +0.000 A 
ATOM     12  C   UNL     1      -3.086  11.360  17.672  0.00  0.00    +0.000 A 
ATOM     13  C   UNL     1      -3.445  11.530  19.008  0.00  0.00    +0.000 A 
ATOM     14  C   UNL     1      -4.734  11.934  19.363  0.00  0.00    +0.000 A 
ATOM     15  C   UNL     1      -5.681  12.079  18.338  0.00  0.00    +0.000 A 
ATOM     16  C   UNL     1      -5.322  11.908  16.991  0.00  0.00    +0.000 A 
BRANCH  11  18
ATOM     17  C   UNL     1      -2.835  10.263  15.074  0.00  0.00    +0.000 C 
ATOM     18  O   UNL     1      -3.494  11.475  15.397  0.00  0.00    +0.000 OA
ENDBRANCH  11  18
ENDBRANCH   1  14
BRANCH   6  19
ATOM     19  C   UNL     1      -1.917  12.852  21.677  0.00  0.00    +0.000 A 
ATOM     20  C   UNL     1      -1.857  11.663  22.437  0.00  0.00    +0.000 A 
ATOM     21  C   UNL     1      -0.757  10.801  22.391  0.00  0.00    +0.000 A 
ATOM     22  C   UNL     1       0.350  11.124  21.632  0.00  0.00    +0.000 A 
ATOM     23  C   UNL     1       0.338  12.286  20.872  0.00  0.00    +0.000 A 
ATOM     24  C   UNL     1      -0.798  13.112  20.850  0.00  0.00    +0.000 A 
BRANCH  24  25
ATOM     25  O   UNL     1      -0.632  14.249  20.025  0.00  0.00    +0.000 OA
BRANCH  25  26
ATOM     26  C   UNL     1       0.413  15.148  20.235  0.00  0.00    +0.000 C 
ATOM     27  O   UNL     1       1.008  15.272  21.300  0.00  0.00    +0.000 OA
ATOM     28  N   UNL     1       0.771  15.828  19.082  0.00  0.00    +0.000 N 
ATOM     29  C   UNL     1       1.986  16.632  19.087  0.00  0.00    +0.000 C 
ATOM     30  C   UNL     1       1.629  18.062  19.496  0.00  0.00    +0.000 C 
ATOM     31  O   UNL     1       0.653  18.605  18.585  0.00  0.00    +0.000 OA
ATOM     32  C   UNL     1      -0.545  17.804  18.546  0.00  0.00    +0.000 C 
ATOM     33  C   UNL     1      -0.243  16.343  18.166  0.00  0.00    +0.000 C 
ENDBRANCH  25  26
ENDBRANCH  24  25
ENDBRANCH   6  19
BRANCH   8  34
ATOM     34  N   UNL     1      -4.201  15.642  24.957  0.00  0.00    +0.000 N 
ATOM     35  H   UNL     1      -3.492  16.367  25.012  0.00  0.00    +0.000 HD
ATOM     36  H   UNL     1      -4.479  15.247  25.852  0.00  0.00    +0.000 HD
ENDBRANCH   8  34
BRANCH   7  37
ATOM     37  C   UNL     1      -2.178  15.909  23.016  0.00  0.00    +0.000 C 
ATOM     38  N   UNL     1      -1.432  16.926  23.005  0.00  0.00    +0.000 NA
ENDBRANCH   7  37
TORSDOF 7
ENDMDL
