MODEL 1
REMARK VINA RESULT:      -8.1      0.000      0.000
REMARK  Name = 
REMARK  9 active torsions:
REMARK  status: ('A' for Active; 'I' for Inactive)
REMARK    1  A    between atoms: C_1  and  C_2
REMARK    2  A    between atoms: C_6  and  N_7
REMARK    3  A    between atoms: N_10  and  C_11
REMARK    4  A    between atoms: C_14  and  C_15
REMARK    5  A    between atoms: C_19  and  C_20
REMARK    6  A    between atoms: N_23  and  C_24
REMARK    7  A    between atoms: C_24  and  C_25
REMARK    8  A    between atoms: C_25  and  C_26
REMARK    9  A    between atoms: C_25  and  O_27
REMARK                            x       y       z     vdW  Elec       q    Type
REMARK                         _______ _______ _______ _____ _____    ______ ____
ROOT
ATOM      1  C   UNL     1       2.412   7.885  18.881  0.00  0.00    +0.000 A 
ATOM      2  C   UNL     1       3.030   8.597  17.873  0.00  0.00    +0.000 A 
ATOM      3  S   UNL     1       4.102   7.668  16.958  0.00  0.00    +0.000 S 
ATOM      4  C   UNL     1       3.879   6.264  17.941  0.00  0.00    +0.000 A 
ATOM      5  C   UNL     1       4.524   5.012  17.813  0.00  0.00    +0.000 A 
ATOM      6  C   UNL     1       4.138   4.050  18.728  0.00  0.00    +0.000 A 
ATOM      7  N   UNL     1       3.189   4.213  19.660  0.00  0.00    +0.000 NA
ATOM      8  C   UNL     1       2.545   5.389  19.761  0.00  0.00    +0.000 A 
ATOM      9  N   UNL     1       1.531   5.367  20.709  0.00  0.00    +0.000 N 
ATOM     10  C   UNL     1       2.894   6.493  18.930  0.00  0.00    +0.000 A 
ATOM     11  H   UNL     1       1.387   4.402  20.988  0.00  0.00    +0.000 HD
ATOM     12  H   UNL     1       0.694   5.848  20.404  0.00  0.00    +0.000 HD
ENDROOT
BRANCH   1  16
ATOM     13  C   UNL     1      -0.349  10.064  21.347  0.00  0.00    +0.000 A 
ATOM     14  C   UNL     1       0.584   9.202  21.924  0.00  0.00    +0.000 A 
ATOM     15  C   UNL     1       1.470   8.476  21.123  0.00  0.00    +0.000 A 
ATOM     16  C   UNL     1       1.418   8.570  19.724  0.00  0.00    +0.000 A 
ATOM     17  C   UNL     1       0.396   9.343  19.161  0.00  0.00    +0.000 A 
ATOM     18  C   UNL     1      -0.465  10.106  19.959  0.00  0.00    +0.000 A 
BRANCH  13  22
ATOM     19  N   UNL     1      -1.738  12.860  23.183  0.00  0.00    +0.000 N 
ATOM     20  C   UNL     1      -0.816  12.238  22.360  0.00  0.00    +0.000 C 
ATOM     21  O   UNL     1       0.174  12.775  21.882  0.00  0.00    +0.000 OA
ATOM     22  N   UNL     1      -1.166  10.913  22.124  0.00  0.00    +0.000 N 
ATOM     23  H   UNL     1      -2.214  12.261  23.839  0.00  0.00    +0.000 HD
ATOM     24  H   UNL     1      -2.160  10.744  22.085  0.00  0.00    +0.000 HD
BRANCH  19  30
ATOM     25  C   UNL     1      -0.871  16.517  26.381  0.00  0.00    +0.000 C 
ATOM     26  C   UNL     1      -1.323  16.056  25.028  0.00  0.00    +0.000 A 
ATOM     27  C   UNL     1      -1.675  16.984  24.043  0.00  0.00    +0.000 A 
ATOM     28  C   UNL     1      -2.083  16.553  22.785  0.00  0.00    +0.000 A 
ATOM     29  C   UNL     1      -2.125  15.191  22.498  0.00  0.00    +0.000 A 
ATOM     30  C   UNL     1      -1.745  14.244  23.460  0.00  0.00    +0.000 A 
ATOM     31  C   UNL     1      -1.377  14.685  24.732  0.00  0.00    +0.000 A 
ENDBRANCH  19  30
ENDBRANCH  13  22
ENDBRANCH   1  16
BRANCH   5  32
ATOM     32  C   UNL     1       5.508   4.726  16.787  0.00  0.00    +0.000 A 
ATOM     33  C   UNL     1       6.904   4.504  16.845  0.00  0.00    +0.000 A 
ATOM     34  N   UNL     1       7.444   4.288  15.642  0.00  0.00    +0.000 NA
ATOM     35  N   UNL     1       6.399   4.388  14.803  0.00  0.00    +0.000 N 
ATOM     36  C   UNL     1       5.213   4.610  15.443  0.00  0.00    +0.000 A 
BRANCH  35  37
ATOM     37  C   UNL     1       6.611   4.277  13.377  0.00  0.00    +0.000 C 
BRANCH  37  38
ATOM     38  C   UNL     1       5.845   3.117  12.738  0.00  0.00    +0.000 C 
ATOM     39  C   UNL     1       4.681   3.550  11.855  0.00  0.00    +0.000 C 
BRANCH  38  40
ATOM     40  O   UNL     1       6.753   2.338  11.947  0.00  0.00    +0.000 OA
ATOM     41  H   UNL     1       7.410   2.944  11.560  0.00  0.00    +0.000 HD
ENDBRANCH  38  40
ENDBRANCH  37  38
ENDBRANCH  35  37
ENDBRANCH   5  32
TORSDOF 7
ENDMDL
MODEL 2
REMARK VINA RESULT:      -7.9      0.659      1.165
REMARK  Name = 
REMARK  9 active torsions:
REMARK  status: ('A' for Active; 'I' for Inactive)
REMARK    1  A    between atoms: C_1  and  C_2
REMARK    2  A    between atoms: C_6  and  N_7
REMARK    3  A    between atoms: N_10  and  C_11
REMARK    4  A    between atoms: C_14  and  C_15
REMARK    5  A    between atoms: C_19  and  C_20
REMARK    6  A    between atoms: N_23  and  C_24
REMARK    7  A    between atoms: C_24  and  C_25
REMARK    8  A    between atoms: C_25  and  C_26
REMARK    9  A    between atoms: C_25  and  O_27
REMARK                            x       y       z     vdW  Elec       q    Type
REMARK                         _______ _______ _______ _____ _____    ______ ____
ROOT
ATOM      1  C   UNL     1       2.419   7.795  18.935  0.00  0.00    +0.000 A 
ATOM      2  C   UNL     1       3.051   8.566  17.980  0.00  0.00    +0.000 A 
ATOM      3  S   UNL     1       4.114   7.687  17.007  0.00  0.00    +0.000 S 
ATOM      4  C   UNL     1       3.867   6.222  17.890  0.00  0.00    +0.000 A 
ATOM      5  C   UNL     1       4.494   4.973  17.677  0.00  0.00    +0.000 A 
ATOM      6  C   UNL     1       4.091   3.955  18.521  0.00  0.00    +0.000 A 
ATOM      7  N   UNL     1       3.140   4.067  19.459  0.00  0.00    +0.000 NA
ATOM      8  C   UNL     1       2.513   5.243  19.640  0.00  0.00    +0.000 A 
ATOM      9  N   UNL     1       1.493   5.169  20.580  0.00  0.00    +0.000 N 
ATOM     10  C   UNL     1       2.881   6.397  18.888  0.00  0.00    +0.000 A 
ATOM     11  H   UNL     1       1.335   4.189  20.792  0.00  0.00    +0.000 HD
ATOM     12  H   UNL     1       0.665   5.683  20.306  0.00  0.00    +0.000 HD
ENDROOT
BRANCH   1  16
ATOM     13  C   UNL     1      -0.321   9.835  21.539  0.00  0.00    +0.000 A 
ATOM     14  C   UNL     1       0.580   8.903  22.054  0.00  0.00    +0.000 A 
ATOM     15  C   UNL     1       1.459   8.222  21.206  0.00  0.00    +0.000 A 
ATOM     16  C   UNL     1       1.430   8.434  19.819  0.00  0.00    +0.000 A 
ATOM     17  C   UNL     1       0.438   9.279  19.310  0.00  0.00    +0.000 A 
ATOM     18  C   UNL     1      -0.415   9.996  20.159  0.00  0.00    +0.000 A 
BRANCH  13  22
ATOM     19  N   UNL     1      -1.820  12.587  23.355  0.00  0.00    +0.000 N 
ATOM     20  C   UNL     1      -0.955  12.017  22.438  0.00  0.00    +0.000 C 
ATOM     21  O   UNL     1      -0.150  12.634  21.753  0.00  0.00    +0.000 OA
ATOM     22  N   UNL     1      -1.126  10.639  22.374  0.00  0.00    +0.000 N 
ATOM     23  H   UNL     1      -2.086  12.000  24.131  0.00  0.00    +0.000 HD
ATOM     24  H   UNL     1      -2.075  10.328  22.523  0.00  0.00    +0.000 HD
BRANCH  19  30
ATOM     25  C   UNL     1      -4.789  16.515  23.017  0.00  0.00    +0.000 C 
ATOM     26  C   UNL     1      -3.452  15.923  23.353  0.00  0.00    +0.000 A 
ATOM     27  C   UNL     1      -2.435  16.722  23.883  0.00  0.00    +0.000 A 
ATOM     28  C   UNL     1      -1.201  16.167  24.205  0.00  0.00    +0.000 A 
ATOM     29  C   UNL     1      -0.983  14.804  24.016  0.00  0.00    +0.000 A 
ATOM     30  C   UNL     1      -2.000  13.978  23.516  0.00  0.00    +0.000 A 
ATOM     31  C   UNL     1      -3.221  14.552  23.158  0.00  0.00    +0.000 A 
ENDBRANCH  19  30
ENDBRANCH  13  22
ENDBRANCH   1  16
BRANCH   5  32
ATOM     32  C   UNL     1       5.479   4.745  16.637  0.00  0.00    +0.000 A 
ATOM     33  C   UNL     1       6.891   4.676  16.665  0.00  0.00    +0.000 A 
ATOM     34  N   UNL     1       7.424   4.461  15.458  0.00  0.00    +0.000 NA
ATOM     35  N   UNL     1       6.353   4.408  14.646  0.00  0.00    +0.000 N 
ATOM     36  C   UNL     1       5.166   4.532  15.309  0.00  0.00    +0.000 A 
BRANCH  35  37
ATOM     37  C   UNL     1       6.543   4.252  13.221  0.00  0.00    +0.000 C 
BRANCH  37  38
ATOM     38  C   UNL     1       5.775   3.065  12.634  0.00  0.00    +0.000 C 
ATOM     39  C   UNL     1       4.585   3.461  11.767  0.00  0.00    +0.000 C 
BRANCH  38  40
ATOM     40  O   UNL     1       6.673   2.275  11.843  0.00  0.00    +0.000 OA
ATOM     41  H   UNL     1       6.564   2.538  10.912  0.00  0.00    +0.000 HD
ENDBRANCH  38  40
ENDBRANCH  37  38
ENDBRANCH  35  37
ENDBRANCH   5  32
TORSDOF 7
ENDMDL
MODEL 3
REMARK VINA RESULT:      -7.8      2.772     12.765
REMARK  Name = 
REMARK  9 active torsions:
REMARK  status: ('A' for Active; 'I' for Inactive)
REMARK    1  A    between atoms: C_1  and  C_2
REMARK    2  A    between atoms: C_6  and  N_7
REMARK    3  A    between atoms: N_10  and  C_11
REMARK    4  A    between atoms: C_14  and  C_15
REMARK    5  A    between atoms: C_19  and  C_20
REMARK    6  A    between atoms: N_23  and  C_24
REMARK    7  A    between atoms: C_24  and  C_25
REMARK    8  A    between atoms: C_25  and  C_26
REMARK    9  A    between atoms: C_25  and  O_27
REMARK                            x       y       z     vdW  Elec       q    Type
REMARK                         _______ _______ _______ _____ _____    ______ ____
ROOT
ATOM      1  C   UNL     1       0.696   9.736  19.488  0.00  0.00    +0.000 A 
ATOM      2  C   UNL     1       0.011  10.427  18.509  0.00  0.00    +0.000 A 
ATOM      3  S   UNL     1      -1.078  11.559  19.127  0.00  0.00    +0.000 S 
ATOM      4  C   UNL     1      -0.770  11.107  20.766  0.00  0.00    +0.000 A 
ATOM      5  C   UNL     1      -1.387  11.620  21.931  0.00  0.00    +0.000 A 
ATOM      6  C   UNL     1      -0.931  11.092  23.125  0.00  0.00    +0.000 A 
ATOM      7  N   UNL     1       0.057  10.194  23.240  0.00  0.00    +0.000 NA
ATOM      8  C   UNL     1       0.673   9.731  22.138  0.00  0.00    +0.000 A 
ATOM      9  N   UNL     1       1.733   8.882  22.430  0.00  0.00    +0.000 N 
ATOM     10  C   UNL     1       0.254  10.135  20.836  0.00  0.00    +0.000 A 
ATOM     11  H   UNL     1       1.915   8.945  23.427  0.00  0.00    +0.000 HD
ATOM     12  H   UNL     1       2.540   9.041  21.841  0.00  0.00    +0.000 HD
ENDROOT
BRANCH   1  16
ATOM     13  C   UNL     1       3.503   6.770  18.156  0.00  0.00    +0.000 A 
ATOM     14  C   UNL     1       2.729   6.547  19.294  0.00  0.00    +0.000 A 
ATOM     15  C   UNL     1       1.830   7.519  19.742  0.00  0.00    +0.000 A 
ATOM     16  C   UNL     1       1.711   8.751  19.080  0.00  0.00    +0.000 A 
ATOM     17  C   UNL     1       2.584   9.004  18.015  0.00  0.00    +0.000 A 
ATOM     18  C   UNL     1       3.454   8.017  17.536  0.00  0.00    +0.000 A 
BRANCH  13  22
ATOM     19  N   UNL     1       5.450   4.687  15.922  0.00  0.00    +0.000 N 
ATOM     20  C   UNL     1       4.694   5.796  16.257  0.00  0.00    +0.000 C 
ATOM     21  O   UNL     1       4.398   6.702  15.490  0.00  0.00    +0.000 OA
ATOM     22  N   UNL     1       4.320   5.764  17.596  0.00  0.00    +0.000 N 
ATOM     23  H   UNL     1       5.258   3.849  16.451  0.00  0.00    +0.000 HD
ATOM     24  H   UNL     1       4.998   5.339  18.210  0.00  0.00    +0.000 HD
BRANCH  19  30
ATOM     25  C   UNL     1       5.673   2.462  11.522  0.00  0.00    +0.000 C 
ATOM     26  C   UNL     1       6.237   3.434  12.516  0.00  0.00    +0.000 A 
ATOM     27  C   UNL     1       7.354   4.211  12.194  0.00  0.00    +0.000 A 
ATOM     28  C   UNL     1       7.867   5.119  13.114  0.00  0.00    +0.000 A 
ATOM     29  C   UNL     1       7.256   5.269  14.356  0.00  0.00    +0.000 A 
ATOM     30  C   UNL     1       6.114   4.524  14.688  0.00  0.00    +0.000 A 
ATOM     31  C   UNL     1       5.632   3.586  13.774  0.00  0.00    +0.000 A 
ENDBRANCH  19  30
ENDBRANCH  13  22
ENDBRANCH   1  16
BRANCH   5  32
ATOM     32  C   UNL     1      -2.412  12.646  21.902  0.00  0.00    +0.000 A 
ATOM     33  C   UNL     1      -2.355  14.050  22.055  0.00  0.00    +0.000 A 
ATOM     34  N   UNL     1      -3.556  14.630  21.975  0.00  0.00    +0.000 NA
ATOM     35  N   UNL     1      -4.394  13.595  21.787  0.00  0.00    +0.000 N 
ATOM     36  C   UNL     1      -3.754  12.392  21.696  0.00  0.00    +0.000 A 
BRANCH  35  37
ATOM     37  C   UNL     1      -5.819  13.831  21.719  0.00  0.00    +0.000 C 
BRANCH  37  38
ATOM     38  C   UNL     1      -6.450  14.124  23.081  0.00  0.00    +0.000 C 
ATOM     39  C   UNL     1      -6.510  12.919  24.013  0.00  0.00    +0.000 C 
BRANCH  38  40
ATOM     40  O   UNL     1      -5.703  15.163  23.727  0.00  0.00    +0.000 OA
ATOM     41  H   UNL     1      -5.985  15.202  24.659  0.00  0.00    +0.000 HD
ENDBRANCH  38  40
ENDBRANCH  37  38
ENDBRANCH  35  37
ENDBRANCH   5  32
TORSDOF 7
ENDMDL
MODEL 4
REMARK VINA RESULT:      -7.7      2.394     12.777
REMARK  Name = 
REMARK  9 active torsions:
REMARK  status: ('A' for Active; 'I' for Inactive)
REMARK    1  A    between atoms: C_1  and  C_2
REMARK    2  A    between atoms: C_6  and  N_7
REMARK    3  A    between atoms: N_10  and  C_11
REMARK    4  A    between atoms: C_14  and  C_15
REMARK    5  A    between atoms: C_19  and  C_20
REMARK    6  A    between atoms: N_23  and  C_24
REMARK    7  A    between atoms: C_24  and  C_25
REMARK    8  A    between atoms: C_25  and  C_26
REMARK    9  A    between atoms: C_25  and  O_27
REMARK                            x       y       z     vdW  Elec       q    Type
REMARK                         _______ _______ _______ _____ _____    ______ ____
ROOT
ATOM      1  C   UNL     1       0.904   8.912  20.756  0.00  0.00    +0.000 A 
ATOM      2  C   UNL     1       0.924   8.801  22.131  0.00  0.00    +0.000 A 
ATOM      3  S   UNL     1      -0.086   9.908  22.907  0.00  0.00    +0.000 S 
ATOM      4  C   UNL     1      -0.533  10.685  21.429  0.00  0.00    +0.000 A 
ATOM      5  C   UNL     1      -1.376  11.809  21.269  0.00  0.00    +0.000 A 
ATOM      6  C   UNL     1      -1.584  12.213  19.963  0.00  0.00    +0.000 A 
ATOM      7  N   UNL     1      -1.092  11.594  18.880  0.00  0.00    +0.000 NA
ATOM      8  C   UNL     1      -0.321  10.501  19.026  0.00  0.00    +0.000 A 
ATOM      9  N   UNL     1       0.029   9.925  17.812  0.00  0.00    +0.000 N 
ATOM     10  C   UNL     1       0.034  10.018  20.319  0.00  0.00    +0.000 A 
ATOM     11  H   UNL     1      -0.530  10.363  17.087  0.00  0.00    +0.000 HD
ATOM     12  H   UNL     1      -0.014   8.914  17.827  0.00  0.00    +0.000 HD
ENDROOT
BRANCH   1  16
ATOM     13  C   UNL     1       3.434   6.235  18.545  0.00  0.00    +0.000 A 
ATOM     14  C   UNL     1       3.164   7.514  18.058  0.00  0.00    +0.000 A 
ATOM     15  C   UNL     1       2.325   8.380  18.765  0.00  0.00    +0.000 A 
ATOM     16  C   UNL     1       1.708   7.972  19.958  0.00  0.00    +0.000 A 
ATOM     17  C   UNL     1       1.893   6.645  20.365  0.00  0.00    +0.000 A 
ATOM     18  C   UNL     1       2.768   5.789  19.685  0.00  0.00    +0.000 A 
BRANCH  13  22
ATOM     19  N   UNL     1       5.587   4.517  16.194  0.00  0.00    +0.000 N 
ATOM     20  C   UNL     1       4.670   5.479  16.577  0.00  0.00    +0.000 C 
ATOM     21  O   UNL     1       4.182   6.320  15.835  0.00  0.00    +0.000 OA
ATOM     22  N   UNL     1       4.380   5.385  17.934  0.00  0.00    +0.000 N 
ATOM     23  H   UNL     1       5.571   3.659  16.725  0.00  0.00    +0.000 HD
ATOM     24  H   UNL     1       5.154   5.083  18.507  0.00  0.00    +0.000 HD
BRANCH  19  30
ATOM     25  C   UNL     1       5.659   2.676  11.615  0.00  0.00    +0.000 C 
ATOM     26  C   UNL     1       6.250   3.569  12.665  0.00  0.00    +0.000 A 
ATOM     27  C   UNL     1       7.342   4.390  12.365  0.00  0.00    +0.000 A 
ATOM     28  C   UNL     1       7.880   5.225  13.337  0.00  0.00    +0.000 A 
ATOM     29  C   UNL     1       7.319   5.260  14.612  0.00  0.00    +0.000 A 
ATOM     30  C   UNL     1       6.202   4.470  14.925  0.00  0.00    +0.000 A 
ATOM     31  C   UNL     1       5.696   3.604  13.954  0.00  0.00    +0.000 A 
ENDBRANCH  19  30
ENDBRANCH  13  22
ENDBRANCH   1  16
BRANCH   5  32
ATOM     32  C   UNL     1      -2.009  12.494  22.380  0.00  0.00    +0.000 A 
ATOM     33  C   UNL     1      -3.263  12.324  23.010  0.00  0.00    +0.000 A 
ATOM     34  N   UNL     1      -3.465  13.193  24.005  0.00  0.00    +0.000 NA
ATOM     35  N   UNL     1      -2.345  13.937  24.007  0.00  0.00    +0.000 N 
ATOM     36  C   UNL     1      -1.427  13.533  23.080  0.00  0.00    +0.000 A 
BRANCH  35  37
ATOM     37  C   UNL     1      -2.225  15.048  24.925  0.00  0.00    +0.000 C 
BRANCH  37  38
ATOM     38  C   UNL     1      -0.923  15.835  24.756  0.00  0.00    +0.000 C 
ATOM     39  C   UNL     1      -1.125  17.302  24.391  0.00  0.00    +0.000 C 
BRANCH  38  40
ATOM     40  O   UNL     1      -0.176  15.768  25.977  0.00  0.00    +0.000 OA
ATOM     41  H   UNL     1      -0.290  14.875  26.351  0.00  0.00    +0.000 HD
ENDBRANCH  38  40
ENDBRANCH  37  38
ENDBRANCH  35  37
ENDBRANCH   5  32
TORSDOF 7
ENDMDL
MODEL 5
REMARK VINA RESULT:      -7.6      1.356      1.767
REMARK  Name = 
REMARK  9 active torsions:
REMARK  status: ('A' for Active; 'I' for Inactive)
REMARK    1  A    between atoms: C_1  and  C_2
REMARK    2  A    between atoms: C_6  and  N_7
REMARK    3  A    between atoms: N_10  and  C_11
REMARK    4  A    between atoms: C_14  and  C_15
REMARK    5  A    between atoms: C_19  and  C_20
REMARK    6  A    between atoms: N_23  and  C_24
REMARK    7  A    between atoms: C_24  and  C_25
REMARK    8  A    between atoms: C_25  and  C_26
REMARK    9  A    between atoms: C_25  and  O_27
REMARK                            x       y       z     vdW  Elec       q    Type
REMARK                         _______ _______ _______ _____ _____    ______ ____
ROOT
ATOM      1  C   UNL     1       2.561   7.644  18.816  0.00  0.00    +0.000 A 
ATOM      2  C   UNL     1       3.128   8.430  17.834  0.00  0.00    +0.000 A 
ATOM      3  S   UNL     1       4.144   7.573  16.794  0.00  0.00    +0.000 S 
ATOM      4  C   UNL     1       3.966   6.098  17.677  0.00  0.00    +0.000 A 
ATOM      5  C   UNL     1       4.596   4.858  17.419  0.00  0.00    +0.000 A 
ATOM      6  C   UNL     1       4.255   3.829  18.276  0.00  0.00    +0.000 A 
ATOM      7  N   UNL     1       3.358   3.922  19.268  0.00  0.00    +0.000 NA
ATOM      8  C   UNL     1       2.727   5.088  19.494  0.00  0.00    +0.000 A 
ATOM      9  N   UNL     1       1.765   4.994  20.491  0.00  0.00    +0.000 N 
ATOM     10  C   UNL     1       3.037   6.252  18.732  0.00  0.00    +0.000 A 
ATOM     11  H   UNL     1       1.631   4.010  20.703  0.00  0.00    +0.000 HD
ATOM     12  H   UNL     1       0.916   5.499  20.269  0.00  0.00    +0.000 HD
ENDROOT
BRANCH   1  16
ATOM     13  C   UNL     1      -0.034   9.609  21.619  0.00  0.00    +0.000 A 
ATOM     14  C   UNL     1       0.772   8.548  22.029  0.00  0.00    +0.000 A 
ATOM     15  C   UNL     1       1.602   7.893  21.115  0.00  0.00    +0.000 A 
ATOM     16  C   UNL     1       1.617   8.263  19.761  0.00  0.00    +0.000 A 
ATOM     17  C   UNL     1       0.712   9.247  19.346  0.00  0.00    +0.000 A 
ATOM     18  C   UNL     1      -0.089   9.935  20.265  0.00  0.00    +0.000 A 
BRANCH  13  22
ATOM     19  N   UNL     1      -2.052  12.159  23.215  0.00  0.00    +0.000 N 
ATOM     20  C   UNL     1      -1.427  11.548  22.143  0.00  0.00    +0.000 C 
ATOM     21  O   UNL     1      -1.446  11.959  20.990  0.00  0.00    +0.000 OA
ATOM     22  N   UNL     1      -0.780  10.381  22.535  0.00  0.00    +0.000 N 
ATOM     23  H   UNL     1      -1.623  12.009  24.116  0.00  0.00    +0.000 HD
ATOM     24  H   UNL     1      -1.239   9.879  23.281  0.00  0.00    +0.000 HD
BRANCH  19  30
ATOM     25  C   UNL     1      -6.624  13.966  23.639  0.00  0.00    +0.000 C 
ATOM     26  C   UNL     1      -5.176  14.164  23.304  0.00  0.00    +0.000 A 
ATOM     27  C   UNL     1      -4.695  15.430  22.956  0.00  0.00    +0.000 A 
ATOM     28  C   UNL     1      -3.349  15.612  22.657  0.00  0.00    +0.000 A 
ATOM     29  C   UNL     1      -2.471  14.532  22.721  0.00  0.00    +0.000 A 
ATOM     30  C   UNL     1      -2.926  13.260  23.100  0.00  0.00    +0.000 A 
ATOM     31  C   UNL     1      -4.286  13.080  23.358  0.00  0.00    +0.000 A 
ENDBRANCH  19  30
ENDBRANCH  13  22
ENDBRANCH   1  16
BRANCH   5  32
ATOM     32  C   UNL     1       5.523   4.651  16.322  0.00  0.00    +0.000 A 
ATOM     33  C   UNL     1       6.932   4.727  16.242  0.00  0.00    +0.000 A 
ATOM     34  N   UNL     1       7.396   4.475  15.015  0.00  0.00    +0.000 NA
ATOM     35  N   UNL     1       6.282   4.251  14.296  0.00  0.00    +0.000 N 
ATOM     36  C   UNL     1       5.139   4.305  15.041  0.00  0.00    +0.000 A 
BRANCH  35  37
ATOM     37  C   UNL     1       6.385   4.004  12.875  0.00  0.00    +0.000 C 
BRANCH  37  38
ATOM     38  C   UNL     1       5.466   2.881  12.387  0.00  0.00    +0.000 C 
ATOM     39  C   UNL     1       4.367   3.343  11.438  0.00  0.00    +0.000 C 
BRANCH  38  40
ATOM     40  O   UNL     1       6.258   1.888  11.720  0.00  0.00    +0.000 OA
ATOM     41  H   UNL     1       6.891   2.349  11.141  0.00  0.00    +0.000 HD
ENDBRANCH  38  40
ENDBRANCH  37  38
ENDBRANCH  35  37
ENDBRANCH   5  32
TORSDOF 7
ENDMDL
MODEL 6
REMARK VINA RESULT:      -7.6      3.055     12.773
REMARK  Name = 
REMARK  9 active torsions:
REMARK  status: ('A' for Active; 'I' for Inactive)
REMARK    1  A    between atoms: C_1  and  C_2
REMARK    2  A    between atoms: C_6  and  N_7
REMARK    3  A    between atoms: N_10  and  C_11
REMARK    4  A    between atoms: C_14  and  C_15
REMARK    5  A    between atoms: C_19  and  C_20
REMARK    6  A    between atoms: N_23  and  C_24
REMARK    7  A    between atoms: C_24  and  C_25
REMARK    8  A    between atoms: C_25  and  C_26
REMARK    9  A    between atoms: C_25  and  O_27
REMARK                            x       y       z     vdW  Elec       q    Type
REMARK                         _______ _______ _______ _____ _____    ______ ____
ROOT
ATOM      1  C   UNL     1       0.564   9.876  20.016  0.00  0.00    +0.000 A 
ATOM      2  C   UNL     1       0.709  10.359  21.301  0.00  0.00    +0.000 A 
ATOM      3  S   UNL     1      -0.473  11.484  21.731  0.00  0.00    +0.000 S 
ATOM      4  C   UNL     1      -1.195  11.472  20.161  0.00  0.00    +0.000 A 
ATOM      5  C   UNL     1      -2.287  12.249  19.710  0.00  0.00    +0.000 A 
ATOM      6  C   UNL     1      -2.679  12.021  18.404  0.00  0.00    +0.000 A 
ATOM      7  N   UNL     1      -2.136  11.106  17.589  0.00  0.00    +0.000 NA
ATOM      8  C   UNL     1      -1.122  10.337  18.025  0.00  0.00    +0.000 A 
ATOM      9  N   UNL     1      -0.736   9.379  17.097  0.00  0.00    +0.000 N 
ATOM     10  C   UNL     1      -0.570  10.517  19.327  0.00  0.00    +0.000 A 
ATOM     11  H   UNL     1      -1.434   9.361  16.360  0.00  0.00    +0.000 HD
ATOM     12  H   UNL     1      -0.539   8.479  17.516  0.00  0.00    +0.000 HD
ENDROOT
BRANCH   1  16
ATOM     13  C   UNL     1       3.136   6.788  18.501  0.00  0.00    +0.000 A 
ATOM     14  C   UNL     1       2.549   6.662  19.759  0.00  0.00    +0.000 A 
ATOM     15  C   UNL     1       1.728   7.674  20.264  0.00  0.00    +0.000 A 
ATOM     16  C   UNL     1       1.505   8.852  19.534  0.00  0.00    +0.000 A 
ATOM     17  C   UNL     1       2.201   9.013  18.330  0.00  0.00    +0.000 A 
ATOM     18  C   UNL     1       2.989   7.983  17.800  0.00  0.00    +0.000 A 
BRANCH  13  22
ATOM     19  N   UNL     1       5.024   4.689  16.231  0.00  0.00    +0.000 N 
ATOM     20  C   UNL     1       4.407   5.861  16.630  0.00  0.00    +0.000 C 
ATOM     21  O   UNL     1       4.358   6.889  15.969  0.00  0.00    +0.000 OA
ATOM     22  N   UNL     1       3.857   5.733  17.901  0.00  0.00    +0.000 N 
ATOM     23  H   UNL     1       4.638   3.838  16.613  0.00  0.00    +0.000 HD
ATOM     24  H   UNL     1       4.376   5.129  18.522  0.00  0.00    +0.000 HD
BRANCH  19  30
ATOM     25  C   UNL     1       5.601   2.783  11.716  0.00  0.00    +0.000 C 
ATOM     26  C   UNL     1       6.113   3.631  12.842  0.00  0.00    +0.000 A 
ATOM     27  C   UNL     1       7.311   4.339  12.710  0.00  0.00    +0.000 A 
ATOM     28  C   UNL     1       7.776   5.133  13.752  0.00  0.00    +0.000 A 
ATOM     29  C   UNL     1       7.036   5.240  14.928  0.00  0.00    +0.000 A 
ATOM     30  C   UNL     1       5.815   4.565  15.069  0.00  0.00    +0.000 A 
ATOM     31  C   UNL     1       5.378   3.737  14.033  0.00  0.00    +0.000 A 
ENDBRANCH  19  30
ENDBRANCH  13  22
ENDBRANCH   1  16
BRANCH   5  32
ATOM     32  C   UNL     1      -2.981  13.209  20.548  0.00  0.00    +0.000 A 
ATOM     33  C   UNL     1      -2.544  14.375  21.217  0.00  0.00    +0.000 A 
ATOM     34  N   UNL     1      -3.519  14.971  21.910  0.00  0.00    +0.000 NA
ATOM     35  N   UNL     1      -4.584  14.178  21.701  0.00  0.00    +0.000 N 
ATOM     36  C   UNL     1      -4.324  13.133  20.862  0.00  0.00    +0.000 A 
BRANCH  35  37
ATOM     37  C   UNL     1      -5.837  14.474  22.361  0.00  0.00    +0.000 C 
BRANCH  37  38
ATOM     38  C   UNL     1      -5.813  14.186  23.864  0.00  0.00    +0.000 C 
ATOM     39  C   UNL     1      -5.221  12.830  24.229  0.00  0.00    +0.000 C 
BRANCH  38  40
ATOM     40  O   UNL     1      -5.053  15.208  24.522  0.00  0.00    +0.000 OA
ATOM     41  H   UNL     1      -5.496  16.061  24.365  0.00  0.00    +0.000 HD
ENDBRANCH  38  40
ENDBRANCH  37  38
ENDBRANCH  35  37
ENDBRANCH   5  32
TORSDOF 7
ENDMDL
MODEL 7
REMARK VINA RESULT:      -7.6      2.775     12.627
REMARK  Name = 
REMARK  9 active torsions:
REMARK  status: ('A' for Active; 'I' for Inactive)
REMARK    1  A    between atoms: C_1  and  C_2
REMARK    2  A    between atoms: C_6  and  N_7
REMARK    3  A    between atoms: N_10  and  C_11
REMARK    4  A    between atoms: C_14  and  C_15
REMARK    5  A    between atoms: C_19  and  C_20
REMARK    6  A    between atoms: N_23  and  C_24
REMARK    7  A    between atoms: C_24  and  C_25
REMARK    8  A    between atoms: C_25  and  C_26
REMARK    9  A    between atoms: C_25  and  O_27
REMARK                            x       y       z     vdW  Elec       q    Type
REMARK                         _______ _______ _______ _____ _____    ______ ____
ROOT
ATOM      1  C   UNL     1       0.616   9.839  19.506  0.00  0.00    +0.000 A 
ATOM      2  C   UNL     1      -0.051  10.546  18.526  0.00  0.00    +0.000 A 
ATOM      3  S   UNL     1      -1.136  11.682  19.143  0.00  0.00    +0.000 S 
ATOM      4  C   UNL     1      -0.851  11.211  20.781  0.00  0.00    +0.000 A 
ATOM      5  C   UNL     1      -1.475  11.719  21.944  0.00  0.00    +0.000 A 
ATOM      6  C   UNL     1      -1.038  11.176  23.138  0.00  0.00    +0.000 A 
ATOM      7  N   UNL     1      -0.059  10.267  23.255  0.00  0.00    +0.000 NA
ATOM      8  C   UNL     1       0.564   9.809  22.155  0.00  0.00    +0.000 A 
ATOM      9  N   UNL     1       1.612   8.947  22.451  0.00  0.00    +0.000 N 
ATOM     10  C   UNL     1       0.164  10.229  20.853  0.00  0.00    +0.000 A 
ATOM     11  H   UNL     1       1.785   8.999  23.450  0.00  0.00    +0.000 HD
ATOM     12  H   UNL     1       2.428   9.103  21.872  0.00  0.00    +0.000 HD
ENDROOT
BRANCH   1  16
ATOM     13  C   UNL     1       3.403   6.845  18.193  0.00  0.00    +0.000 A 
ATOM     14  C   UNL     1       2.697   6.677  19.385  0.00  0.00    +0.000 A 
ATOM     15  C   UNL     1       1.805   7.659  19.825  0.00  0.00    +0.000 A 
ATOM     16  C   UNL     1       1.626   8.848  19.100  0.00  0.00    +0.000 A 
ATOM     17  C   UNL     1       2.433   9.051  17.974  0.00  0.00    +0.000 A 
ATOM     18  C   UNL     1       3.295   8.052  17.505  0.00  0.00    +0.000 A 
BRANCH  13  22
ATOM     19  N   UNL     1       5.358   4.728  15.999  0.00  0.00    +0.000 N 
ATOM     20  C   UNL     1       4.626   5.856  16.322  0.00  0.00    +0.000 C 
ATOM     21  O   UNL     1       4.384   6.780  15.558  0.00  0.00    +0.000 OA
ATOM     22  N   UNL     1       4.206   5.821  17.648  0.00  0.00    +0.000 N 
ATOM     23  H   UNL     1       5.123   3.891  16.511  0.00  0.00    +0.000 HD
ATOM     24  H   UNL     1       4.851   5.367  18.278  0.00  0.00    +0.000 HD
BRANCH  19  30
ATOM     25  C   UNL     1       5.646   2.570  11.570  0.00  0.00    +0.000 C 
ATOM     26  C   UNL     1       6.213   3.501  12.600  0.00  0.00    +0.000 A 
ATOM     27  C   UNL     1       7.371   4.238  12.330  0.00  0.00    +0.000 A 
ATOM     28  C   UNL     1       7.887   5.109  13.283  0.00  0.00    +0.000 A 
ATOM     29  C   UNL     1       7.239   5.263  14.506  0.00  0.00    +0.000 A 
ATOM     30  C   UNL     1       6.058   4.559  14.786  0.00  0.00    +0.000 A 
ATOM     31  C   UNL     1       5.572   3.656  13.838  0.00  0.00    +0.000 A 
ENDBRANCH  19  30
ENDBRANCH  13  22
ENDBRANCH   1  16
BRANCH   5  32
ATOM     32  C   UNL     1      -2.490  12.755  21.914  0.00  0.00    +0.000 A 
ATOM     33  C   UNL     1      -2.408  14.167  21.948  0.00  0.00    +0.000 A 
ATOM     34  N   UNL     1      -3.607  14.756  21.917  0.00  0.00    +0.000 NA
ATOM     35  N   UNL     1      -4.466  13.723  21.880  0.00  0.00    +0.000 N 
ATOM     36  C   UNL     1      -3.846  12.507  21.836  0.00  0.00    +0.000 A 
BRANCH  35  37
ATOM     37  C   UNL     1      -5.890  13.975  21.907  0.00  0.00    +0.000 C 
BRANCH  37  38
ATOM     38  C   UNL     1      -6.427  14.556  20.597  0.00  0.00    +0.000 C 
ATOM     39  C   UNL     1      -7.061  15.935  20.741  0.00  0.00    +0.000 C 
BRANCH  38  40
ATOM     40  O   UNL     1      -5.353  14.645  19.651  0.00  0.00    +0.000 OA
ATOM     41  H   UNL     1      -4.515  14.537  20.137  0.00  0.00    +0.000 HD
ENDBRANCH  38  40
ENDBRANCH  37  38
ENDBRANCH  35  37
ENDBRANCH   5  32
TORSDOF 7
ENDMDL
MODEL 8
REMARK VINA RESULT:      -7.6      1.182      1.566
REMARK  Name = 
REMARK  9 active torsions:
REMARK  status: ('A' for Active; 'I' for Inactive)
REMARK    1  A    between atoms: C_1  and  C_2
REMARK    2  A    between atoms: C_6  and  N_7
REMARK    3  A    between atoms: N_10  and  C_11
REMARK    4  A    between atoms: C_14  and  C_15
REMARK    5  A    between atoms: C_19  and  C_20
REMARK    6  A    between atoms: N_23  and  C_24
REMARK    7  A    between atoms: C_24  and  C_25
REMARK    8  A    between atoms: C_25  and  C_26
REMARK    9  A    between atoms: C_25  and  O_27
REMARK                            x       y       z     vdW  Elec       q    Type
REMARK                         _______ _______ _______ _____ _____    ______ ____
ROOT
ATOM      1  C   UNL     1       2.645   7.549  18.653  0.00  0.00    +0.000 A 
ATOM      2  C   UNL     1       3.280   8.373  17.746  0.00  0.00    +0.000 A 
ATOM      3  S   UNL     1       4.280   7.541  16.672  0.00  0.00    +0.000 S 
ATOM      4  C   UNL     1       4.000   6.017  17.438  0.00  0.00    +0.000 A 
ATOM      5  C   UNL     1       4.573   4.768  17.104  0.00  0.00    +0.000 A 
ATOM      6  C   UNL     1       4.153   3.698  17.874  0.00  0.00    +0.000 A 
ATOM      7  N   UNL     1       3.234   3.766  18.846  0.00  0.00    +0.000 NA
ATOM      8  C   UNL     1       2.658   4.945  19.142  0.00  0.00    +0.000 A 
ATOM      9  N   UNL     1       1.663   4.831  20.104  0.00  0.00    +0.000 N 
ATOM     10  C   UNL     1       3.050   6.143  18.477  0.00  0.00    +0.000 A 
ATOM     11  H   UNL     1       1.472   3.843  20.239  0.00  0.00    +0.000 HD
ATOM     12  H   UNL     1       0.848   5.396  19.899  0.00  0.00    +0.000 HD
ENDROOT
BRANCH   1  16
ATOM     13  C   UNL     1       0.071   9.448  21.520  0.00  0.00    +0.000 A 
ATOM     14  C   UNL     1       0.845   8.347  21.888  0.00  0.00    +0.000 A 
ATOM     15  C   UNL     1       1.668   7.714  20.952  0.00  0.00    +0.000 A 
ATOM     16  C   UNL     1       1.707   8.148  19.617  0.00  0.00    +0.000 A 
ATOM     17  C   UNL     1       0.832   9.173  19.240  0.00  0.00    +0.000 A 
ATOM     18  C   UNL     1       0.039   9.839  20.183  0.00  0.00    +0.000 A 
BRANCH  13  22
ATOM     19  N   UNL     1      -1.931  11.952  23.205  0.00  0.00    +0.000 N 
ATOM     20  C   UNL     1      -1.318  11.370  22.110  0.00  0.00    +0.000 C 
ATOM     21  O   UNL     1      -1.352  11.811  20.969  0.00  0.00    +0.000 OA
ATOM     22  N   UNL     1      -0.665  10.195  22.465  0.00  0.00    +0.000 N 
ATOM     23  H   UNL     1      -1.491  11.780  24.097  0.00  0.00    +0.000 HD
ATOM     24  H   UNL     1      -1.114   9.673  23.203  0.00  0.00    +0.000 HD
BRANCH  19  30
ATOM     25  C   UNL     1      -2.531  16.840  22.875  0.00  0.00    +0.000 C 
ATOM     26  C   UNL     1      -3.118  15.463  22.968  0.00  0.00    +0.000 A 
ATOM     27  C   UNL     1      -4.503  15.276  22.907  0.00  0.00    +0.000 A 
ATOM     28  C   UNL     1      -5.043  13.997  22.981  0.00  0.00    +0.000 A 
ATOM     29  C   UNL     1      -4.201  12.894  23.099  0.00  0.00    +0.000 A 
ATOM     30  C   UNL     1      -2.808  13.055  23.129  0.00  0.00    +0.000 A 
ATOM     31  C   UNL     1      -2.278  14.346  23.095  0.00  0.00    +0.000 A 
ENDBRANCH  19  30
ENDBRANCH  13  22
ENDBRANCH   1  16
BRANCH   5  32
ATOM     32  C   UNL     1       5.519   4.591  16.019  0.00  0.00    +0.000 A 
ATOM     33  C   UNL     1       6.905   4.852  15.915  0.00  0.00    +0.000 A 
ATOM     34  N   UNL     1       7.399   4.556  14.709  0.00  0.00    +0.000 NA
ATOM     35  N   UNL     1       6.326   4.118  14.027  0.00  0.00    +0.000 N 
ATOM     36  C   UNL     1       5.187   4.082  14.779  0.00  0.00    +0.000 A 
BRANCH  35  37
ATOM     37  C   UNL     1       6.462   3.761  12.633  0.00  0.00    +0.000 C 
BRANCH  37  38
ATOM     38  C   UNL     1       5.441   2.717  12.173  0.00  0.00    +0.000 C 
ATOM     39  C   UNL     1       4.333   3.277  11.288  0.00  0.00    +0.000 C 
BRANCH  38  40
ATOM     40  O   UNL     1       6.124   1.685  11.449  0.00  0.00    +0.000 OA
ATOM     41  H   UNL     1       6.414   2.057  10.597  0.00  0.00    +0.000 HD
ENDBRANCH  38  40
ENDBRANCH  37  38
ENDBRANCH  35  37
ENDBRANCH   5  32
TORSDOF 7
ENDMDL
MODEL 9
REMARK VINA RESULT:      -7.6      7.416     12.452
REMARK  Name = 
REMARK  9 active torsions:
REMARK  status: ('A' for Active; 'I' for Inactive)
REMARK    1  A    between atoms: C_1  and  C_2
REMARK    2  A    between atoms: C_6  and  N_7
REMARK    3  A    between atoms: N_10  and  C_11
REMARK    4  A    between atoms: C_14  and  C_15
REMARK    5  A    between atoms: C_19  and  C_20
REMARK    6  A    between atoms: N_23  and  C_24
REMARK    7  A    between atoms: C_24  and  C_25
REMARK    8  A    between atoms: C_25  and  C_26
REMARK    9  A    between atoms: C_25  and  O_27
REMARK                            x       y       z     vdW  Elec       q    Type
REMARK                         _______ _______ _______ _____ _____    ______ ____
ROOT
ATOM      1  C   UNL     1      -0.135  13.773  20.163  0.00  0.00    +0.000 A 
ATOM      2  C   UNL     1      -1.149  13.018  19.607  0.00  0.00    +0.000 A 
ATOM      3  S   UNL     1      -2.491  12.853  20.617  0.00  0.00    +0.000 S 
ATOM      4  C   UNL     1      -1.739  13.704  21.919  0.00  0.00    +0.000 A 
ATOM      5  C   UNL     1      -2.268  13.946  23.208  0.00  0.00    +0.000 A 
ATOM      6  C   UNL     1      -1.455  14.678  24.055  0.00  0.00    +0.000 A 
ATOM      7  N   UNL     1      -0.264  15.193  23.721  0.00  0.00    +0.000 NA
ATOM      8  C   UNL     1       0.227  14.998  22.484  0.00  0.00    +0.000 A 
ATOM      9  N   UNL     1       1.422  15.672  22.267  0.00  0.00    +0.000 N 
ATOM     10  C   UNL     1      -0.472  14.200  21.532  0.00  0.00    +0.000 A 
ATOM     11  H   UNL     1       1.564  16.310  23.044  0.00  0.00    +0.000 HD
ATOM     12  H   UNL     1       1.473  16.101  21.352  0.00  0.00    +0.000 HD
ENDROOT
BRANCH   1  16
ATOM     13  C   UNL     1       3.510  14.550  18.028  0.00  0.00    +0.000 A 
ATOM     14  C   UNL     1       2.631  15.591  18.324  0.00  0.00    +0.000 A 
ATOM     15  C   UNL     1       1.434  15.338  19.000  0.00  0.00    +0.000 A 
ATOM     16  C   UNL     1       1.074  14.031  19.364  0.00  0.00    +0.000 A 
ATOM     17  C   UNL     1       1.909  12.987  18.950  0.00  0.00    +0.000 A 
ATOM     18  C   UNL     1       3.130  13.240  18.312  0.00  0.00    +0.000 A 
BRANCH  13  22
ATOM     19  N   UNL     1       7.037  15.197  17.512  0.00  0.00    +0.000 N 
ATOM     20  C   UNL     1       5.912  14.931  18.273  0.00  0.00    +0.000 C 
ATOM     21  O   UNL     1       5.897  14.821  19.491  0.00  0.00    +0.000 OA
ATOM     22  N   UNL     1       4.786  14.782  17.470  0.00  0.00    +0.000 N 
ATOM     23  H   UNL     1       6.874  15.686  16.645  0.00  0.00    +0.000 HD
ATOM     24  H   UNL     1       4.967  14.368  16.568  0.00  0.00    +0.000 HD
BRANCH  19  30
ATOM     25  C   UNL     1      11.370  12.916  18.127  0.00  0.00    +0.000 C 
ATOM     26  C   UNL     1      10.492  14.114  18.337  0.00  0.00    +0.000 A 
ATOM     27  C   UNL     1      10.992  15.260  18.963  0.00  0.00    +0.000 A 
ATOM     28  C   UNL     1      10.178  16.372  19.145  0.00  0.00    +0.000 A 
ATOM     29  C   UNL     1       8.863  16.353  18.686  0.00  0.00    +0.000 A 
ATOM     30  C   UNL     1       8.351  15.227  18.025  0.00  0.00    +0.000 A 
ATOM     31  C   UNL     1       9.163  14.101  17.885  0.00  0.00    +0.000 A 
ENDBRANCH  19  30
ENDBRANCH  13  22
ENDBRANCH   1  16
BRANCH   5  32
ATOM     32  C   UNL     1      -3.579  13.490  23.629  0.00  0.00    +0.000 A 
ATOM     33  C   UNL     1      -4.000  12.354  24.359  0.00  0.00    +0.000 A 
ATOM     34  N   UNL     1      -5.326  12.302  24.516  0.00  0.00    +0.000 NA
ATOM     35  N   UNL     1      -5.764  13.397  23.871  0.00  0.00    +0.000 N 
ATOM     36  C   UNL     1      -4.755  14.161  23.358  0.00  0.00    +0.000 A 
BRANCH  35  37
ATOM     37  C   UNL     1      -7.184  13.647  23.768  0.00  0.00    +0.000 C 
BRANCH  37  38
ATOM     38  C   UNL     1      -7.848  12.902  22.607  0.00  0.00    +0.000 C 
ATOM     39  C   UNL     1      -7.917  13.702  21.311  0.00  0.00    +0.000 C 
BRANCH  38  40
ATOM     40  O   UNL     1      -7.124  11.690  22.358  0.00  0.00    +0.000 OA
ATOM     41  H   UNL     1      -7.329  11.399  21.451  0.00  0.00    +0.000 HD
ENDBRANCH  38  40
ENDBRANCH  37  38
ENDBRANCH  35  37
ENDBRANCH   5  32
TORSDOF 7
ENDMDL
