MODEL 1
REMARK VINA RESULT:      -6.2      0.000      0.000
REMARK  Name = 
REMARK  7 active torsions:
REMARK  status: ('A' for Active; 'I' for Inactive)
REMARK    1  A    between atoms: C_1  and  C_2
REMARK    2  A    between atoms: C_2  and  C_3
REMARK    3  A    between atoms: C_2  and  N_9
REMARK    4  A    between atoms: C_3  and  N_4
REMARK    5  A    between atoms: N_9  and  C_10
REMARK    6  A    between atoms: C_10  and  C_11
REMARK    7  A    between atoms: C_14  and  C_15
REMARK                            x       y       z     vdW  Elec       q    Type
REMARK                         _______ _______ _______ _____ _____    ______ ____
ROOT
ATOM      1  C   UNL     1       2.989   6.258  19.186  0.00  0.00    +0.000 C 
ENDROOT
BRANCH   1   2
ATOM      2  C   UNL     1       2.288   7.578  19.185  0.00  0.00    +0.000 A 
ATOM      3  C   UNL     1       2.152   8.411  18.091  0.00  0.00    +0.000 A 
ATOM      4  S   UNL     1       1.162   9.741  18.485  0.00  0.00    +0.000 S 
ATOM      5  C   UNL     1       1.049   9.165  20.104  0.00  0.00    +0.000 A 
ATOM      6  N   UNL     1       1.687   8.038  20.348  0.00  0.00    +0.000 NA
BRANCH   5   7
ATOM      7  C   UNL     1       0.250   9.876  21.156  0.00  0.00    +0.000 A 
ATOM      8  C   UNL     1      -0.189   9.308  22.390  0.00  0.00    +0.000 A 
ATOM      9  C   UNL     1      -0.845  10.226  23.181  0.00  0.00    +0.000 A 
ATOM     10  S   UNL     1      -0.986  11.748  22.412  0.00  0.00    +0.000 S 
ATOM     11  C   UNL     1      -0.137  11.194  21.030  0.00  0.00    +0.000 A 
ENDBRANCH   5   7
ENDBRANCH   1   2
BRANCH   1  12
ATOM     12  N   UNL     1       3.136   5.822  17.792  0.00  0.00    +0.000 NA
ATOM     13  H   UNL     1       2.339   5.222  17.577  0.00  0.00    +0.000 HD
BRANCH  12  15
ATOM     14  C   UNL     1       5.285   5.293  18.789  0.00  0.00    +0.000 C 
ATOM     15  C   UNL     1       4.390   5.071  17.562  0.00  0.00    +0.000 C 
BRANCH  15  16
ATOM     16  C   UNL     1       4.131   3.567  17.337  0.00  0.00    +0.000 C 
BRANCH  16  17
ATOM     17  N   UNL     1       3.020   3.044  18.103  0.00  0.00    +0.000 N 
ATOM     18  C   UNL     1       3.083   2.445  19.327  0.00  0.00    +0.000 A 
ATOM     19  C   UNL     1       1.785   2.166  19.677  0.00  0.00    +0.000 A 
ATOM     20  C   UNL     1       1.015   2.647  18.602  0.00  0.00    +0.000 A 
ATOM     21  N   UNL     1       1.765   3.193  17.646  0.00  0.00    +0.000 NA
ENDBRANCH  16  17
ENDBRANCH  15  16
ENDBRANCH  12  15
ENDBRANCH   1  12
TORSDOF 6
ENDMDL
MODEL 2
REMARK VINA RESULT:      -6.2      3.743      5.894
REMARK  Name = 
REMARK  7 active torsions:
REMARK  status: ('A' for Active; 'I' for Inactive)
REMARK    1  A    between atoms: C_1  and  C_2
REMARK    2  A    between atoms: C_2  and  C_3
REMARK    3  A    between atoms: C_2  and  N_9
REMARK    4  A    between atoms: C_3  and  N_4
REMARK    5  A    between atoms: N_9  and  C_10
REMARK    6  A    between atoms: C_10  and  C_11
REMARK    7  A    between atoms: C_14  and  C_15
REMARK                            x       y       z     vdW  Elec       q    Type
REMARK                         _______ _______ _______ _____ _____    ______ ____
ROOT
ATOM      1  C   UNL     1       5.038   6.716  16.057  0.00  0.00    +0.000 C 
ENDROOT
BRANCH   1   2
ATOM      2  C   UNL     1       4.104   6.697  17.224  0.00  0.00    +0.000 A 
ATOM      3  C   UNL     1       3.444   7.796  17.739  0.00  0.00    +0.000 A 
ATOM      4  S   UNL     1       2.369   7.312  18.969  0.00  0.00    +0.000 S 
ATOM      5  C   UNL     1       2.913   5.687  18.792  0.00  0.00    +0.000 A 
ATOM      6  N   UNL     1       3.825   5.496  17.861  0.00  0.00    +0.000 NA
BRANCH   5   7
ATOM      7  C   UNL     1       2.361   4.562  19.616  0.00  0.00    +0.000 A 
ATOM      8  C   UNL     1       2.299   4.531  21.042  0.00  0.00    +0.000 A 
ATOM      9  C   UNL     1       1.677   3.394  21.511  0.00  0.00    +0.000 A 
ATOM     10  S   UNL     1       1.226   2.341  20.240  0.00  0.00    +0.000 S 
ATOM     11  C   UNL     1       1.831   3.420  19.054  0.00  0.00    +0.000 A 
ENDBRANCH   5   7
ENDBRANCH   1   2
BRANCH   1  12
ATOM     12  N   UNL     1       6.388   6.996  16.563  0.00  0.00    +0.000 NA
ATOM     13  H   UNL     1       6.814   7.672  15.928  0.00  0.00    +0.000 HD
BRANCH  12  15
ATOM     14  C   UNL     1       7.436   5.447  18.109  0.00  0.00    +0.000 C 
ATOM     15  C   UNL     1       7.233   5.783  16.626  0.00  0.00    +0.000 C 
BRANCH  15  16
ATOM     16  C   UNL     1       6.598   4.595  15.875  0.00  0.00    +0.000 C 
BRANCH  16  17
ATOM     17  N   UNL     1       6.892   4.573  14.458  0.00  0.00    +0.000 N 
ATOM     18  C   UNL     1       6.294   3.793  13.512  0.00  0.00    +0.000 A 
ATOM     19  C   UNL     1       6.858   4.155  12.314  0.00  0.00    +0.000 A 
ATOM     20  C   UNL     1       7.775   5.171  12.644  0.00  0.00    +0.000 A 
ATOM     21  N   UNL     1       7.789   5.435  13.949  0.00  0.00    +0.000 NA
ENDBRANCH  16  17
ENDBRANCH  15  16
ENDBRANCH  12  15
ENDBRANCH   1  12
TORSDOF 6
ENDMDL
MODEL 3
REMARK VINA RESULT:      -6.2      1.160      1.591
REMARK  Name = 
REMARK  7 active torsions:
REMARK  status: ('A' for Active; 'I' for Inactive)
REMARK    1  A    between atoms: C_1  and  C_2
REMARK    2  A    between atoms: C_2  and  C_3
REMARK    3  A    between atoms: C_2  and  N_9
REMARK    4  A    between atoms: C_3  and  N_4
REMARK    5  A    between atoms: N_9  and  C_10
REMARK    6  A    between atoms: C_10  and  C_11
REMARK    7  A    between atoms: C_14  and  C_15
REMARK                            x       y       z     vdW  Elec       q    Type
REMARK                         _______ _______ _______ _____ _____    ______ ____
ROOT
ATOM      1  C   UNL     1       3.204   6.007  18.574  0.00  0.00    +0.000 C 
ENDROOT
BRANCH   1   2
ATOM      2  C   UNL     1       2.551   7.347  18.689  0.00  0.00    +0.000 A 
ATOM      3  C   UNL     1       2.470   8.287  17.679  0.00  0.00    +0.000 A 
ATOM      4  S   UNL     1       1.521   9.608  18.183  0.00  0.00    +0.000 S 
ATOM      5  C   UNL     1       1.350   8.883  19.735  0.00  0.00    +0.000 A 
ATOM      6  N   UNL     1       1.941   7.714  19.880  0.00  0.00    +0.000 NA
BRANCH   5   7
ATOM      7  C   UNL     1       0.553   9.519  20.836  0.00  0.00    +0.000 A 
ATOM      8  C   UNL     1       0.050   8.847  21.990  0.00  0.00    +0.000 A 
ATOM      9  C   UNL     1      -0.586   9.709  22.858  0.00  0.00    +0.000 A 
ATOM     10  S   UNL     1      -0.631  11.308  22.253  0.00  0.00    +0.000 S 
ATOM     11  C   UNL     1       0.233  10.861  20.842  0.00  0.00    +0.000 A 
ENDBRANCH   5   7
ENDBRANCH   1   2
BRANCH   1  12
ATOM     12  N   UNL     1       2.189   5.046  18.129  0.00  0.00    +0.000 NA
ATOM     13  H   UNL     1       1.724   4.687  18.964  0.00  0.00    +0.000 HD
BRANCH  12  15
ATOM     14  C   UNL     1       4.278   4.183  17.243  0.00  0.00    +0.000 C 
ATOM     15  C   UNL     1       2.772   3.915  17.372  0.00  0.00    +0.000 C 
BRANCH  15  16
ATOM     16  C   UNL     1       2.511   2.561  18.062  0.00  0.00    +0.000 C 
BRANCH  16  17
ATOM     17  N   UNL     1       2.253   2.667  19.482  0.00  0.00    +0.000 N 
ATOM     18  C   UNL     1       1.035   2.625  20.095  0.00  0.00    +0.000 A 
ATOM     19  C   UNL     1       1.289   2.711  21.442  0.00  0.00    +0.000 A 
ATOM     20  C   UNL     1       2.691   2.788  21.536  0.00  0.00    +0.000 A 
ATOM     21  N   UNL     1       3.282   2.751  20.343  0.00  0.00    +0.000 NA
ENDBRANCH  16  17
ENDBRANCH  15  16
ENDBRANCH  12  15
ENDBRANCH   1  12
TORSDOF 6
ENDMDL
MODEL 4
REMARK VINA RESULT:      -6.2      2.723      4.985
REMARK  Name = 
REMARK  7 active torsions:
REMARK  status: ('A' for Active; 'I' for Inactive)
REMARK    1  A    between atoms: C_1  and  C_2
REMARK    2  A    between atoms: C_2  and  C_3
REMARK    3  A    between atoms: C_2  and  N_9
REMARK    4  A    between atoms: C_3  and  N_4
REMARK    5  A    between atoms: N_9  and  C_10
REMARK    6  A    between atoms: C_10  and  C_11
REMARK    7  A    between atoms: C_14  and  C_15
REMARK                            x       y       z     vdW  Elec       q    Type
REMARK                         _______ _______ _______ _____ _____    ______ ____
ROOT
ATOM      1  C   UNL     1       4.583   3.402  16.924  0.00  0.00    +0.000 C 
ENDROOT
BRANCH   1   2
ATOM      2  C   UNL     1       3.846   4.155  17.985  0.00  0.00    +0.000 A 
ATOM      3  C   UNL     1       3.601   3.700  19.266  0.00  0.00    +0.000 A 
ATOM      4  S   UNL     1       2.862   4.923  20.192  0.00  0.00    +0.000 S 
ATOM      5  C   UNL     1       2.840   5.947  18.807  0.00  0.00    +0.000 A 
ATOM      6  N   UNL     1       3.369   5.431  17.716  0.00  0.00    +0.000 NA
BRANCH   5   7
ATOM      7  C   UNL     1       2.292   7.342  18.848  0.00  0.00    +0.000 A 
ATOM      8  C   UNL     1       1.714   7.972  19.991  0.00  0.00    +0.000 A 
ATOM      9  C   UNL     1       1.361   9.281  19.741  0.00  0.00    +0.000 A 
ATOM     10  S   UNL     1       1.666   9.727  18.117  0.00  0.00    +0.000 S 
ATOM     11  C   UNL     1       2.306   8.180  17.752  0.00  0.00    +0.000 A 
ENDBRANCH   5   7
ENDBRANCH   1   2
BRANCH   1  12
ATOM     12  N   UNL     1       4.875   4.333  15.828  0.00  0.00    +0.000 NA
ATOM     13  H   UNL     1       4.076   4.314  15.194  0.00  0.00    +0.000 HD
BRANCH  12  15
ATOM     14  C   UNL     1       5.700   3.794  13.610  0.00  0.00    +0.000 C 
ATOM     15  C   UNL     1       6.100   3.966  15.082  0.00  0.00    +0.000 C 
BRANCH  15  16
ATOM     16  C   UNL     1       7.208   5.028  15.231  0.00  0.00    +0.000 C 
BRANCH  16  17
ATOM     17  N   UNL     1       7.435   5.451  16.596  0.00  0.00    +0.000 N 
ATOM     18  C   UNL     1       7.298   6.714  17.093  0.00  0.00    +0.000 A 
ATOM     19  C   UNL     1       7.564   6.621  18.437  0.00  0.00    +0.000 A 
ATOM     20  C   UNL     1       7.838   5.257  18.652  0.00  0.00    +0.000 A 
ATOM     21  N   UNL     1       7.749   4.540  17.534  0.00  0.00    +0.000 NA
ENDBRANCH  16  17
ENDBRANCH  15  16
ENDBRANCH  12  15
ENDBRANCH   1  12
TORSDOF 6
ENDMDL
MODEL 5
REMARK VINA RESULT:      -6.0      2.513      4.884
REMARK  Name = 
REMARK  7 active torsions:
REMARK  status: ('A' for Active; 'I' for Inactive)
REMARK    1  A    between atoms: C_1  and  C_2
REMARK    2  A    between atoms: C_2  and  C_3
REMARK    3  A    between atoms: C_2  and  N_9
REMARK    4  A    between atoms: C_3  and  N_4
REMARK    5  A    between atoms: N_9  and  C_10
REMARK    6  A    between atoms: C_10  and  C_11
REMARK    7  A    between atoms: C_14  and  C_15
REMARK                            x       y       z     vdW  Elec       q    Type
REMARK                         _______ _______ _______ _____ _____    ______ ____
ROOT
ATOM      1  C   UNL     1       4.588   3.505  17.958  0.00  0.00    +0.000 C 
ENDROOT
BRANCH   1   2
ATOM      2  C   UNL     1       3.613   4.303  18.762  0.00  0.00    +0.000 A 
ATOM      3  C   UNL     1       2.985   3.872  19.915  0.00  0.00    +0.000 A 
ATOM      4  S   UNL     1       2.070   5.139  20.593  0.00  0.00    +0.000 S 
ATOM      5  C   UNL     1       2.501   6.149  19.266  0.00  0.00    +0.000 A 
ATOM      6  N   UNL     1       3.297   5.597  18.373  0.00  0.00    +0.000 NA
BRANCH   5   7
ATOM      7  C   UNL     1       2.033   7.569  19.152  0.00  0.00    +0.000 A 
ATOM      8  C   UNL     1       2.023   8.346  17.954  0.00  0.00    +0.000 A 
ATOM      9  C   UNL     1       1.473   9.595  18.148  0.00  0.00    +0.000 A 
ATOM     10  S   UNL     1       1.029   9.851  19.780  0.00  0.00    +0.000 S 
ATOM     11  C   UNL     1       1.538   8.277  20.227  0.00  0.00    +0.000 A 
ENDBRANCH   5   7
ENDBRANCH   1   2
BRANCH   1  12
ATOM     12  N   UNL     1       4.471   3.928  16.557  0.00  0.00    +0.000 NA
ATOM     13  H   UNL     1       4.162   3.115  16.021  0.00  0.00    +0.000 HD
BRANCH  12  15
ATOM     14  C   UNL     1       5.790   4.021  14.521  0.00  0.00    +0.000 C 
ATOM     15  C   UNL     1       5.753   4.419  16.004  0.00  0.00    +0.000 C 
BRANCH  15  16
ATOM     16  C   UNL     1       5.908   5.945  16.168  0.00  0.00    +0.000 C 
BRANCH  16  17
ATOM     17  N   UNL     1       6.834   6.330  17.210  0.00  0.00    +0.000 N 
ATOM     18  C   UNL     1       7.483   7.525  17.325  0.00  0.00    +0.000 A 
ATOM     19  C   UNL     1       8.206   7.451  18.490  0.00  0.00    +0.000 A 
ATOM     20  C   UNL     1       7.914   6.176  19.010  0.00  0.00    +0.000 A 
ATOM     21  N   UNL     1       7.069   5.495  18.237  0.00  0.00    +0.000 NA
ENDBRANCH  16  17
ENDBRANCH  15  16
ENDBRANCH  12  15
ENDBRANCH   1  12
TORSDOF 6
ENDMDL
MODEL 6
REMARK VINA RESULT:      -6.0      1.314      2.712
REMARK  Name = 
REMARK  7 active torsions:
REMARK  status: ('A' for Active; 'I' for Inactive)
REMARK    1  A    between atoms: C_1  and  C_2
REMARK    2  A    between atoms: C_2  and  C_3
REMARK    3  A    between atoms: C_2  and  N_9
REMARK    4  A    between atoms: C_3  and  N_4
REMARK    5  A    between atoms: N_9  and  C_10
REMARK    6  A    between atoms: C_10  and  C_11
REMARK    7  A    between atoms: C_14  and  C_15
REMARK                            x       y       z     vdW  Elec       q    Type
REMARK                         _______ _______ _______ _____ _____    ______ ____
ROOT
ATOM      1  C   UNL     1       2.998   6.289  19.144  0.00  0.00    +0.000 C 
ENDROOT
BRANCH   1   2
ATOM      2  C   UNL     1       2.281   7.600  19.155  0.00  0.00    +0.000 A 
ATOM      3  C   UNL     1       2.116   8.432  18.064  0.00  0.00    +0.000 A 
ATOM      4  S   UNL     1       1.117   9.749  18.475  0.00  0.00    +0.000 S 
ATOM      5  C   UNL     1       1.037   9.171  20.096  0.00  0.00    +0.000 A 
ATOM      6  N   UNL     1       1.693   8.052  20.329  0.00  0.00    +0.000 NA
BRANCH   5   7
ATOM      7  C   UNL     1       0.247   9.872  21.160  0.00  0.00    +0.000 A 
ATOM      8  C   UNL     1      -0.204   9.285  22.381  0.00  0.00    +0.000 A 
ATOM      9  C   UNL     1      -0.847  10.196  23.191  0.00  0.00    +0.000 A 
ATOM     10  S   UNL     1      -0.963  11.736  22.454  0.00  0.00    +0.000 S 
ATOM     11  C   UNL     1      -0.119  11.198  21.063  0.00  0.00    +0.000 A 
ENDBRANCH   5   7
ENDBRANCH   1   2
BRANCH   1  12
ATOM     12  N   UNL     1       2.391   5.449  18.104  0.00  0.00    +0.000 NA
ATOM     13  H   UNL     1       1.378   5.554  18.184  0.00  0.00    +0.000 HD
BRANCH  12  15
ATOM     14  C   UNL     1       1.434   3.238  18.395  0.00  0.00    +0.000 C 
ATOM     15  C   UNL     1       2.747   4.020  18.249  0.00  0.00    +0.000 C 
BRANCH  15  16
ATOM     16  C   UNL     1       3.565   3.503  17.048  0.00  0.00    +0.000 C 
BRANCH  16  17
ATOM     17  N   UNL     1       4.951   3.918  17.062  0.00  0.00    +0.000 N 
ATOM     18  C   UNL     1       5.777   4.040  15.983  0.00  0.00    +0.000 A 
ATOM     19  C   UNL     1       6.970   4.510  16.474  0.00  0.00    +0.000 A 
ATOM     20  C   UNL     1       6.756   4.650  17.858  0.00  0.00    +0.000 A 
ATOM     21  N   UNL     1       5.522   4.300  18.217  0.00  0.00    +0.000 NA
ENDBRANCH  16  17
ENDBRANCH  15  16
ENDBRANCH  12  15
ENDBRANCH   1  12
TORSDOF 6
ENDMDL
MODEL 7
REMARK VINA RESULT:      -5.9      2.019      3.790
REMARK  Name = 
REMARK  7 active torsions:
REMARK  status: ('A' for Active; 'I' for Inactive)
REMARK    1  A    between atoms: C_1  and  C_2
REMARK    2  A    between atoms: C_2  and  C_3
REMARK    3  A    between atoms: C_2  and  N_9
REMARK    4  A    between atoms: C_3  and  N_4
REMARK    5  A    between atoms: N_9  and  C_10
REMARK    6  A    between atoms: C_10  and  C_11
REMARK    7  A    between atoms: C_14  and  C_15
REMARK                            x       y       z     vdW  Elec       q    Type
REMARK                         _______ _______ _______ _____ _____    ______ ____
ROOT
ATOM      1  C   UNL     1       3.044   5.928  18.739  0.00  0.00    +0.000 C 
ENDROOT
BRANCH   1   2
ATOM      2  C   UNL     1       2.488   7.314  18.802  0.00  0.00    +0.000 A 
ATOM      3  C   UNL     1       2.529   8.241  17.779  0.00  0.00    +0.000 A 
ATOM      4  S   UNL     1       1.656   9.636  18.215  0.00  0.00    +0.000 S 
ATOM      5  C   UNL     1       1.351   8.951  19.765  0.00  0.00    +0.000 A 
ATOM      6  N   UNL     1       1.845   7.744  19.955  0.00  0.00    +0.000 NA
BRANCH   5   7
ATOM      7  C   UNL     1       0.548   9.661  20.814  0.00  0.00    +0.000 A 
ATOM      8  C   UNL     1      -0.124  10.909  20.639  0.00  0.00    +0.000 A 
ATOM      9  C   UNL     1      -0.836  11.278  21.760  0.00  0.00    +0.000 A 
ATOM     10  S   UNL     1      -0.645  10.156  23.038  0.00  0.00    +0.000 S 
ATOM     11  C   UNL     1       0.365   9.153  22.082  0.00  0.00    +0.000 A 
ENDBRANCH   5   7
ENDBRANCH   1   2
BRANCH   1  12
ATOM     12  N   UNL     1       4.250   5.962  17.904  0.00  0.00    +0.000 NA
ATOM     13  H   UNL     1       3.957   6.216  16.959  0.00  0.00    +0.000 HD
BRANCH  12  15
ATOM     14  C   UNL     1       4.098   3.711  17.009  0.00  0.00    +0.000 C 
ATOM     15  C   UNL     1       4.950   4.659  17.864  0.00  0.00    +0.000 C 
BRANCH  15  16
ATOM     16  C   UNL     1       6.376   4.785  17.289  0.00  0.00    +0.000 C 
BRANCH  16  17
ATOM     17  N   UNL     1       7.043   6.019  17.643  0.00  0.00    +0.000 N 
ATOM     18  C   UNL     1       7.815   6.242  18.746  0.00  0.00    +0.000 A 
ATOM     19  C   UNL     1       8.274   7.531  18.629  0.00  0.00    +0.000 A 
ATOM     20  C   UNL     1       7.734   7.994  17.415  0.00  0.00    +0.000 A 
ATOM     21  N   UNL     1       6.992   7.070  16.806  0.00  0.00    +0.000 NA
ENDBRANCH  16  17
ENDBRANCH  15  16
ENDBRANCH  12  15
ENDBRANCH   1  12
TORSDOF 6
ENDMDL
MODEL 8
REMARK VINA RESULT:      -5.9      2.068      2.472
REMARK  Name = 
REMARK  7 active torsions:
REMARK  status: ('A' for Active; 'I' for Inactive)
REMARK    1  A    between atoms: C_1  and  C_2
REMARK    2  A    between atoms: C_2  and  C_3
REMARK    3  A    between atoms: C_2  and  N_9
REMARK    4  A    between atoms: C_3  and  N_4
REMARK    5  A    between atoms: N_9  and  C_10
REMARK    6  A    between atoms: C_10  and  C_11
REMARK    7  A    between atoms: C_14  and  C_15
REMARK                            x       y       z     vdW  Elec       q    Type
REMARK                         _______ _______ _______ _____ _____    ______ ____
ROOT
ATOM      1  C   UNL     1       3.123   6.713  18.624  0.00  0.00    +0.000 C 
ENDROOT
BRANCH   1   2
ATOM      2  C   UNL     1       2.175   7.629  19.328  0.00  0.00    +0.000 A 
ATOM      3  C   UNL     1       1.794   7.523  20.652  0.00  0.00    +0.000 A 
ATOM      4  S   UNL     1       0.818   8.849  21.089  0.00  0.00    +0.000 S 
ATOM      5  C   UNL     1       0.898   9.431  19.470  0.00  0.00    +0.000 A 
ATOM      6  N   UNL     1       1.624   8.704  18.644  0.00  0.00    +0.000 NA
BRANCH   5   7
ATOM      7  C   UNL     1       0.220  10.697  19.037  0.00  0.00    +0.000 A 
ATOM      8  C   UNL     1      -1.078  10.783  18.449  0.00  0.00    +0.000 A 
ATOM      9  C   UNL     1      -1.460  12.088  18.221  0.00  0.00    +0.000 A 
ATOM     10  S   UNL     1      -0.233  13.199  18.655  0.00  0.00    +0.000 S 
ATOM     11  C   UNL     1       0.801  11.940  19.184  0.00  0.00    +0.000 A 
ENDBRANCH   5   7
ENDBRANCH   1   2
BRANCH   1  12
ATOM     12  N   UNL     1       3.758   5.856  19.633  0.00  0.00    +0.000 NA
ATOM     13  H   UNL     1       4.335   6.459  20.221  0.00  0.00    +0.000 HD
BRANCH  12  15
ATOM     14  C   UNL     1       6.067   5.242  19.206  0.00  0.00    +0.000 C 
ATOM     15  C   UNL     1       4.607   4.804  19.030  0.00  0.00    +0.000 C 
BRANCH  15  16
ATOM     16  C   UNL     1       4.366   3.425  19.678  0.00  0.00    +0.000 C 
BRANCH  16  17
ATOM     17  N   UNL     1       2.997   3.204  20.093  0.00  0.00    +0.000 N 
ATOM     18  C   UNL     1       2.565   2.893  21.350  0.00  0.00    +0.000 A 
ATOM     19  C   UNL     1       1.195   2.834  21.273  0.00  0.00    +0.000 A 
ATOM     20  C   UNL     1       0.900   3.139  19.931  0.00  0.00    +0.000 A 
ATOM     21  N   UNL     1       1.997   3.375  19.212  0.00  0.00    +0.000 NA
ENDBRANCH  16  17
ENDBRANCH  15  16
ENDBRANCH  12  15
ENDBRANCH   1  12
TORSDOF 6
ENDMDL
MODEL 9
REMARK VINA RESULT:      -5.9      0.593      1.012
REMARK  Name = 
REMARK  7 active torsions:
REMARK  status: ('A' for Active; 'I' for Inactive)
REMARK    1  A    between atoms: C_1  and  C_2
REMARK    2  A    between atoms: C_2  and  C_3
REMARK    3  A    between atoms: C_2  and  N_9
REMARK    4  A    between atoms: C_3  and  N_4
REMARK    5  A    between atoms: N_9  and  C_10
REMARK    6  A    between atoms: C_10  and  C_11
REMARK    7  A    between atoms: C_14  and  C_15
REMARK                            x       y       z     vdW  Elec       q    Type
REMARK                         _______ _______ _______ _____ _____    ______ ____
ROOT
ATOM      1  C   UNL     1       2.929   6.396  19.202  0.00  0.00    +0.000 C 
ENDROOT
BRANCH   1   2
ATOM      2  C   UNL     1       2.247   7.721  19.087  0.00  0.00    +0.000 A 
ATOM      3  C   UNL     1       2.171   8.486  17.939  0.00  0.00    +0.000 A 
ATOM      4  S   UNL     1       1.183   9.847  18.205  0.00  0.00    +0.000 S 
ATOM      5  C   UNL     1       0.989   9.374  19.850  0.00  0.00    +0.000 A 
ATOM      6  N   UNL     1       1.600   8.258  20.192  0.00  0.00    +0.000 NA
BRANCH   5   7
ATOM      7  C   UNL     1       0.153  10.159  20.817  0.00  0.00    +0.000 A 
ATOM      8  C   UNL     1      -0.579  11.345  20.508  0.00  0.00    +0.000 A 
ATOM      9  C   UNL     1      -1.308  11.802  21.586  0.00  0.00    +0.000 A 
ATOM     10  S   UNL     1      -1.059  10.841  22.980  0.00  0.00    +0.000 S 
ATOM     11  C   UNL     1      -0.003   9.787  22.136  0.00  0.00    +0.000 A 
ENDBRANCH   5   7
ENDBRANCH   1   2
BRANCH   1  12
ATOM     12  N   UNL     1       2.689   5.654  17.959  0.00  0.00    +0.000 NA
ATOM     13  H   UNL     1       2.018   4.915  18.173  0.00  0.00    +0.000 HD
BRANCH  12  15
ATOM     14  C   UNL     1       5.111   5.797  18.033  0.00  0.00    +0.000 C 
ATOM     15  C   UNL     1       3.924   5.048  17.412  0.00  0.00    +0.000 C 
BRANCH  15  16
ATOM     16  C   UNL     1       4.010   3.537  17.712  0.00  0.00    +0.000 C 
BRANCH  16  17
ATOM     17  N   UNL     1       2.882   3.024  18.459  0.00  0.00    +0.000 N 
ATOM     18  C   UNL     1       2.858   2.708  19.786  0.00  0.00    +0.000 A 
ATOM     19  C   UNL     1       1.570   2.316  20.056  0.00  0.00    +0.000 A 
ATOM     20  C   UNL     1       0.893   2.445  18.829  0.00  0.00    +0.000 A 
ATOM     21  N   UNL     1       1.688   2.887  17.856  0.00  0.00    +0.000 NA
ENDBRANCH  16  17
ENDBRANCH  15  16
ENDBRANCH  12  15
ENDBRANCH   1  12
TORSDOF 6
ENDMDL
