MODEL 1
REMARK VINA RESULT:      -7.4      0.000      0.000
REMARK  Name = 
REMARK  6 active torsions:
REMARK  status: ('A' for Active; 'I' for Inactive)
REMARK    1  A    between atoms: C_1  and  N_2
REMARK    2  A    between atoms: N_2  and  C_3
REMARK    3  A    between atoms: C_8  and  N_9
REMARK    4  A    between atoms: C_12  and  O_13
REMARK    5  A    between atoms: N_18  and  C_19
REMARK    6  A    between atoms: C_19  and  C_20
REMARK                            x       y       z     vdW  Elec       q    Type
REMARK                         _______ _______ _______ _____ _____    ______ ____
ROOT
ATOM      1  C   UNL     1       3.853   1.757  19.920  0.00  0.00    +0.000 C 
ATOM      2  N   UNL     1       3.334   2.819  20.764  0.00  0.00    +0.000 N 
ATOM      3  C   UNL     1       2.184   2.505  21.598  0.00  0.00    +0.000 C 
ATOM      4  C   UNL     1       3.259   4.071  20.130  0.00  0.00    +0.000 A 
ATOM      5  N   UNL     1       2.363   4.957  20.578  0.00  0.00    +0.000 NA
ATOM      6  C   UNL     1       2.264   6.142  19.941  0.00  0.00    +0.000 A 
ATOM      7  C   UNL     1       3.028   6.463  18.833  0.00  0.00    +0.000 A 
ATOM      8  C   UNL     1       3.969   5.509  18.441  0.00  0.00    +0.000 A 
ATOM      9  N   UNL     1       4.076   4.333  19.097  0.00  0.00    +0.000 NA
ATOM     10  C   UNL     1       2.939   7.850  18.255  0.00  0.00    +0.000 C 
ATOM     11  N   UNL     1       1.718   8.634  18.592  0.00  0.00    +0.000 NA
ATOM     12  C   UNL     1       1.495   8.558  20.040  0.00  0.00    +0.000 C 
ATOM     13  C   UNL     1       1.237   7.106  20.469  0.00  0.00    +0.000 C 
ENDROOT
BRANCH   8  14
ATOM     14  N   UNL     1       4.864   5.735  17.397  0.00  0.00    +0.000 N 
ATOM     15  C   UNL     1       6.196   6.269  17.700  0.00  0.00    +0.000 C 
ATOM     16  C   UNL     1       7.309   5.283  17.347  0.00  0.00    +0.000 C 
ATOM     17  C   UNL     1       7.154   4.713  15.944  0.00  0.00    +0.000 C 
ATOM     18  C   UNL     1       5.778   4.102  15.764  0.00  0.00    +0.000 C 
ATOM     19  C   UNL     1       4.661   5.068  16.115  0.00  0.00    +0.000 C 
BRANCH  17  20
ATOM     20  O   UNL     1       7.406   5.701  14.945  0.00  0.00    +0.000 OA
ATOM     21  H   UNL     1       8.265   5.523  14.527  0.00  0.00    +0.000 HD
ENDBRANCH  17  20
ENDBRANCH   8  14
BRANCH  11  22
ATOM     22  C   UNL     1       1.932  10.009  18.079  0.00  0.00    +0.000 C 
BRANCH  22  23
ATOM     23  C   UNL     1       1.596  11.207  18.980  0.00  0.00    +0.000 C 
ATOM     24  C   UNL     1       0.127  11.574  19.085  0.00  0.00    +0.000 C 
ATOM     25  C   UNL     1      -0.031  12.791  18.198  0.00  0.00    +0.000 C 
ATOM     26  O   UNL     1       1.237  13.444  18.171  0.00  0.00    +0.000 OA
ATOM     27  C   UNL     1       2.253  12.474  18.421  0.00  0.00    +0.000 C 
ENDBRANCH  22  23
ENDBRANCH  11  22
TORSDOF 4
ENDMDL
MODEL 2
REMARK VINA RESULT:      -7.3      0.988      1.218
REMARK  Name = 
REMARK  6 active torsions:
REMARK  status: ('A' for Active; 'I' for Inactive)
REMARK    1  A    between atoms: C_1  and  N_2
REMARK    2  A    between atoms: N_2  and  C_3
REMARK    3  A    between atoms: C_8  and  N_9
REMARK    4  A    between atoms: C_12  and  O_13
REMARK    5  A    between atoms: N_18  and  C_19
REMARK    6  A    between atoms: C_19  and  C_20
REMARK                            x       y       z     vdW  Elec       q    Type
REMARK                         _______ _______ _______ _____ _____    ______ ____
ROOT
ATOM      1  C   UNL     1       3.989   1.609  19.787  0.00  0.00    +0.000 C 
ATOM      2  N   UNL     1       3.473   2.644  20.665  0.00  0.00    +0.000 N 
ATOM      3  C   UNL     1       2.326   2.303  21.494  0.00  0.00    +0.000 C 
ATOM      4  C   UNL     1       3.394   3.914  20.071  0.00  0.00    +0.000 A 
ATOM      5  N   UNL     1       2.499   4.785  20.549  0.00  0.00    +0.000 NA
ATOM      6  C   UNL     1       2.397   5.989  19.949  0.00  0.00    +0.000 A 
ATOM      7  C   UNL     1       3.156   6.345  18.849  0.00  0.00    +0.000 A 
ATOM      8  C   UNL     1       4.096   5.404  18.423  0.00  0.00    +0.000 A 
ATOM      9  N   UNL     1       4.207   4.209  19.042  0.00  0.00    +0.000 NA
ATOM     10  C   UNL     1       3.064   7.749  18.314  0.00  0.00    +0.000 C 
ATOM     11  N   UNL     1       1.844   8.521  18.680  0.00  0.00    +0.000 NA
ATOM     12  C   UNL     1       1.627   8.401  20.126  0.00  0.00    +0.000 C 
ATOM     13  C   UNL     1       1.372   6.936  20.511  0.00  0.00    +0.000 C 
ENDROOT
BRANCH   8  14
ATOM     14  N   UNL     1       4.987   5.663  17.383  0.00  0.00    +0.000 N 
ATOM     15  C   UNL     1       6.365   6.051  17.702  0.00  0.00    +0.000 C 
ATOM     16  C   UNL     1       7.384   5.019  17.220  0.00  0.00    +0.000 C 
ATOM     17  C   UNL     1       7.154   4.612  15.770  0.00  0.00    +0.000 C 
ATOM     18  C   UNL     1       5.728   4.138  15.568  0.00  0.00    +0.000 C 
ATOM     19  C   UNL     1       4.704   5.151  16.046  0.00  0.00    +0.000 C 
BRANCH  17  20
ATOM     20  O   UNL     1       7.469   5.674  14.870  0.00  0.00    +0.000 OA
ATOM     21  H   UNL     1       7.232   6.522  15.281  0.00  0.00    +0.000 HD
ENDBRANCH  17  20
ENDBRANCH   8  14
BRANCH  11  22
ATOM     22  C   UNL     1       2.055   9.911  18.209  0.00  0.00    +0.000 C 
BRANCH  22  23
ATOM     23  C   UNL     1       0.855  10.866  18.125  0.00  0.00    +0.000 C 
ATOM     24  C   UNL     1       0.658  11.798  19.307  0.00  0.00    +0.000 C 
ATOM     25  C   UNL     1      -0.479  11.185  20.097  0.00  0.00    +0.000 C 
ATOM     26  O   UNL     1      -1.274  10.452  19.167  0.00  0.00    +0.000 OA
ATOM     27  C   UNL     1      -0.446  10.057  18.073  0.00  0.00    +0.000 C 
ENDBRANCH  22  23
ENDBRANCH  11  22
TORSDOF 4
ENDMDL
MODEL 3
REMARK VINA RESULT:      -6.9      2.875      4.915
REMARK  Name = 
REMARK  6 active torsions:
REMARK  status: ('A' for Active; 'I' for Inactive)
REMARK    1  A    between atoms: C_1  and  N_2
REMARK    2  A    between atoms: N_2  and  C_3
REMARK    3  A    between atoms: C_8  and  N_9
REMARK    4  A    between atoms: C_12  and  O_13
REMARK    5  A    between atoms: N_18  and  C_19
REMARK    6  A    between atoms: C_19  and  C_20
REMARK                            x       y       z     vdW  Elec       q    Type
REMARK                         _______ _______ _______ _____ _____    ______ ____
ROOT
ATOM      1  C   UNL     1       5.826   4.338  16.878  0.00  0.00    +0.000 C 
ATOM      2  N   UNL     1       4.997   5.392  16.322  0.00  0.00    +0.000 N 
ATOM      3  C   UNL     1       5.646   6.361  15.451  0.00  0.00    +0.000 C 
ATOM      4  C   UNL     1       4.097   5.959  17.240  0.00  0.00    +0.000 A 
ATOM      5  N   UNL     1       3.680   7.212  17.030  0.00  0.00    +0.000 NA
ATOM      6  C   UNL     1       2.849   7.768  17.935  0.00  0.00    +0.000 A 
ATOM      7  C   UNL     1       2.436   7.107  19.078  0.00  0.00    +0.000 A 
ATOM      8  C   UNL     1       2.877   5.790  19.217  0.00  0.00    +0.000 A 
ATOM      9  N   UNL     1       3.693   5.234  18.296  0.00  0.00    +0.000 NA
ATOM     10  C   UNL     1       1.415   7.756  19.974  0.00  0.00    +0.000 C 
ATOM     11  N   UNL     1       1.264   9.232  19.852  0.00  0.00    +0.000 NA
ATOM     12  C   UNL     1       1.137   9.575  18.431  0.00  0.00    +0.000 C 
ATOM     13  C   UNL     1       2.411   9.182  17.667  0.00  0.00    +0.000 C 
ENDROOT
BRANCH   8  14
ATOM     14  N   UNL     1       2.470   4.978  20.274  0.00  0.00    +0.000 N 
ATOM     15  C   UNL     1       1.037   4.739  20.480  0.00  0.00    +0.000 C 
ATOM     16  C   UNL     1       0.662   3.270  20.288  0.00  0.00    +0.000 C 
ATOM     17  C   UNL     1       1.583   2.332  21.057  0.00  0.00    +0.000 C 
ATOM     18  C   UNL     1       3.034   2.598  20.702  0.00  0.00    +0.000 C 
ATOM     19  C   UNL     1       3.420   4.054  20.883  0.00  0.00    +0.000 C 
BRANCH  17  20
ATOM     20  O   UNL     1       1.379   2.432  22.465  0.00  0.00    +0.000 OA
ATOM     21  H   UNL     1       2.149   2.864  22.871  0.00  0.00    +0.000 HD
ENDBRANCH  17  20
ENDBRANCH   8  14
BRANCH  11  22
ATOM     22  C   UNL     1       0.095   9.617  20.678  0.00  0.00    +0.000 C 
BRANCH  22  23
ATOM     23  C   UNL     1       0.316  10.449  21.951  0.00  0.00    +0.000 C 
ATOM     24  C   UNL     1      -0.554  10.093  23.142  0.00  0.00    +0.000 C 
ATOM     25  C   UNL     1      -1.615  11.174  23.182  0.00  0.00    +0.000 C 
ATOM     26  O   UNL     1      -1.039  12.333  22.584  0.00  0.00    +0.000 OA
ATOM     27  C   UNL     1      -0.021  11.918  21.673  0.00  0.00    +0.000 C 
ENDBRANCH  22  23
ENDBRANCH  11  22
TORSDOF 4
ENDMDL
MODEL 4
REMARK VINA RESULT:      -6.3      2.445      6.031
REMARK  Name = 
REMARK  6 active torsions:
REMARK  status: ('A' for Active; 'I' for Inactive)
REMARK    1  A    between atoms: C_1  and  N_2
REMARK    2  A    between atoms: N_2  and  C_3
REMARK    3  A    between atoms: C_8  and  N_9
REMARK    4  A    between atoms: C_12  and  O_13
REMARK    5  A    between atoms: N_18  and  C_19
REMARK    6  A    between atoms: C_19  and  C_20
REMARK                            x       y       z     vdW  Elec       q    Type
REMARK                         _______ _______ _______ _____ _____    ______ ____
ROOT
ATOM      1  C   UNL     1       2.440  10.856  17.787  0.00  0.00    +0.000 C 
ATOM      2  N   UNL     1       1.578   9.837  18.356  0.00  0.00    +0.000 N 
ATOM      3  C   UNL     1       0.742  10.224  19.483  0.00  0.00    +0.000 C 
ATOM      4  C   UNL     1       2.191   8.581  18.501  0.00  0.00    +0.000 A 
ATOM      5  N   UNL     1       1.724   7.751  19.441  0.00  0.00    +0.000 NA
ATOM      6  C   UNL     1       2.343   6.563  19.606  0.00  0.00    +0.000 A 
ATOM      7  C   UNL     1       3.449   6.185  18.868  0.00  0.00    +0.000 A 
ATOM      8  C   UNL     1       3.862   7.081  17.880  0.00  0.00    +0.000 A 
ATOM      9  N   UNL     1       3.225   8.260  17.706  0.00  0.00    +0.000 NA
ATOM     10  C   UNL     1       4.005   4.796  19.033  0.00  0.00    +0.000 C 
ATOM     11  N   UNL     1       3.649   4.083  20.292  0.00  0.00    +0.000 NA
ATOM     12  C   UNL     1       2.201   4.193  20.501  0.00  0.00    +0.000 C 
ATOM     13  C   UNL     1       1.794   5.663  20.679  0.00  0.00    +0.000 C 
ENDROOT
BRANCH   8  14
ATOM     14  N   UNL     1       4.907   6.793  17.004  0.00  0.00    +0.000 N 
ATOM     15  C   UNL     1       6.281   7.128  17.397  0.00  0.00    +0.000 C 
ATOM     16  C   UNL     1       7.158   5.886  17.550  0.00  0.00    +0.000 C 
ATOM     17  C   UNL     1       7.046   4.947  16.355  0.00  0.00    +0.000 C 
ATOM     18  C   UNL     1       5.597   4.588  16.093  0.00  0.00    +0.000 C 
ATOM     19  C   UNL     1       4.711   5.811  15.943  0.00  0.00    +0.000 C 
BRANCH  17  20
ATOM     20  O   UNL     1       7.650   5.506  15.189  0.00  0.00    +0.000 OA
ATOM     21  H   UNL     1       8.335   4.900  14.862  0.00  0.00    +0.000 HD
ENDBRANCH  17  20
ENDBRANCH   8  14
BRANCH  11  22
ATOM     22  C   UNL     1       4.142   2.691  20.154  0.00  0.00    +0.000 C 
BRANCH  22  23
ATOM     23  C   UNL     1       3.397   1.720  19.226  0.00  0.00    +0.000 C 
ATOM     24  C   UNL     1       3.660   1.880  17.740  0.00  0.00    +0.000 C 
ATOM     25  C   UNL     1       2.436   2.594  17.205  0.00  0.00    +0.000 C 
ATOM     26  O   UNL     1       1.355   2.255  18.072  0.00  0.00    +0.000 OA
ATOM     27  C   UNL     1       1.885   1.936  19.358  0.00  0.00    +0.000 C 
ENDBRANCH  22  23
ENDBRANCH  11  22
TORSDOF 4
ENDMDL
MODEL 5
REMARK VINA RESULT:      -6.3      2.527      4.651
REMARK  Name = 
REMARK  6 active torsions:
REMARK  status: ('A' for Active; 'I' for Inactive)
REMARK    1  A    between atoms: C_1  and  N_2
REMARK    2  A    between atoms: N_2  and  C_3
REMARK    3  A    between atoms: C_8  and  N_9
REMARK    4  A    between atoms: C_12  and  O_13
REMARK    5  A    between atoms: N_18  and  C_19
REMARK    6  A    between atoms: C_19  and  C_20
REMARK                            x       y       z     vdW  Elec       q    Type
REMARK                         _______ _______ _______ _____ _____    ______ ____
ROOT
ATOM      1  C   UNL     1       5.838   4.393  17.412  0.00  0.00    +0.000 C 
ATOM      2  N   UNL     1       5.107   5.476  16.778  0.00  0.00    +0.000 N 
ATOM      3  C   UNL     1       5.879   6.445  16.016  0.00  0.00    +0.000 C 
ATOM      4  C   UNL     1       4.110   6.046  17.588  0.00  0.00    +0.000 A 
ATOM      5  N   UNL     1       3.748   7.313  17.353  0.00  0.00    +0.000 NA
ATOM      6  C   UNL     1       2.821   7.870  18.159  0.00  0.00    +0.000 A 
ATOM      7  C   UNL     1       2.255   7.199  19.227  0.00  0.00    +0.000 A 
ATOM      8  C   UNL     1       2.648   5.870  19.393  0.00  0.00    +0.000 A 
ATOM      9  N   UNL     1       3.562   5.311  18.570  0.00  0.00    +0.000 NA
ATOM     10  C   UNL     1       1.142   7.853  20.002  0.00  0.00    +0.000 C 
ATOM     11  N   UNL     1       1.038   9.335  19.892  0.00  0.00    +0.000 NA
ATOM     12  C   UNL     1       1.098   9.707  18.474  0.00  0.00    +0.000 C 
ATOM     13  C   UNL     1       2.449   9.299  17.868  0.00  0.00    +0.000 C 
ENDROOT
BRANCH   8  14
ATOM     14  N   UNL     1       2.095   5.048  20.373  0.00  0.00    +0.000 N 
ATOM     15  C   UNL     1       0.748   4.503  20.172  0.00  0.00    +0.000 C 
ATOM     16  C   UNL     1       0.750   2.979  20.061  0.00  0.00    +0.000 C 
ATOM     17  C   UNL     1       1.545   2.318  21.179  0.00  0.00    +0.000 C 
ATOM     18  C   UNL     1       2.951   2.884  21.241  0.00  0.00    +0.000 C 
ATOM     19  C   UNL     1       2.966   4.398  21.347  0.00  0.00    +0.000 C 
BRANCH  17  20
ATOM     20  O   UNL     1       0.889   2.450  22.440  0.00  0.00    +0.000 OA
ATOM     21  H   UNL     1       0.942   1.605  22.918  0.00  0.00    +0.000 HD
ENDBRANCH  17  20
ENDBRANCH   8  14
BRANCH  11  22
ATOM     22  C   UNL     1      -0.218   9.731  20.574  0.00  0.00    +0.000 C 
BRANCH  22  23
ATOM     23  C   UNL     1      -0.398  11.188  21.027  0.00  0.00    +0.000 C 
ATOM     24  C   UNL     1      -1.359  12.029  20.208  0.00  0.00    +0.000 C 
ATOM     25  C   UNL     1      -0.470  12.899  19.343  0.00  0.00    +0.000 C 
ATOM     26  O   UNL     1       0.758  13.058  20.051  0.00  0.00    +0.000 OA
ATOM     27  C   UNL     1       0.936  11.934  20.912  0.00  0.00    +0.000 C 
ENDBRANCH  22  23
ENDBRANCH  11  22
TORSDOF 4
ENDMDL
MODEL 6
REMARK VINA RESULT:      -6.1      2.784      4.942
REMARK  Name = 
REMARK  6 active torsions:
REMARK  status: ('A' for Active; 'I' for Inactive)
REMARK    1  A    between atoms: C_1  and  N_2
REMARK    2  A    between atoms: N_2  and  C_3
REMARK    3  A    between atoms: C_8  and  N_9
REMARK    4  A    between atoms: C_12  and  O_13
REMARK    5  A    between atoms: N_18  and  C_19
REMARK    6  A    between atoms: C_19  and  C_20
REMARK                            x       y       z     vdW  Elec       q    Type
REMARK                         _______ _______ _______ _____ _____    ______ ____
ROOT
ATOM      1  C   UNL     1       6.297   3.594  15.822  0.00  0.00    +0.000 C 
ATOM      2  N   UNL     1       5.506   4.769  15.506  0.00  0.00    +0.000 N 
ATOM      3  C   UNL     1       6.176   5.855  14.805  0.00  0.00    +0.000 C 
ATOM      4  C   UNL     1       4.664   5.192  16.547  0.00  0.00    +0.000 A 
ATOM      5  N   UNL     1       4.305   6.480  16.591  0.00  0.00    +0.000 NA
ATOM      6  C   UNL     1       3.531   6.892  17.617  0.00  0.00    +0.000 A 
ATOM      7  C   UNL     1       3.120   6.047  18.632  0.00  0.00    +0.000 A 
ATOM      8  C   UNL     1       3.498   4.709  18.505  0.00  0.00    +0.000 A 
ATOM      9  N   UNL     1       4.256   4.300  17.465  0.00  0.00    +0.000 NA
ATOM     10  C   UNL     1       2.161   6.559  19.673  0.00  0.00    +0.000 C 
ATOM     11  N   UNL     1       2.081   8.038  19.834  0.00  0.00    +0.000 NA
ATOM     12  C   UNL     1       1.929   8.647  18.508  0.00  0.00    +0.000 C 
ATOM     13  C   UNL     1       3.157   8.349  17.635  0.00  0.00    +0.000 C 
ENDROOT
BRANCH   8  14
ATOM     14  N   UNL     1       3.082   3.731  19.408  0.00  0.00    +0.000 N 
ATOM     15  C   UNL     1       3.603   3.757  20.779  0.00  0.00    +0.000 C 
ATOM     16  C   UNL     1       2.505   4.008  21.811  0.00  0.00    +0.000 C 
ATOM     17  C   UNL     1       1.298   3.103  21.604  0.00  0.00    +0.000 C 
ATOM     18  C   UNL     1       0.778   3.222  20.184  0.00  0.00    +0.000 C 
ATOM     19  C   UNL     1       1.859   2.980  19.146  0.00  0.00    +0.000 C 
BRANCH  17  20
ATOM     20  O   UNL     1       1.597   1.745  21.922  0.00  0.00    +0.000 OA
ATOM     21  H   UNL     1       1.045   1.159  21.379  0.00  0.00    +0.000 HD
ENDBRANCH  17  20
ENDBRANCH   8  14
BRANCH  11  22
ATOM     22  C   UNL     1       0.959   8.312  20.763  0.00  0.00    +0.000 C 
BRANCH  22  23
ATOM     23  C   UNL     1       0.983   9.591  21.613  0.00  0.00    +0.000 C 
ATOM     24  C   UNL     1       0.561   9.439  23.063  0.00  0.00    +0.000 C 
ATOM     25  C   UNL     1      -0.849   9.990  23.114  0.00  0.00    +0.000 C 
ATOM     26  O   UNL     1      -0.951  10.949  22.064  0.00  0.00    +0.000 OA
ATOM     27  C   UNL     1      -0.011  10.609  21.044  0.00  0.00    +0.000 C 
ENDBRANCH  22  23
ENDBRANCH  11  22
TORSDOF 4
ENDMDL
MODEL 7
REMARK VINA RESULT:      -6.1      2.892      5.008
REMARK  Name = 
REMARK  6 active torsions:
REMARK  status: ('A' for Active; 'I' for Inactive)
REMARK    1  A    between atoms: C_1  and  N_2
REMARK    2  A    between atoms: N_2  and  C_3
REMARK    3  A    between atoms: C_8  and  N_9
REMARK    4  A    between atoms: C_12  and  O_13
REMARK    5  A    between atoms: N_18  and  C_19
REMARK    6  A    between atoms: C_19  and  C_20
REMARK                            x       y       z     vdW  Elec       q    Type
REMARK                         _______ _______ _______ _____ _____    ______ ____
ROOT
ATOM      1  C   UNL     1       5.808   3.591  16.497  0.00  0.00    +0.000 C 
ATOM      2  N   UNL     1       5.082   4.722  15.947  0.00  0.00    +0.000 N 
ATOM      3  C   UNL     1       5.798   5.584  15.018  0.00  0.00    +0.000 C 
ATOM      4  C   UNL     1       4.298   5.414  16.885  0.00  0.00    +0.000 A 
ATOM      5  N   UNL     1       4.022   6.702  16.655  0.00  0.00    +0.000 NA
ATOM      6  C   UNL     1       3.305   7.375  17.579  0.00  0.00    +0.000 A 
ATOM      7  C   UNL     1       2.872   6.797  18.759  0.00  0.00    +0.000 A 
ATOM      8  C   UNL     1       3.163   5.441  18.919  0.00  0.00    +0.000 A 
ATOM      9  N   UNL     1       3.863   4.768  17.980  0.00  0.00    +0.000 NA
ATOM     10  C   UNL     1       1.978   7.584  19.679  0.00  0.00    +0.000 C 
ATOM     11  N   UNL     1       1.995   9.064  19.518  0.00  0.00    +0.000 NA
ATOM     12  C   UNL     1       1.843   9.384  18.094  0.00  0.00    +0.000 C 
ATOM     13  C   UNL     1       3.024   8.823  17.288  0.00  0.00    +0.000 C 
ENDROOT
BRANCH   8  14
ATOM     14  N   UNL     1       2.713   4.709  20.017  0.00  0.00    +0.000 N 
ATOM     15  C   UNL     1       1.270   4.581  20.248  0.00  0.00    +0.000 C 
ATOM     16  C   UNL     1       0.791   3.135  20.129  0.00  0.00    +0.000 C 
ATOM     17  C   UNL     1       1.655   2.171  20.932  0.00  0.00    +0.000 C 
ATOM     18  C   UNL     1       3.115   2.317  20.551  0.00  0.00    +0.000 C 
ATOM     19  C   UNL     1       3.605   3.750  20.659  0.00  0.00    +0.000 C 
BRANCH  17  20
ATOM     20  O   UNL     1       1.476   2.351  22.337  0.00  0.00    +0.000 OA
ATOM     21  H   UNL     1       2.162   2.953  22.672  0.00  0.00    +0.000 HD
ENDBRANCH  17  20
ENDBRANCH   8  14
BRANCH  11  22
ATOM     22  C   UNL     1       0.919   9.606  20.383  0.00  0.00    +0.000 C 
BRANCH  22  23
ATOM     23  C   UNL     1       0.544   8.858  21.671  0.00  0.00    +0.000 C 
ATOM     24  C   UNL     1      -0.897   8.992  22.127  0.00  0.00    +0.000 C 
ATOM     25  C   UNL     1      -0.849   9.983  23.271  0.00  0.00    +0.000 C 
ATOM     26  O   UNL     1       0.452   9.880  23.847  0.00  0.00    +0.000 OA
ATOM     27  C   UNL     1       1.356   9.413  22.846  0.00  0.00    +0.000 C 
ENDBRANCH  22  23
ENDBRANCH  11  22
TORSDOF 4
ENDMDL
MODEL 8
REMARK VINA RESULT:      -5.8      6.162      9.764
REMARK  Name = 
REMARK  6 active torsions:
REMARK  status: ('A' for Active; 'I' for Inactive)
REMARK    1  A    between atoms: C_1  and  N_2
REMARK    2  A    between atoms: N_2  and  C_3
REMARK    3  A    between atoms: C_8  and  N_9
REMARK    4  A    between atoms: C_12  and  O_13
REMARK    5  A    between atoms: N_18  and  C_19
REMARK    6  A    between atoms: C_19  and  C_20
REMARK                            x       y       z     vdW  Elec       q    Type
REMARK                         _______ _______ _______ _____ _____    ______ ____
ROOT
ATOM      1  C   UNL     1       3.243  14.011  21.215  0.00  0.00    +0.000 C 
ATOM      2  N   UNL     1       2.113  14.919  21.305  0.00  0.00    +0.000 N 
ATOM      3  C   UNL     1       2.362  16.239  21.865  0.00  0.00    +0.000 C 
ATOM      4  C   UNL     1       0.928  14.317  21.760  0.00  0.00    +0.000 A 
ATOM      5  N   UNL     1       0.016  15.087  22.364  0.00  0.00    +0.000 NA
ATOM      6  C   UNL     1      -1.102  14.498  22.837  0.00  0.00    +0.000 A 
ATOM      7  C   UNL     1      -1.327  13.136  22.749  0.00  0.00    +0.000 A 
ATOM      8  C   UNL     1      -0.353  12.397  22.075  0.00  0.00    +0.000 A 
ATOM      9  N   UNL     1       0.754  12.997  21.586  0.00  0.00    +0.000 NA
ATOM     10  C   UNL     1      -2.652  12.579  23.196  0.00  0.00    +0.000 C 
ATOM     11  N   UNL     1      -3.448  13.423  24.129  0.00  0.00    +0.000 NA
ATOM     12  C   UNL     1      -3.507  14.788  23.595  0.00  0.00    +0.000 C 
ATOM     13  C   UNL     1      -2.098  15.396  23.518  0.00  0.00    +0.000 C 
ENDROOT
BRANCH   8  14
ATOM     14  N   UNL     1      -0.491  11.031  21.836  0.00  0.00    +0.000 N 
ATOM     15  C   UNL     1      -0.530  10.548  20.451  0.00  0.00    +0.000 C 
ATOM     16  C   UNL     1       0.661   9.651  20.116  0.00  0.00    +0.000 C 
ATOM     17  C   UNL     1       0.882   8.568  21.164  0.00  0.00    +0.000 C 
ATOM     18  C   UNL     1       1.003   9.179  22.547  0.00  0.00    +0.000 C 
ATOM     19  C   UNL     1      -0.170  10.077  22.892  0.00  0.00    +0.000 C 
BRANCH  17  20
ATOM     20  O   UNL     1      -0.154   7.586  21.132  0.00  0.00    +0.000 OA
ATOM     21  H   UNL     1       0.232   6.708  21.284  0.00  0.00    +0.000 HD
ENDBRANCH  17  20
ENDBRANCH   8  14
BRANCH  11  22
ATOM     22  C   UNL     1      -4.771  12.771  24.281  0.00  0.00    +0.000 C 
BRANCH  22  23
ATOM     23  C   UNL     1      -5.961  13.287  23.459  0.00  0.00    +0.000 C 
ATOM     24  C   UNL     1      -7.339  13.028  24.041  0.00  0.00    +0.000 C 
ATOM     25  C   UNL     1      -7.886  11.868  23.236  0.00  0.00    +0.000 C 
ATOM     26  O   UNL     1      -7.256  11.924  21.958  0.00  0.00    +0.000 OA
ATOM     27  C   UNL     1      -5.996  12.579  22.100  0.00  0.00    +0.000 C 
ENDBRANCH  22  23
ENDBRANCH  11  22
TORSDOF 4
ENDMDL
MODEL 9
REMARK VINA RESULT:      -5.8      6.824     10.430
REMARK  Name = 
REMARK  6 active torsions:
REMARK  status: ('A' for Active; 'I' for Inactive)
REMARK    1  A    between atoms: C_1  and  N_2
REMARK    2  A    between atoms: N_2  and  C_3
REMARK    3  A    between atoms: C_8  and  N_9
REMARK    4  A    between atoms: C_12  and  O_13
REMARK    5  A    between atoms: N_18  and  C_19
REMARK    6  A    between atoms: C_19  and  C_20
REMARK                            x       y       z     vdW  Elec       q    Type
REMARK                         _______ _______ _______ _____ _____    ______ ____
ROOT
ATOM      1  C   UNL     1       4.300  16.766  18.267  0.00  0.00    +0.000 C 
ATOM      2  N   UNL     1       4.320  15.365  18.650  0.00  0.00    +0.000 N 
ATOM      3  C   UNL     1       5.331  14.520  18.032  0.00  0.00    +0.000 C 
ATOM      4  C   UNL     1       3.049  14.774  18.731  0.00  0.00    +0.000 A 
ATOM      5  N   UNL     1       2.951  13.451  18.558  0.00  0.00    +0.000 NA
ATOM      6  C   UNL     1       1.724  12.892  18.594  0.00  0.00    +0.000 A 
ATOM      7  C   UNL     1       0.569  13.631  18.774  0.00  0.00    +0.000 A 
ATOM      8  C   UNL     1       0.744  15.000  18.986  0.00  0.00    +0.000 A 
ATOM      9  N   UNL     1       1.978  15.549  18.968  0.00  0.00    +0.000 NA
ATOM     10  C   UNL     1      -0.748  12.916  18.920  0.00  0.00    +0.000 C 
ATOM     11  N   UNL     1      -0.809  11.522  18.398  0.00  0.00    +0.000 NA
ATOM     12  C   UNL     1       0.352  10.780  18.903  0.00  0.00    +0.000 C 
ATOM     13  C   UNL     1       1.656  11.404  18.385  0.00  0.00    +0.000 C 
ENDROOT
BRANCH   8  14
ATOM     14  N   UNL     1      -0.323  15.851  19.267  0.00  0.00    +0.000 N 
ATOM     15  C   UNL     1      -0.774  15.997  20.655  0.00  0.00    +0.000 C 
ATOM     16  C   UNL     1      -0.574  17.417  21.183  0.00  0.00    +0.000 C 
ATOM     17  C   UNL     1      -1.108  18.472  20.223  0.00  0.00    +0.000 C 
ATOM     18  C   UNL     1      -0.509  18.291  18.842  0.00  0.00    +0.000 C 
ATOM     19  C   UNL     1      -0.696  16.883  18.306  0.00  0.00    +0.000 C 
BRANCH  17  20
ATOM     20  O   UNL     1      -2.533  18.455  20.164  0.00  0.00    +0.000 OA
ATOM     21  H   UNL     1      -2.889  18.323  21.059  0.00  0.00    +0.000 HD
ENDBRANCH  17  20
ENDBRANCH   8  14
BRANCH  11  22
ATOM     22  C   UNL     1      -2.118  10.963  18.812  0.00  0.00    +0.000 C 
BRANCH  22  23
ATOM     23  C   UNL     1      -2.963  10.193  17.787  0.00  0.00    +0.000 C 
ATOM     24  C   UNL     1      -2.291   9.882  16.463  0.00  0.00    +0.000 C 
ATOM     25  C   UNL     1      -2.871  10.888  15.490  0.00  0.00    +0.000 C 
ATOM     26  O   UNL     1      -4.166  11.229  15.979  0.00  0.00    +0.000 OA
ATOM     27  C   UNL     1      -4.185  11.029  17.392  0.00  0.00    +0.000 C 
ENDBRANCH  22  23
ENDBRANCH  11  22
TORSDOF 4
ENDMDL
