MODEL 1
REMARK VINA RESULT:      -7.5      0.000      0.000
REMARK  Name = 
REMARK  11 active torsions:
REMARK  status: ('A' for Active; 'I' for Inactive)
REMARK    1  A    between atoms: C_1  and  C_2
REMARK    2  A    between atoms: C_2  and  O_3
REMARK    3  A    between atoms: O_3  and  C_4
REMARK    4  A    between atoms: C_4  and  C_5
REMARK    5  A    between atoms: C_4  and  C_26
REMARK    6  A    between atoms: C_5  and  C_6
REMARK    7  A    between atoms: C_9  and  O_10
REMARK    8  A    between atoms: O_10  and  C_11
REMARK    9  A    between atoms: C_11  and  C_12
REMARK   10  A    between atoms: C_12  and  N_13
REMARK   11  A    between atoms: C_26  and  O_28
REMARK                            x       y       z     vdW  Elec       q    Type
REMARK                         _______ _______ _______ _____ _____    ______ ____
ROOT
ATOM      1  C   UNL     1       3.994   6.436  17.535  0.00  0.00    +0.000 A 
ATOM      2  C   UNL     1       3.234   7.596  17.717  0.00  0.00    +0.000 A 
ATOM      3  C   UNL     1       2.372   7.704  18.810  0.00  0.00    +0.000 A 
ATOM      4  C   UNL     1       2.257   6.668  19.751  0.00  0.00    +0.000 A 
ATOM      5  C   UNL     1       2.940   5.469  19.509  0.00  0.00    +0.000 A 
ATOM      6 CL   UNL     1       2.795   4.034  20.466  0.00  0.00    +0.000 Cl
ATOM      7  C   UNL     1       3.799   5.368  18.413  0.00  0.00    +0.000 A 
ENDROOT
BRANCH   1   8
ATOM      8  C   UNL     1       5.075   6.381  16.478  0.00  0.00    +0.000 C 
BRANCH   8   9
ATOM      9  C   UNL     1       6.492   6.267  17.076  0.00  0.00    +0.000 C 
BRANCH   9  10
ATOM     10  C   UNL     1       7.076   4.881  16.767  0.00  0.00    +0.000 C 
ATOM     11  O   UNL     1       7.506   4.534  15.678  0.00  0.00    +0.000 OA
BRANCH  10  12
ATOM     12  O   UNL     1       7.070   4.067  17.854  0.00  0.00    +0.000 OA
ATOM     13  H   UNL     1       7.152   3.137  17.536  0.00  0.00    +0.000 HD
ENDBRANCH  10  12
ENDBRANCH   9  10
BRANCH   9  14
ATOM     14  O   UNL     1       7.410   7.270  16.586  0.00  0.00    +0.000 OA
BRANCH  14  16
ATOM     15  C   UNL     1       8.308   7.352  18.806  0.00  0.00    +0.000 C 
ATOM     16  C   UNL     1       7.861   8.164  17.606  0.00  0.00    +0.000 C 
ENDBRANCH  14  16
ENDBRANCH   9  14
ENDBRANCH   8   9
ENDBRANCH   1   8
BRANCH   4  17
ATOM     17  O   UNL     1       1.444   6.980  20.807  0.00  0.00    +0.000 OA
BRANCH  17  18
ATOM     18  C   UNL     1       1.245   8.373  21.067  0.00  0.00    +0.000 C 
BRANCH  18  19
ATOM     19  C   UNL     1      -0.225   8.636  21.389  0.00  0.00    +0.000 C 
BRANCH  19  20
ATOM     20  N   UNL     1      -0.534  10.064  21.469  0.00  0.00    +0.000 N 
ATOM     21  C   UNL     1      -0.467  10.690  22.717  0.00  0.00    +0.000 C 
ATOM     22  O   UNL     1      -0.056  10.132  23.735  0.00  0.00    +0.000 OA
ATOM     23  C   UNL     1      -1.062  12.109  22.765  0.00  0.00    +0.000 C 
ATOM     24  O   UNL     1      -0.898  12.968  21.647  0.00  0.00    +0.000 OA
ATOM     25  C   UNL     1      -0.905  12.291  20.478  0.00  0.00    +0.000 A 
ATOM     26  C   UNL     1      -1.024  12.904  19.206  0.00  0.00    +0.000 A 
ATOM     27  C   UNL     1      -0.954  11.973  18.191  0.00  0.00    +0.000 A 
ATOM     28  S   UNL     1      -0.746  10.378  18.795  0.00  0.00    +0.000 S 
ATOM     29  C   UNL     1      -0.737  10.928  20.400  0.00  0.00    +0.000 A 
ENDBRANCH  19  20
ENDBRANCH  18  19
ENDBRANCH  17  18
ENDBRANCH   4  17
TORSDOF 10
ENDMDL
MODEL 2
REMARK VINA RESULT:      -7.3      1.077      1.156
REMARK  Name = 
REMARK  11 active torsions:
REMARK  status: ('A' for Active; 'I' for Inactive)
REMARK    1  A    between atoms: C_1  and  C_2
REMARK    2  A    between atoms: C_2  and  O_3
REMARK    3  A    between atoms: O_3  and  C_4
REMARK    4  A    between atoms: C_4  and  C_5
REMARK    5  A    between atoms: C_4  and  C_26
REMARK    6  A    between atoms: C_5  and  C_6
REMARK    7  A    between atoms: C_9  and  O_10
REMARK    8  A    between atoms: O_10  and  C_11
REMARK    9  A    between atoms: C_11  and  C_12
REMARK   10  A    between atoms: C_12  and  N_13
REMARK   11  A    between atoms: C_26  and  O_28
REMARK                            x       y       z     vdW  Elec       q    Type
REMARK                         _______ _______ _______ _____ _____    ______ ____
ROOT
ATOM      1  C   UNL     1       4.134   6.236  17.710  0.00  0.00    +0.000 A 
ATOM      2  C   UNL     1       3.391   7.421  17.733  0.00  0.00    +0.000 A 
ATOM      3  C   UNL     1       2.468   7.648  18.755  0.00  0.00    +0.000 A 
ATOM      4  C   UNL     1       2.274   6.711  19.783  0.00  0.00    +0.000 A 
ATOM      5  C   UNL     1       2.943   5.483  19.700  0.00  0.00    +0.000 A 
ATOM      6 CL   UNL     1       2.710   4.151  20.780  0.00  0.00    +0.000 Cl
ATOM      7  C   UNL     1       3.863   5.261  18.672  0.00  0.00    +0.000 A 
ENDROOT
BRANCH   1   8
ATOM      8  C   UNL     1       5.274   6.060  16.732  0.00  0.00    +0.000 C 
BRANCH   8   9
ATOM      9  C   UNL     1       6.646   5.940  17.426  0.00  0.00    +0.000 C 
BRANCH   9  10
ATOM     10  C   UNL     1       7.235   4.545  17.172  0.00  0.00    +0.000 C 
ATOM     11  O   UNL     1       8.266   4.123  17.674  0.00  0.00    +0.000 OA
BRANCH  10  12
ATOM     12  O   UNL     1       6.472   3.811  16.322  0.00  0.00    +0.000 OA
ATOM     13  H   UNL     1       6.325   4.348  15.508  0.00  0.00    +0.000 HD
ENDBRANCH  10  12
ENDBRANCH   9  10
BRANCH   9  14
ATOM     14  O   UNL     1       7.606   6.928  16.988  0.00  0.00    +0.000 OA
BRANCH  14  16
ATOM     15  C   UNL     1       8.449   8.806  18.215  0.00  0.00    +0.000 C 
ATOM     16  C   UNL     1       7.283   8.253  17.418  0.00  0.00    +0.000 C 
ENDBRANCH  14  16
ENDBRANCH   9  14
ENDBRANCH   8   9
ENDBRANCH   1   8
BRANCH   4  17
ATOM     17  O   UNL     1       1.408   7.138  20.752  0.00  0.00    +0.000 OA
BRANCH  17  18
ATOM     18  C   UNL     1       1.427   8.537  21.052  0.00  0.00    +0.000 C 
BRANCH  18  19
ATOM     19  C   UNL     1       0.012   9.106  20.968  0.00  0.00    +0.000 C 
BRANCH  19  20
ATOM     20  N   UNL     1      -0.038  10.533  21.286  0.00  0.00    +0.000 N 
ATOM     21  C   UNL     1      -0.484  10.917  22.553  0.00  0.00    +0.000 C 
ATOM     22  O   UNL     1      -0.734  10.118  23.456  0.00  0.00    +0.000 OA
ATOM     23  C   UNL     1      -0.763  12.423  22.715  0.00  0.00    +0.000 C 
ATOM     24  O   UNL     1       0.079  13.359  22.060  0.00  0.00    +0.000 OA
ATOM     25  C   UNL     1       0.528  12.897  20.872  0.00  0.00    +0.000 A 
ATOM     26  C   UNL     1       1.162  13.705  19.895  0.00  0.00    +0.000 A 
ATOM     27  C   UNL     1       1.555  12.957  18.805  0.00  0.00    +0.000 A 
ATOM     28  S   UNL     1       1.153  11.297  18.984  0.00  0.00    +0.000 S 
ATOM     29  C   UNL     1       0.468  11.571  20.512  0.00  0.00    +0.000 A 
ENDBRANCH  19  20
ENDBRANCH  18  19
ENDBRANCH  17  18
ENDBRANCH   4  17
TORSDOF 10
ENDMDL
MODEL 3
REMARK VINA RESULT:      -7.2      0.978      1.022
REMARK  Name = 
REMARK  11 active torsions:
REMARK  status: ('A' for Active; 'I' for Inactive)
REMARK    1  A    between atoms: C_1  and  C_2
REMARK    2  A    between atoms: C_2  and  O_3
REMARK    3  A    between atoms: O_3  and  C_4
REMARK    4  A    between atoms: C_4  and  C_5
REMARK    5  A    between atoms: C_4  and  C_26
REMARK    6  A    between atoms: C_5  and  C_6
REMARK    7  A    between atoms: C_9  and  O_10
REMARK    8  A    between atoms: O_10  and  C_11
REMARK    9  A    between atoms: C_11  and  C_12
REMARK   10  A    between atoms: C_12  and  N_13
REMARK   11  A    between atoms: C_26  and  O_28
REMARK                            x       y       z     vdW  Elec       q    Type
REMARK                         _______ _______ _______ _____ _____    ______ ____
ROOT
ATOM      1  C   UNL     1       4.026   6.459  17.289  0.00  0.00    +0.000 A 
ATOM      2  C   UNL     1       3.260   7.599  17.553  0.00  0.00    +0.000 A 
ATOM      3  C   UNL     1       2.493   7.672  18.716  0.00  0.00    +0.000 A 
ATOM      4  C   UNL     1       2.480   6.621  19.648  0.00  0.00    +0.000 A 
ATOM      5  C   UNL     1       3.166   5.442  19.331  0.00  0.00    +0.000 A 
ATOM      6 CL   UNL     1       3.134   3.991  20.275  0.00  0.00    +0.000 Cl
ATOM      7  C   UNL     1       3.929   5.374  18.163  0.00  0.00    +0.000 A 
ENDROOT
BRANCH   1   8
ATOM      8  C   UNL     1       5.013   6.441  16.143  0.00  0.00    +0.000 C 
BRANCH   8   9
ATOM      9  C   UNL     1       6.232   5.537  16.416  0.00  0.00    +0.000 C 
BRANCH   9  10
ATOM     10  C   UNL     1       6.349   4.476  15.312  0.00  0.00    +0.000 C 
ATOM     11  O   UNL     1       6.629   4.713  14.147  0.00  0.00    +0.000 OA
BRANCH  10  12
ATOM     12  O   UNL     1       6.113   3.222  15.777  0.00  0.00    +0.000 OA
ATOM     13  H   UNL     1       6.440   2.583  15.101  0.00  0.00    +0.000 HD
ENDBRANCH  10  12
ENDBRANCH   9  10
BRANCH   9  14
ATOM     14  O   UNL     1       7.483   6.258  16.493  0.00  0.00    +0.000 OA
BRANCH  14  16
ATOM     15  C   UNL     1       7.796   6.200  18.868  0.00  0.00    +0.000 C 
ATOM     16  C   UNL     1       7.584   7.085  17.655  0.00  0.00    +0.000 C 
ENDBRANCH  14  16
ENDBRANCH   9  14
ENDBRANCH   8   9
ENDBRANCH   1   8
BRANCH   4  17
ATOM     17  O   UNL     1       1.755   6.902  20.774  0.00  0.00    +0.000 OA
BRANCH  17  18
ATOM     18  C   UNL     1       0.791   7.954  20.666  0.00  0.00    +0.000 C 
BRANCH  18  19
ATOM     19  C   UNL     1       1.303   9.202  21.384  0.00  0.00    +0.000 C 
BRANCH  19  20
ATOM     20  N   UNL     1       0.244  10.178  21.634  0.00  0.00    +0.000 N 
ATOM     21  C   UNL     1      -0.268  10.288  22.930  0.00  0.00    +0.000 C 
ATOM     22  O   UNL     1       0.198   9.686  23.897  0.00  0.00    +0.000 OA
ATOM     23  C   UNL     1      -1.551  11.132  23.053  0.00  0.00    +0.000 C 
ATOM     24  O   UNL     1      -1.701  12.288  22.243  0.00  0.00    +0.000 OA
ATOM     25  C   UNL     1      -1.126  12.138  21.030  0.00  0.00    +0.000 A 
ATOM     26  C   UNL     1      -1.342  13.013  19.935  0.00  0.00    +0.000 A 
ATOM     27  C   UNL     1      -0.590  12.642  18.841  0.00  0.00    +0.000 A 
ATOM     28  S   UNL     1       0.362  11.248  19.156  0.00  0.00    +0.000 S 
ATOM     29  C   UNL     1      -0.217  11.146  20.748  0.00  0.00    +0.000 A 
ENDBRANCH  19  20
ENDBRANCH  18  19
ENDBRANCH  17  18
ENDBRANCH   4  17
TORSDOF 10
ENDMDL
MODEL 4
REMARK VINA RESULT:      -7.1      3.492      5.123
REMARK  Name = 
REMARK  11 active torsions:
REMARK  status: ('A' for Active; 'I' for Inactive)
REMARK    1  A    between atoms: C_1  and  C_2
REMARK    2  A    between atoms: C_2  and  O_3
REMARK    3  A    between atoms: O_3  and  C_4
REMARK    4  A    between atoms: C_4  and  C_5
REMARK    5  A    between atoms: C_4  and  C_26
REMARK    6  A    between atoms: C_5  and  C_6
REMARK    7  A    between atoms: C_9  and  O_10
REMARK    8  A    between atoms: O_10  and  C_11
REMARK    9  A    between atoms: C_11  and  C_12
REMARK   10  A    between atoms: C_12  and  N_13
REMARK   11  A    between atoms: C_26  and  O_28
REMARK                            x       y       z     vdW  Elec       q    Type
REMARK                         _______ _______ _______ _____ _____    ______ ____
ROOT
ATOM      1  C   UNL     1       2.527   6.886  19.258  0.00  0.00    +0.000 A 
ATOM      2  C   UNL     1       2.398   7.637  18.085  0.00  0.00    +0.000 A 
ATOM      3  C   UNL     1       1.737   8.866  18.111  0.00  0.00    +0.000 A 
ATOM      4  C   UNL     1       1.203   9.381  19.303  0.00  0.00    +0.000 A 
ATOM      5  C   UNL     1       1.243   8.580  20.452  0.00  0.00    +0.000 A 
ATOM      6 CL   UNL     1       0.499   8.976  21.963  0.00  0.00    +0.000 Cl
ATOM      7  C   UNL     1       1.903   7.350  20.418  0.00  0.00    +0.000 A 
ENDROOT
BRANCH   1   8
ATOM      8  C   UNL     1       3.406   5.656  19.293  0.00  0.00    +0.000 C 
BRANCH   8   9
ATOM      9  C   UNL     1       2.601   4.342  19.222  0.00  0.00    +0.000 C 
BRANCH   9  10
ATOM     10  C   UNL     1       2.264   4.018  17.760  0.00  0.00    +0.000 C 
ATOM     11  O   UNL     1       1.133   3.962  17.302  0.00  0.00    +0.000 OA
BRANCH  10  12
ATOM     12  O   UNL     1       3.377   3.803  17.011  0.00  0.00    +0.000 OA
ATOM     13  H   UNL     1       3.567   2.836  17.024  0.00  0.00    +0.000 HD
ENDBRANCH  10  12
ENDBRANCH   9  10
BRANCH   9  14
ATOM     14  O   UNL     1       3.291   3.208  19.795  0.00  0.00    +0.000 OA
BRANCH  14  16
ATOM     15  C   UNL     1       1.267   3.056  21.070  0.00  0.00    +0.000 C 
ATOM     16  C   UNL     1       2.764   2.814  21.065  0.00  0.00    +0.000 C 
ENDBRANCH  14  16
ENDBRANCH   9  14
ENDBRANCH   8   9
ENDBRANCH   1   8
BRANCH   4  17
ATOM     17  O   UNL     1       0.679  10.638  19.166  0.00  0.00    +0.000 OA
BRANCH  17  18
ATOM     18  C   UNL     1      -0.734  10.764  19.352  0.00  0.00    +0.000 C 
BRANCH  18  19
ATOM     19  C   UNL     1      -1.268  11.921  18.510  0.00  0.00    +0.000 C 
BRANCH  19  20
ATOM     20  N   UNL     1      -2.686  11.770  18.186  0.00  0.00    +0.000 N 
ATOM     21  C   UNL     1      -3.033  11.117  17.000  0.00  0.00    +0.000 C 
ATOM     22  O   UNL     1      -2.214  10.564  16.265  0.00  0.00    +0.000 OA
ATOM     23  C   UNL     1      -4.516  11.236  16.602  0.00  0.00    +0.000 C 
ATOM     24  O   UNL     1      -5.510  11.220  17.614  0.00  0.00    +0.000 OA
ATOM     25  C   UNL     1      -5.086  11.808  18.755  0.00  0.00    +0.000 A 
ATOM     26  C   UNL     1      -5.939  12.167  19.828  0.00  0.00    +0.000 A 
ATOM     27  C   UNL     1      -5.226  12.706  20.877  0.00  0.00    +0.000 A 
ATOM     28  S   UNL     1      -3.541  12.766  20.547  0.00  0.00    +0.000 S 
ATOM     29  C   UNL     1      -3.761  12.067  19.017  0.00  0.00    +0.000 A 
ENDBRANCH  19  20
ENDBRANCH  18  19
ENDBRANCH  17  18
ENDBRANCH   4  17
TORSDOF 10
ENDMDL
MODEL 5
REMARK VINA RESULT:      -7.1      1.739      2.592
REMARK  Name = 
REMARK  11 active torsions:
REMARK  status: ('A' for Active; 'I' for Inactive)
REMARK    1  A    between atoms: C_1  and  C_2
REMARK    2  A    between atoms: C_2  and  O_3
REMARK    3  A    between atoms: O_3  and  C_4
REMARK    4  A    between atoms: C_4  and  C_5
REMARK    5  A    between atoms: C_4  and  C_26
REMARK    6  A    between atoms: C_5  and  C_6
REMARK    7  A    between atoms: C_9  and  O_10
REMARK    8  A    between atoms: O_10  and  C_11
REMARK    9  A    between atoms: C_11  and  C_12
REMARK   10  A    between atoms: C_12  and  N_13
REMARK   11  A    between atoms: C_26  and  O_28
REMARK                            x       y       z     vdW  Elec       q    Type
REMARK                         _______ _______ _______ _____ _____    ______ ____
ROOT
ATOM      1  C   UNL     1       4.051   4.864  17.671  0.00  0.00    +0.000 A 
ATOM      2  C   UNL     1       4.110   6.231  17.381  0.00  0.00    +0.000 A 
ATOM      3  C   UNL     1       3.407   7.144  18.169  0.00  0.00    +0.000 A 
ATOM      4  C   UNL     1       2.643   6.720  19.269  0.00  0.00    +0.000 A 
ATOM      5  C   UNL     1       2.504   5.344  19.493  0.00  0.00    +0.000 A 
ATOM      6 CL   UNL     1       1.480   4.633  20.694  0.00  0.00    +0.000 Cl
ATOM      7  C   UNL     1       3.208   4.437  18.698  0.00  0.00    +0.000 A 
ENDROOT
BRANCH   1   8
ATOM      8  C   UNL     1       4.958   3.886  16.958  0.00  0.00    +0.000 C 
BRANCH   8   9
ATOM      9  C   UNL     1       5.766   4.540  15.819  0.00  0.00    +0.000 C 
BRANCH   9  10
ATOM     10  C   UNL     1       7.095   5.077  16.367  0.00  0.00    +0.000 C 
ATOM     11  O   UNL     1       7.447   6.246  16.317  0.00  0.00    +0.000 OA
BRANCH  10  12
ATOM     12  O   UNL     1       7.852   4.101  16.931  0.00  0.00    +0.000 OA
ATOM     13  H   UNL     1       8.113   4.403  17.832  0.00  0.00    +0.000 HD
ENDBRANCH  10  12
ENDBRANCH   9  10
BRANCH   9  14
ATOM     14  O   UNL     1       6.053   3.642  14.722  0.00  0.00    +0.000 OA
BRANCH  14  16
ATOM     15  C   UNL     1       6.261   3.476  12.340  0.00  0.00    +0.000 C 
ATOM     16  C   UNL     1       6.566   4.312  13.569  0.00  0.00    +0.000 C 
ENDBRANCH  14  16
ENDBRANCH   9  14
ENDBRANCH   8   9
ENDBRANCH   1   8
BRANCH   4  17
ATOM     17  O   UNL     1       2.103   7.753  19.986  0.00  0.00    +0.000 OA
BRANCH  17  18
ATOM     18  C   UNL     1       1.255   8.654  19.267  0.00  0.00    +0.000 C 
BRANCH  18  19
ATOM     19  C   UNL     1       1.408  10.068  19.826  0.00  0.00    +0.000 C 
BRANCH  19  20
ATOM     20  N   UNL     1       0.409  10.377  20.848  0.00  0.00    +0.000 N 
ATOM     21  C   UNL     1       0.631   9.931  22.153  0.00  0.00    +0.000 C 
ATOM     22  O   UNL     1       1.673   9.386  22.516  0.00  0.00    +0.000 OA
ATOM     23  C   UNL     1      -0.579  10.058  23.098  0.00  0.00    +0.000 C 
ATOM     24  O   UNL     1      -1.435  11.183  22.981  0.00  0.00    +0.000 OA
ATOM     25  C   UNL     1      -1.553  11.604  21.702  0.00  0.00    +0.000 A 
ATOM     26  C   UNL     1      -2.533  12.526  21.256  0.00  0.00    +0.000 A 
ATOM     27  C   UNL     1      -2.384  12.806  19.914  0.00  0.00    +0.000 A 
ATOM     28  S   UNL     1      -1.066  11.951  19.220  0.00  0.00    +0.000 S 
ATOM     29  C   UNL     1      -0.688  11.220  20.705  0.00  0.00    +0.000 A 
ENDBRANCH  19  20
ENDBRANCH  18  19
ENDBRANCH  17  18
ENDBRANCH   4  17
TORSDOF 10
ENDMDL
MODEL 6
REMARK VINA RESULT:      -7.1      1.063      1.969
REMARK  Name = 
REMARK  11 active torsions:
REMARK  status: ('A' for Active; 'I' for Inactive)
REMARK    1  A    between atoms: C_1  and  C_2
REMARK    2  A    between atoms: C_2  and  O_3
REMARK    3  A    between atoms: O_3  and  C_4
REMARK    4  A    between atoms: C_4  and  C_5
REMARK    5  A    between atoms: C_4  and  C_26
REMARK    6  A    between atoms: C_5  and  C_6
REMARK    7  A    between atoms: C_9  and  O_10
REMARK    8  A    between atoms: O_10  and  C_11
REMARK    9  A    between atoms: C_11  and  C_12
REMARK   10  A    between atoms: C_12  and  N_13
REMARK   11  A    between atoms: C_26  and  O_28
REMARK                            x       y       z     vdW  Elec       q    Type
REMARK                         _______ _______ _______ _____ _____    ______ ____
ROOT
ATOM      1  C   UNL     1       4.434   5.655  18.129  0.00  0.00    +0.000 A 
ATOM      2  C   UNL     1       4.171   6.870  17.489  0.00  0.00    +0.000 A 
ATOM      3  C   UNL     1       3.133   7.687  17.938  0.00  0.00    +0.000 A 
ATOM      4  C   UNL     1       2.343   7.321  19.040  0.00  0.00    +0.000 A 
ATOM      5  C   UNL     1       2.542   6.058  19.613  0.00  0.00    +0.000 A 
ATOM      6 CL   UNL     1       1.566   5.372  20.866  0.00  0.00    +0.000 Cl
ATOM      7  C   UNL     1       3.581   5.245  19.156  0.00  0.00    +0.000 A 
ENDROOT
BRANCH   1   8
ATOM      8  C   UNL     1       5.672   4.856  17.787  0.00  0.00    +0.000 C 
BRANCH   8   9
ATOM      9  C   UNL     1       6.632   5.612  16.846  0.00  0.00    +0.000 C 
BRANCH   9  10
ATOM     10  C   UNL     1       7.495   6.587  17.660  0.00  0.00    +0.000 C 
ATOM     11  O   UNL     1       7.921   6.368  18.784  0.00  0.00    +0.000 OA
BRANCH  10  12
ATOM     12  O   UNL     1       7.746   7.738  16.985  0.00  0.00    +0.000 OA
ATOM     13  H   UNL     1       8.438   7.548  16.310  0.00  0.00    +0.000 HD
ENDBRANCH  10  12
ENDBRANCH   9  10
BRANCH   9  14
ATOM     14  O   UNL     1       7.509   4.744  16.092  0.00  0.00    +0.000 OA
BRANCH  14  16
ATOM     15  C   UNL     1       5.700   5.095  14.560  0.00  0.00    +0.000 C 
ATOM     16  C   UNL     1       7.133   4.624  14.718  0.00  0.00    +0.000 C 
ENDBRANCH  14  16
ENDBRANCH   9  14
ENDBRANCH   8   9
ENDBRANCH   1   8
BRANCH   4  17
ATOM     17  O   UNL     1       1.438   8.282  19.404  0.00  0.00    +0.000 OA
BRANCH  17  18
ATOM     18  C   UNL     1       1.347   8.574  20.803  0.00  0.00    +0.000 C 
BRANCH  18  19
ATOM     19  C   UNL     1      -0.119   8.705  21.211  0.00  0.00    +0.000 C 
BRANCH  19  20
ATOM     20  N   UNL     1      -0.517  10.095  21.429  0.00  0.00    +0.000 N 
ATOM     21  C   UNL     1      -0.441  10.613  22.725  0.00  0.00    +0.000 C 
ATOM     22  O   UNL     1       0.047   9.999  23.674  0.00  0.00    +0.000 OA
ATOM     23  C   UNL     1      -1.125  11.979  22.920  0.00  0.00    +0.000 C 
ATOM     24  O   UNL     1      -1.063  12.942  21.879  0.00  0.00    +0.000 OA
ATOM     25  C   UNL     1      -1.074  12.369  20.654  0.00  0.00    +0.000 A 
ATOM     26  C   UNL     1      -1.284  13.081  19.447  0.00  0.00    +0.000 A 
ATOM     27  C   UNL     1      -1.195  12.248  18.352  0.00  0.00    +0.000 A 
ATOM     28  S   UNL     1      -0.859  10.625  18.802  0.00  0.00    +0.000 S 
ATOM     29  C   UNL     1      -0.821  11.033  20.449  0.00  0.00    +0.000 A 
ENDBRANCH  19  20
ENDBRANCH  18  19
ENDBRANCH  17  18
ENDBRANCH   4  17
TORSDOF 10
ENDMDL
MODEL 7
REMARK VINA RESULT:      -7.0      3.306      4.881
REMARK  Name = 
REMARK  11 active torsions:
REMARK  status: ('A' for Active; 'I' for Inactive)
REMARK    1  A    between atoms: C_1  and  C_2
REMARK    2  A    between atoms: C_2  and  O_3
REMARK    3  A    between atoms: O_3  and  C_4
REMARK    4  A    between atoms: C_4  and  C_5
REMARK    5  A    between atoms: C_4  and  C_26
REMARK    6  A    between atoms: C_5  and  C_6
REMARK    7  A    between atoms: C_9  and  O_10
REMARK    8  A    between atoms: O_10  and  C_11
REMARK    9  A    between atoms: C_11  and  C_12
REMARK   10  A    between atoms: C_12  and  N_13
REMARK   11  A    between atoms: C_26  and  O_28
REMARK                            x       y       z     vdW  Elec       q    Type
REMARK                         _______ _______ _______ _____ _____    ______ ____
ROOT
ATOM      1  C   UNL     1       2.780   6.987  18.792  0.00  0.00    +0.000 A 
ATOM      2  C   UNL     1       2.503   7.848  17.725  0.00  0.00    +0.000 A 
ATOM      3  C   UNL     1       1.757   9.008  17.938  0.00  0.00    +0.000 A 
ATOM      4  C   UNL     1       1.282   9.344  19.216  0.00  0.00    +0.000 A 
ATOM      5  C   UNL     1       1.473   8.430  20.260  0.00  0.00    +0.000 A 
ATOM      6 CL   UNL     1       0.824   8.596  21.855  0.00  0.00    +0.000 Cl
ATOM      7  C   UNL     1       2.218   7.269  20.038  0.00  0.00    +0.000 A 
ENDROOT
BRANCH   1   8
ATOM      8  C   UNL     1       3.749   5.838  18.623  0.00  0.00    +0.000 C 
BRANCH   8   9
ATOM      9  C   UNL     1       3.199   4.506  19.173  0.00  0.00    +0.000 C 
BRANCH   9  10
ATOM     10  C   UNL     1       4.014   3.335  18.607  0.00  0.00    +0.000 C 
ATOM     11  O   UNL     1       3.741   2.726  17.583  0.00  0.00    +0.000 OA
BRANCH  10  12
ATOM     12  O   UNL     1       5.097   3.044  19.373  0.00  0.00    +0.000 OA
ATOM     13  H   UNL     1       4.805   3.030  20.315  0.00  0.00    +0.000 HD
ENDBRANCH  10  12
ENDBRANCH   9  10
BRANCH   9  14
ATOM     14  O   UNL     1       3.218   4.422  20.616  0.00  0.00    +0.000 OA
BRANCH  14  16
ATOM     15  C   UNL     1       0.919   3.874  20.219  0.00  0.00    +0.000 C 
ATOM     16  C   UNL     1       2.104   3.704  21.151  0.00  0.00    +0.000 C 
ENDBRANCH  14  16
ENDBRANCH   9  14
ENDBRANCH   8   9
ENDBRANCH   1   8
BRANCH   4  17
ATOM     17  O   UNL     1       0.657  10.561  19.261  0.00  0.00    +0.000 OA
BRANCH  17  18
ATOM     18  C   UNL     1      -0.772  10.546  19.192  0.00  0.00    +0.000 C 
BRANCH  18  19
ATOM     19  C   UNL     1      -1.266  11.760  18.407  0.00  0.00    +0.000 C 
BRANCH  19  20
ATOM     20  N   UNL     1      -2.696  11.688  18.106  0.00  0.00    +0.000 N 
ATOM     21  C   UNL     1      -3.098  11.045  16.932  0.00  0.00    +0.000 C 
ATOM     22  O   UNL     1      -2.323  10.439  16.191  0.00  0.00    +0.000 OA
ATOM     23  C   UNL     1      -4.577  11.247  16.554  0.00  0.00    +0.000 C 
ATOM     24  O   UNL     1      -5.555  11.297  17.581  0.00  0.00    +0.000 OA
ATOM     25  C   UNL     1      -5.080  11.871  18.709  0.00  0.00    +0.000 A 
ATOM     26  C   UNL     1      -5.895  12.289  19.791  0.00  0.00    +0.000 A 
ATOM     27  C   UNL     1      -5.136  12.796  20.824  0.00  0.00    +0.000 A 
ATOM     28  S   UNL     1      -3.456  12.755  20.469  0.00  0.00    +0.000 S 
ATOM     29  C   UNL     1      -3.739  12.055  18.949  0.00  0.00    +0.000 A 
ENDBRANCH  19  20
ENDBRANCH  18  19
ENDBRANCH  17  18
ENDBRANCH   4  17
TORSDOF 10
ENDMDL
MODEL 8
REMARK VINA RESULT:      -7.0      3.271      4.414
REMARK  Name = 
REMARK  11 active torsions:
REMARK  status: ('A' for Active; 'I' for Inactive)
REMARK    1  A    between atoms: C_1  and  C_2
REMARK    2  A    between atoms: C_2  and  O_3
REMARK    3  A    between atoms: O_3  and  C_4
REMARK    4  A    between atoms: C_4  and  C_5
REMARK    5  A    between atoms: C_4  and  C_26
REMARK    6  A    between atoms: C_5  and  C_6
REMARK    7  A    between atoms: C_9  and  O_10
REMARK    8  A    between atoms: O_10  and  C_11
REMARK    9  A    between atoms: C_11  and  C_12
REMARK   10  A    between atoms: C_12  and  N_13
REMARK   11  A    between atoms: C_26  and  O_28
REMARK                            x       y       z     vdW  Elec       q    Type
REMARK                         _______ _______ _______ _____ _____    ______ ____
ROOT
ATOM      1  C   UNL     1       2.686   7.248  18.568  0.00  0.00    +0.000 A 
ATOM      2  C   UNL     1       2.322   8.193  17.603  0.00  0.00    +0.000 A 
ATOM      3  C   UNL     1       1.576   9.314  17.969  0.00  0.00    +0.000 A 
ATOM      4  C   UNL     1       1.187   9.527  19.302  0.00  0.00    +0.000 A 
ATOM      5  C   UNL     1       1.464   8.529  20.244  0.00  0.00    +0.000 A 
ATOM      6 CL   UNL     1       0.927   8.541  21.890  0.00  0.00    +0.000 Cl
ATOM      7  C   UNL     1       2.209   7.408  19.870  0.00  0.00    +0.000 A 
ENDROOT
BRANCH   1   8
ATOM      8  C   UNL     1       3.656   6.138  18.231  0.00  0.00    +0.000 C 
BRANCH   8   9
ATOM      9  C   UNL     1       4.157   5.381  19.479  0.00  0.00    +0.000 C 
BRANCH   9  10
ATOM     10  C   UNL     1       3.676   3.924  19.430  0.00  0.00    +0.000 C 
ATOM     11  O   UNL     1       4.406   2.948  19.493  0.00  0.00    +0.000 OA
BRANCH  10  12
ATOM     12  O   UNL     1       2.326   3.832  19.314  0.00  0.00    +0.000 OA
ATOM     13  H   UNL     1       2.008   4.634  18.837  0.00  0.00    +0.000 HD
ENDBRANCH  10  12
ENDBRANCH   9  10
BRANCH   9  14
ATOM     14  O   UNL     1       5.596   5.384  19.620  0.00  0.00    +0.000 OA
BRANCH  14  16
ATOM     15  C   UNL     1       7.700   6.106  18.730  0.00  0.00    +0.000 C 
ATOM     16  C   UNL     1       6.278   5.693  18.402  0.00  0.00    +0.000 C 
ENDBRANCH  14  16
ENDBRANCH   9  14
ENDBRANCH   8   9
ENDBRANCH   1   8
BRANCH   4  17
ATOM     17  O   UNL     1       0.550  10.722  19.498  0.00  0.00    +0.000 OA
BRANCH  17  18
ATOM     18  C   UNL     1      -0.879  10.704  19.412  0.00  0.00    +0.000 C 
BRANCH  18  19
ATOM     19  C   UNL     1      -1.361  11.863  18.543  0.00  0.00    +0.000 C 
BRANCH  19  20
ATOM     20  N   UNL     1      -2.782  11.760  18.209  0.00  0.00    +0.000 N 
ATOM     21  C   UNL     1      -3.141  11.142  17.009  0.00  0.00    +0.000 C 
ATOM     22  O   UNL     1      -2.334  10.581  16.266  0.00  0.00    +0.000 OA
ATOM     23  C   UNL     1      -4.618  11.313  16.606  0.00  0.00    +0.000 C 
ATOM     24  O   UNL     1      -5.617  11.304  17.613  0.00  0.00    +0.000 OA
ATOM     25  C   UNL     1      -5.182  11.856  18.767  0.00  0.00    +0.000 A 
ATOM     26  C   UNL     1      -6.031  12.218  19.844  0.00  0.00    +0.000 A 
ATOM     27  C   UNL     1      -5.308  12.713  20.908  0.00  0.00    +0.000 A 
ATOM     28  S   UNL     1      -3.620  12.732  20.587  0.00  0.00    +0.000 S 
ATOM     29  C   UNL     1      -3.852  12.071  19.041  0.00  0.00    +0.000 A 
ENDBRANCH  19  20
ENDBRANCH  18  19
ENDBRANCH  17  18
ENDBRANCH   4  17
TORSDOF 10
ENDMDL
MODEL 9
REMARK VINA RESULT:      -7.0      1.565      2.278
REMARK  Name = 
REMARK  11 active torsions:
REMARK  status: ('A' for Active; 'I' for Inactive)
REMARK    1  A    between atoms: C_1  and  C_2
REMARK    2  A    between atoms: C_2  and  O_3
REMARK    3  A    between atoms: O_3  and  C_4
REMARK    4  A    between atoms: C_4  and  C_5
REMARK    5  A    between atoms: C_4  and  C_26
REMARK    6  A    between atoms: C_5  and  C_6
REMARK    7  A    between atoms: C_9  and  O_10
REMARK    8  A    between atoms: O_10  and  C_11
REMARK    9  A    between atoms: C_11  and  C_12
REMARK   10  A    between atoms: C_12  and  N_13
REMARK   11  A    between atoms: C_26  and  O_28
REMARK                            x       y       z     vdW  Elec       q    Type
REMARK                         _______ _______ _______ _____ _____    ______ ____
ROOT
ATOM      1  C   UNL     1       3.888   5.083  17.691  0.00  0.00    +0.000 A 
ATOM      2  C   UNL     1       3.727   6.460  17.877  0.00  0.00    +0.000 A 
ATOM      3  C   UNL     1       2.896   6.936  18.893  0.00  0.00    +0.000 A 
ATOM      4  C   UNL     1       2.220   6.056  19.753  0.00  0.00    +0.000 A 
ATOM      5  C   UNL     1       2.302   4.681  19.498  0.00  0.00    +0.000 A 
ATOM      6 CL   UNL     1       1.416   3.460  20.346  0.00  0.00    +0.000 Cl
ATOM      7  C   UNL     1       3.133   4.212  18.478  0.00  0.00    +0.000 A 
ENDROOT
BRANCH   1   8
ATOM      8  C   UNL     1       4.931   4.552  16.733  0.00  0.00    +0.000 C 
BRANCH   8   9
ATOM      9  C   UNL     1       5.701   5.673  16.004  0.00  0.00    +0.000 C 
BRANCH   9  10
ATOM     10  C   UNL     1       7.020   5.957  16.736  0.00  0.00    +0.000 C 
ATOM     11  O   UNL     1       7.475   7.072  16.943  0.00  0.00    +0.000 OA
BRANCH  10  12
ATOM     12  O   UNL     1       7.637   4.819  17.145  0.00  0.00    +0.000 OA
ATOM     13  H   UNL     1       7.109   4.437  17.884  0.00  0.00    +0.000 HD
ENDBRANCH  10  12
ENDBRANCH   9  10
BRANCH   9  14
ATOM     14  O   UNL     1       6.000   5.368  14.623  0.00  0.00    +0.000 OA
BRANCH  14  16
ATOM     15  C   UNL     1       6.286   3.757  12.872  0.00  0.00    +0.000 C 
ATOM     16  C   UNL     1       5.903   3.973  14.324  0.00  0.00    +0.000 C 
ENDBRANCH  14  16
ENDBRANCH   9  14
ENDBRANCH   8   9
ENDBRANCH   1   8
BRANCH   4  17
ATOM     17  O   UNL     1       1.531   6.691  20.750  0.00  0.00    +0.000 OA
BRANCH  17  18
ATOM     18  C   UNL     1       1.528   8.122  20.710  0.00  0.00    +0.000 C 
BRANCH  18  19
ATOM     19  C   UNL     1       0.110   8.645  20.937  0.00  0.00    +0.000 C 
BRANCH  19  20
ATOM     20  N   UNL     1       0.080  10.082  21.204  0.00  0.00    +0.000 N 
ATOM     21  C   UNL     1      -0.368  10.518  22.454  0.00  0.00    +0.000 C 
ATOM     22  O   UNL     1      -0.636   9.756  23.383  0.00  0.00    +0.000 OA
ATOM     23  C   UNL     1      -0.626  12.033  22.560  0.00  0.00    +0.000 C 
ATOM     24  O   UNL     1       0.234  12.932  21.879  0.00  0.00    +0.000 OA
ATOM     25  C   UNL     1       0.684  12.422  20.711  0.00  0.00    +0.000 A 
ATOM     26  C   UNL     1       1.335  13.185  19.709  0.00  0.00    +0.000 A 
ATOM     27  C   UNL     1       1.724  12.393  18.649  0.00  0.00    +0.000 A 
ATOM     28  S   UNL     1       1.296  10.746  18.885  0.00  0.00    +0.000 S 
ATOM     29  C   UNL     1       0.606  11.085  20.398  0.00  0.00    +0.000 A 
ENDBRANCH  19  20
ENDBRANCH  18  19
ENDBRANCH  17  18
ENDBRANCH   4  17
TORSDOF 10
ENDMDL
