MODEL 1
REMARK VINA RESULT:      -8.5      0.000      0.000
REMARK  Name = 
REMARK  3 active torsions:
REMARK  status: ('A' for Active; 'I' for Inactive)
REMARK    1  A    between atoms: C_2  and  C_3
REMARK    2  A    between atoms: N_12  and  S_13
REMARK    3  A    between atoms: S_13  and  C_16
REMARK                            x       y       z     vdW  Elec       q    Type
REMARK                         _______ _______ _______ _____ _____    ______ ____
ROOT
ATOM      1  C   UNL     1       4.241   5.251  18.655  0.00  0.00    +0.000 C 
ATOM      2  C   UNL     1       4.546   3.887  19.368  0.00  0.00    +0.000 C 
ATOM      3  C   UNL     1       3.202   3.230  19.548  0.00  0.00    +0.000 A 
ATOM      4  C   UNL     1       2.699   2.813  20.786  0.00  0.00    +0.000 A 
ATOM      5  C   UNL     1       1.346   2.546  20.913  0.00  0.00    +0.000 A 
ATOM      6  C   UNL     1       0.494   2.632  19.813  0.00  0.00    +0.000 A 
ATOM      7  C   UNL     1       0.999   2.973  18.561  0.00  0.00    +0.000 A 
ATOM      8  C   UNL     1       2.349   3.286  18.422  0.00  0.00    +0.000 A 
ATOM      9  C   UNL     1       2.961   3.727  17.105  0.00  0.00    +0.000 C 
ATOM     10  N   UNL     1       3.881   4.928  17.197  0.00  0.00    +0.000 NA
ENDROOT
BRANCH   1  12
ATOM     11  O   UNL     1       3.079   5.774  20.719  0.00  0.00    +0.000 OA
ATOM     12  C   UNL     1       3.206   6.061  19.513  0.00  0.00    +0.000 C 
ATOM     13  N   UNL     1       2.462   7.139  19.000  0.00  0.00    +0.000 N 
ATOM     14  C   UNL     1       1.558   7.777  19.978  0.00  0.00    +0.000 C 
ATOM     15  C   UNL     1       0.887   9.087  19.554  0.00  0.00    +0.000 C 
ATOM     16  O   UNL     1       1.754   9.919  18.781  0.00  0.00    +0.000 OA
ATOM     17  C   UNL     1       2.141   9.219  17.598  0.00  0.00    +0.000 C 
ATOM     18  C   UNL     1       3.004   8.000  17.946  0.00  0.00    +0.000 C 
ENDBRANCH   1  12
BRANCH  10  19
ATOM     19  S   UNL     1       5.315   4.762  16.223  0.00  0.00    +0.000 S 
ATOM     20  O   UNL     1       5.761   3.390  16.334  0.00  0.00    +0.000 OA
ATOM     21  O   UNL     1       5.040   5.331  14.915  0.00  0.00    +0.000 OA
BRANCH  19  22
ATOM     22  C   UNL     1       6.573   5.781  16.971  0.00  0.00    +0.000 A 
ATOM     23  C   UNL     1       6.597   7.156  16.698  0.00  0.00    +0.000 A 
ATOM     24  C   UNL     1       7.430   7.998  17.442  0.00  0.00    +0.000 A 
ATOM     25  C   UNL     1       8.203   7.472  18.472  0.00  0.00    +0.000 A 
ATOM     26  F   UNL     1       8.971   8.287  19.208  0.00  0.00    +0.000 F 
ATOM     27  C   UNL     1       8.160   6.115  18.774  0.00  0.00    +0.000 A 
ATOM     28  C   UNL     1       7.344   5.264  18.023  0.00  0.00    +0.000 A 
ENDBRANCH  19  22
ENDBRANCH  10  19
TORSDOF 3
ENDMDL
MODEL 2
REMARK VINA RESULT:      -7.9      0.641      1.117
REMARK  Name = 
REMARK  3 active torsions:
REMARK  status: ('A' for Active; 'I' for Inactive)
REMARK    1  A    between atoms: C_2  and  C_3
REMARK    2  A    between atoms: N_12  and  S_13
REMARK    3  A    between atoms: S_13  and  C_16
REMARK                            x       y       z     vdW  Elec       q    Type
REMARK                         _______ _______ _______ _____ _____    ______ ____
ROOT
ATOM      1  C   UNL     1       4.017   5.780  18.888  0.00  0.00    +0.000 C 
ATOM      2  C   UNL     1       4.390   4.464  19.655  0.00  0.00    +0.000 C 
ATOM      3  C   UNL     1       3.116   3.660  19.698  0.00  0.00    +0.000 A 
ATOM      4  C   UNL     1       2.527   3.196  20.879  0.00  0.00    +0.000 A 
ATOM      5  C   UNL     1       1.206   2.778  20.862  0.00  0.00    +0.000 A 
ATOM      6  C   UNL     1       0.478   2.763  19.673  0.00  0.00    +0.000 A 
ATOM      7  C   UNL     1       1.079   3.151  18.478  0.00  0.00    +0.000 A 
ATOM      8  C   UNL     1       2.393   3.614  18.483  0.00  0.00    +0.000 A 
ATOM      9  C   UNL     1       3.096   4.113  17.234  0.00  0.00    +0.000 C 
ATOM     10  N   UNL     1       3.860   5.411  17.406  0.00  0.00    +0.000 NA
ENDROOT
BRANCH   1  12
ATOM     11  O   UNL     1       2.489   6.075  20.749  0.00  0.00    +0.000 OA
ATOM     12  C   UNL     1       2.808   6.474  19.612  0.00  0.00    +0.000 C 
ATOM     13  N   UNL     1       2.111   7.566  19.064  0.00  0.00    +0.000 N 
ATOM     14  C   UNL     1       1.020   8.081  19.915  0.00  0.00    +0.000 C 
ATOM     15  C   UNL     1       0.367   9.399  19.487  0.00  0.00    +0.000 C 
ATOM     16  O   UNL     1       1.312  10.327  18.951  0.00  0.00    +0.000 OA
ATOM     17  C   UNL     1       1.934   9.749  17.802  0.00  0.00    +0.000 C 
ATOM     18  C   UNL     1       2.784   8.536  18.197  0.00  0.00    +0.000 C 
ENDBRANCH   1  12
BRANCH  10  19
ATOM     19  S   UNL     1       5.403   5.402  16.599  0.00  0.00    +0.000 S 
ATOM     20  O   UNL     1       5.968   4.080  16.755  0.00  0.00    +0.000 OA
ATOM     21  O   UNL     1       5.220   5.960  15.270  0.00  0.00    +0.000 OA
BRANCH  19  22
ATOM     22  C   UNL     1       6.461   6.530  17.488  0.00  0.00    +0.000 A 
ATOM     23  C   UNL     1       7.411   6.022  18.384  0.00  0.00    +0.000 A 
ATOM     24  C   UNL     1       8.388   6.869  18.917  0.00  0.00    +0.000 A 
ATOM     25  C   UNL     1       8.432   8.204  18.527  0.00  0.00    +0.000 A 
ATOM     26  F   UNL     1       9.392   9.004  19.010  0.00  0.00    +0.000 F 
ATOM     27  C   UNL     1       7.515   8.710  17.612  0.00  0.00    +0.000 A 
ATOM     28  C   UNL     1       6.525   7.874  17.089  0.00  0.00    +0.000 A 
ENDBRANCH  19  22
ENDBRANCH  10  19
TORSDOF 3
ENDMDL
MODEL 3
REMARK VINA RESULT:      -7.4      7.865     11.691
REMARK  Name = 
REMARK  3 active torsions:
REMARK  status: ('A' for Active; 'I' for Inactive)
REMARK    1  A    between atoms: C_2  and  C_3
REMARK    2  A    between atoms: N_12  and  S_13
REMARK    3  A    between atoms: S_13  and  C_16
REMARK                            x       y       z     vdW  Elec       q    Type
REMARK                         _______ _______ _______ _____ _____    ______ ____
ROOT
ATOM      1  C   UNL     1      -3.725  14.315  21.493  0.00  0.00    +0.000 C 
ATOM      2  C   UNL     1      -3.926  15.246  22.740  0.00  0.00    +0.000 C 
ATOM      3  C   UNL     1      -5.153  14.712  23.434  0.00  0.00    +0.000 A 
ATOM      4  C   UNL     1      -6.286  15.482  23.716  0.00  0.00    +0.000 A 
ATOM      5  C   UNL     1      -7.477  14.849  24.031  0.00  0.00    +0.000 A 
ATOM      6  C   UNL     1      -7.544  13.460  24.125  0.00  0.00    +0.000 A 
ATOM      7  C   UNL     1      -6.403  12.688  23.920  0.00  0.00    +0.000 A 
ATOM      8  C   UNL     1      -5.207  13.304  23.561  0.00  0.00    +0.000 A 
ATOM      9  C   UNL     1      -3.938  12.528  23.260  0.00  0.00    +0.000 C 
ATOM     10  N   UNL     1      -3.197  12.970  22.014  0.00  0.00    +0.000 NA
ENDROOT
BRANCH   1  12
ATOM     11  O   UNL     1      -5.692  15.372  20.546  0.00  0.00    +0.000 OA
ATOM     12  C   UNL     1      -5.038  14.315  20.633  0.00  0.00    +0.000 C 
ATOM     13  N   UNL     1      -5.476  13.195  19.903  0.00  0.00    +0.000 N 
ATOM     14  C   UNL     1      -6.725  13.410  19.146  0.00  0.00    +0.000 C 
ATOM     15  C   UNL     1      -7.139  12.313  18.160  0.00  0.00    +0.000 C 
ATOM     16  O   UNL     1      -6.020  11.738  17.483  0.00  0.00    +0.000 OA
ATOM     17  C   UNL     1      -5.140  11.156  18.445  0.00  0.00    +0.000 C 
ATOM     18  C   UNL     1      -4.521  12.238  19.339  0.00  0.00    +0.000 C 
ENDBRANCH   1  12
BRANCH  10  19
ATOM     19  S   UNL     1      -1.470  13.020  22.231  0.00  0.00    +0.000 S 
ATOM     20  O   UNL     1      -0.924  13.862  21.190  0.00  0.00    +0.000 OA
ATOM     21  O   UNL     1      -1.201  13.325  23.626  0.00  0.00    +0.000 OA
BRANCH  19  22
ATOM     22  C   UNL     1      -0.862  11.369  21.940  0.00  0.00    +0.000 A 
ATOM     23  C   UNL     1      -0.230  11.072  20.725  0.00  0.00    +0.000 A 
ATOM     24  C   UNL     1       0.443   9.857  20.569  0.00  0.00    +0.000 A 
ATOM     25  C   UNL     1       0.512   8.963  21.635  0.00  0.00    +0.000 A 
ATOM     26  F   UNL     1       1.190   7.816  21.495  0.00  0.00    +0.000 F 
ATOM     27  C   UNL     1      -0.082   9.264  22.856  0.00  0.00    +0.000 A 
ATOM     28  C   UNL     1      -0.772  10.469  23.013  0.00  0.00    +0.000 A 
ENDBRANCH  19  22
ENDBRANCH  10  19
TORSDOF 3
ENDMDL
MODEL 4
REMARK VINA RESULT:      -7.4      3.013      6.217
REMARK  Name = 
REMARK  3 active torsions:
REMARK  status: ('A' for Active; 'I' for Inactive)
REMARK    1  A    between atoms: C_2  and  C_3
REMARK    2  A    between atoms: N_12  and  S_13
REMARK    3  A    between atoms: S_13  and  C_16
REMARK                            x       y       z     vdW  Elec       q    Type
REMARK                         _______ _______ _______ _____ _____    ______ ____
ROOT
ATOM      1  C   UNL     1       3.136   6.765  18.310  0.00  0.00    +0.000 C 
ATOM      2  C   UNL     1       2.069   5.792  17.697  0.00  0.00    +0.000 C 
ATOM      3  C   UNL     1       1.929   4.680  18.704  0.00  0.00    +0.000 A 
ATOM      4  C   UNL     1       2.121   3.327  18.403  0.00  0.00    +0.000 A 
ATOM      5  C   UNL     1       2.314   2.422  19.434  0.00  0.00    +0.000 A 
ATOM      6  C   UNL     1       2.263   2.834  20.765  0.00  0.00    +0.000 A 
ATOM      7  C   UNL     1       1.997   4.165  21.076  0.00  0.00    +0.000 A 
ATOM      8  C   UNL     1       1.842   5.097  20.053  0.00  0.00    +0.000 A 
ATOM      9  C   UNL     1       1.613   6.575  20.312  0.00  0.00    +0.000 C 
ATOM     10  N   UNL     1       2.456   7.511  19.468  0.00  0.00    +0.000 NA
ENDROOT
BRANCH   1  12
ATOM     11  O   UNL     1       4.595   5.467  19.749  0.00  0.00    +0.000 OA
ATOM     12  C   UNL     1       4.451   5.964  18.615  0.00  0.00    +0.000 C 
ATOM     13  N   UNL     1       5.445   5.725  17.649  0.00  0.00    +0.000 N 
ATOM     14  C   UNL     1       6.592   4.935  18.136  0.00  0.00    +0.000 C 
ATOM     15  C   UNL     1       7.599   4.450  17.088  0.00  0.00    +0.000 C 
ATOM     16  O   UNL     1       6.969   4.058  15.867  0.00  0.00    +0.000 OA
ATOM     17  C   UNL     1       6.270   5.177  15.322  0.00  0.00    +0.000 C 
ATOM     18  C   UNL     1       5.103   5.584  16.231  0.00  0.00    +0.000 C 
ENDBRANCH   1  12
BRANCH  10  19
ATOM     19  S   UNL     1       1.563   8.887  18.884  0.00  0.00    +0.000 S 
ATOM     20  O   UNL     1       2.516   9.816  18.318  0.00  0.00    +0.000 OA
ATOM     21  O   UNL     1       0.460   8.398  18.075  0.00  0.00    +0.000 OA
BRANCH  19  22
ATOM     22  C   UNL     1       0.842   9.681  20.308  0.00  0.00    +0.000 A 
ATOM     23  C   UNL     1      -0.113  10.690  20.124  0.00  0.00    +0.000 A 
ATOM     24  C   UNL     1      -0.845  11.164  21.218  0.00  0.00    +0.000 A 
ATOM     25  C   UNL     1      -0.644  10.607  22.478  0.00  0.00    +0.000 A 
ATOM     26  F   UNL     1      -1.372  11.037  23.516  0.00  0.00    +0.000 F 
ATOM     27  C   UNL     1       0.277   9.582  22.664  0.00  0.00    +0.000 A 
ATOM     28  C   UNL     1       1.024   9.116  21.579  0.00  0.00    +0.000 A 
ENDBRANCH  19  22
ENDBRANCH  10  19
TORSDOF 3
ENDMDL
MODEL 5
REMARK VINA RESULT:      -7.2      2.877      5.962
REMARK  Name = 
REMARK  3 active torsions:
REMARK  status: ('A' for Active; 'I' for Inactive)
REMARK    1  A    between atoms: C_2  and  C_3
REMARK    2  A    between atoms: N_12  and  S_13
REMARK    3  A    between atoms: S_13  and  C_16
REMARK                            x       y       z     vdW  Elec       q    Type
REMARK                         _______ _______ _______ _____ _____    ______ ____
ROOT
ATOM      1  C   UNL     1       2.661   6.078  17.824  0.00  0.00    +0.000 C 
ATOM      2  C   UNL     1       1.301   5.299  17.876  0.00  0.00    +0.000 C 
ATOM      3  C   UNL     1       1.420   4.381  19.064  0.00  0.00    +0.000 A 
ATOM      4  C   UNL     1       1.259   2.992  18.996  0.00  0.00    +0.000 A 
ATOM      5  C   UNL     1       1.720   2.203  20.037  0.00  0.00    +0.000 A 
ATOM      6  C   UNL     1       2.288   2.778  21.172  0.00  0.00    +0.000 A 
ATOM      7  C   UNL     1       2.383   4.163  21.283  0.00  0.00    +0.000 A 
ATOM      8  C   UNL     1       1.965   4.971  20.229  0.00  0.00    +0.000 A 
ATOM      9  C   UNL     1       2.094   6.483  20.248  0.00  0.00    +0.000 C 
ATOM     10  N   UNL     1       2.645   7.095  18.975  0.00  0.00    +0.000 NA
ENDROOT
BRANCH   1  12
ATOM     11  O   UNL     1       3.580   3.855  17.515  0.00  0.00    +0.000 OA
ATOM     12  C   UNL     1       3.844   5.048  17.762  0.00  0.00    +0.000 C 
ATOM     13  N   UNL     1       5.193   5.419  17.907  0.00  0.00    +0.000 N 
ATOM     14  C   UNL     1       6.149   4.300  17.797  0.00  0.00    +0.000 C 
ATOM     15  C   UNL     1       7.636   4.659  17.723  0.00  0.00    +0.000 C 
ATOM     16  O   UNL     1       7.875   5.839  16.954  0.00  0.00    +0.000 OA
ATOM     17  C   UNL     1       7.185   6.936  17.555  0.00  0.00    +0.000 C 
ATOM     18  C   UNL     1       5.667   6.735  17.471  0.00  0.00    +0.000 C 
ENDBRANCH   1  12
BRANCH  10  19
ATOM     19  S   UNL     1       1.814   8.553  18.507  0.00  0.00    +0.000 S 
ATOM     20  O   UNL     1       2.818   9.555  18.226  0.00  0.00    +0.000 OA
ATOM     21  O   UNL     1       0.832   8.206  17.495  0.00  0.00    +0.000 OA
BRANCH  19  22
ATOM     22  C   UNL     1       0.903   9.112  19.935  0.00  0.00    +0.000 A 
ATOM     23  C   UNL     1       1.363   8.784  21.217  0.00  0.00    +0.000 A 
ATOM     24  C   UNL     1       0.792   9.394  22.339  0.00  0.00    +0.000 A 
ATOM     25  C   UNL     1      -0.205  10.351  22.173  0.00  0.00    +0.000 A 
ATOM     26  F   UNL     1      -0.723  10.961  23.246  0.00  0.00    +0.000 F 
ATOM     27  C   UNL     1      -0.644  10.709  20.903  0.00  0.00    +0.000 A 
ATOM     28  C   UNL     1      -0.091  10.090  19.778  0.00  0.00    +0.000 A 
ENDBRANCH  19  22
ENDBRANCH  10  19
TORSDOF 3
ENDMDL
MODEL 6
REMARK VINA RESULT:      -7.1      5.824      9.451
REMARK  Name = 
REMARK  3 active torsions:
REMARK  status: ('A' for Active; 'I' for Inactive)
REMARK    1  A    between atoms: C_2  and  C_3
REMARK    2  A    between atoms: N_12  and  S_13
REMARK    3  A    between atoms: S_13  and  C_16
REMARK                            x       y       z     vdW  Elec       q    Type
REMARK                         _______ _______ _______ _____ _____    ______ ____
ROOT
ATOM      1  C   UNL     1      -1.619  13.279  20.417  0.00  0.00    +0.000 C 
ATOM      2  C   UNL     1      -1.254  14.245  21.599  0.00  0.00    +0.000 C 
ATOM      3  C   UNL     1      -2.092  13.777  22.760  0.00  0.00    +0.000 A 
ATOM      4  C   UNL     1      -2.981  14.599  23.461  0.00  0.00    +0.000 A 
ATOM      5  C   UNL     1      -3.948  14.022  24.267  0.00  0.00    +0.000 A 
ATOM      6  C   UNL     1      -4.009  12.639  24.432  0.00  0.00    +0.000 A 
ATOM      7  C   UNL     1      -3.080  11.817  23.799  0.00  0.00    +0.000 A 
ATOM      8  C   UNL     1      -2.127  12.376  22.951  0.00  0.00    +0.000 A 
ATOM      9  C   UNL     1      -1.123  11.542  22.177  0.00  0.00    +0.000 C 
ATOM     10  N   UNL     1      -0.959  11.925  20.720  0.00  0.00    +0.000 NA
ENDROOT
BRANCH   1  12
ATOM     11  O   UNL     1      -3.806  14.317  20.559  0.00  0.00    +0.000 OA
ATOM     12  C   UNL     1      -3.170  13.313  20.184  0.00  0.00    +0.000 C 
ATOM     13  N   UNL     1      -3.868  12.292  19.513  0.00  0.00    +0.000 N 
ATOM     14  C   UNL     1      -5.319  12.527  19.384  0.00  0.00    +0.000 C 
ATOM     15  C   UNL     1      -6.102  11.571  18.477  0.00  0.00    +0.000 C 
ATOM     16  O   UNL     1      -5.363  11.198  17.313  0.00  0.00    +0.000 OA
ATOM     17  C   UNL     1      -4.160  10.540  17.713  0.00  0.00    +0.000 C 
ATOM     18  C   UNL     1      -3.230  11.512  18.450  0.00  0.00    +0.000 C 
ENDBRANCH   1  12
BRANCH  10  19
ATOM     19  S   UNL     1       0.701  11.909  20.195  0.00  0.00    +0.000 S 
ATOM     20  O   UNL     1       0.803  12.782  19.046  0.00  0.00    +0.000 OA
ATOM     21  O   UNL     1       1.543  12.139  21.357  0.00  0.00    +0.000 OA
BRANCH  19  22
ATOM     22  C   UNL     1       1.051  10.255  19.627  0.00  0.00    +0.000 A 
ATOM     23  C   UNL     1       1.460  10.054  18.303  0.00  0.00    +0.000 A 
ATOM     24  C   UNL     1       1.947   8.805  17.906  0.00  0.00    +0.000 A 
ATOM     25  C   UNL     1       2.055   7.777  18.839  0.00  0.00    +0.000 A 
ATOM     26  F   UNL     1       2.557   6.593  18.466  0.00  0.00    +0.000 F 
ATOM     27  C   UNL     1       1.684   7.977  20.165  0.00  0.00    +0.000 A 
ATOM     28  C   UNL     1       1.179   9.218  20.563  0.00  0.00    +0.000 A 
ENDBRANCH  19  22
ENDBRANCH  10  19
TORSDOF 3
ENDMDL
MODEL 7
REMARK VINA RESULT:      -7.1      3.118      6.599
REMARK  Name = 
REMARK  3 active torsions:
REMARK  status: ('A' for Active; 'I' for Inactive)
REMARK    1  A    between atoms: C_2  and  C_3
REMARK    2  A    between atoms: N_12  and  S_13
REMARK    3  A    between atoms: S_13  and  C_16
REMARK                            x       y       z     vdW  Elec       q    Type
REMARK                         _______ _______ _______ _____ _____    ______ ____
ROOT
ATOM      1  C   UNL     1       5.463   3.807  16.755  0.00  0.00    +0.000 C 
ATOM      2  C   UNL     1       5.966   4.068  18.218  0.00  0.00    +0.000 C 
ATOM      3  C   UNL     1       6.359   5.522  18.244  0.00  0.00    +0.000 A 
ATOM      4  C   UNL     1       7.629   5.980  18.612  0.00  0.00    +0.000 A 
ATOM      5  C   UNL     1       8.008   7.270  18.281  0.00  0.00    +0.000 A 
ATOM      6  C   UNL     1       7.122   8.133  17.637  0.00  0.00    +0.000 A 
ATOM      7  C   UNL     1       5.829   7.710  17.334  0.00  0.00    +0.000 A 
ATOM      8  C   UNL     1       5.444   6.404  17.622  0.00  0.00    +0.000 A 
ATOM      9  C   UNL     1       4.076   5.851  17.266  0.00  0.00    +0.000 C 
ATOM     10  N   UNL     1       4.087   4.478  16.624  0.00  0.00    +0.000 NA
ENDROOT
BRANCH   1  12
ATOM     11  O   UNL     1       7.744   4.392  16.175  0.00  0.00    +0.000 OA
ATOM     12  C   UNL     1       6.589   4.217  15.742  0.00  0.00    +0.000 C 
ATOM     13  N   UNL     1       6.369   4.334  14.357  0.00  0.00    +0.000 N 
ATOM     14  C   UNL     1       7.564   4.713  13.579  0.00  0.00    +0.000 C 
ATOM     15  C   UNL     1       7.454   4.643  12.053  0.00  0.00    +0.000 C 
ATOM     16  O   UNL     1       6.678   3.525  11.614  0.00  0.00    +0.000 OA
ATOM     17  C   UNL     1       5.358   3.634  12.147  0.00  0.00    +0.000 C 
ATOM     18  C   UNL     1       5.377   3.499  13.675  0.00  0.00    +0.000 C 
ENDBRANCH   1  12
BRANCH  10  19
ATOM     19  S   UNL     1       2.826   3.437  17.223  0.00  0.00    +0.000 S 
ATOM     20  O   UNL     1       1.566   3.957  16.740  0.00  0.00    +0.000 OA
ATOM     21  O   UNL     1       3.201   2.064  16.935  0.00  0.00    +0.000 OA
BRANCH  19  22
ATOM     22  C   UNL     1       2.815   3.603  18.998  0.00  0.00    +0.000 A 
ATOM     23  C   UNL     1       2.115   4.666  19.586  0.00  0.00    +0.000 A 
ATOM     24  C   UNL     1       1.912   4.686  20.969  0.00  0.00    +0.000 A 
ATOM     25  C   UNL     1       2.376   3.632  21.751  0.00  0.00    +0.000 A 
ATOM     26  F   UNL     1       2.147   3.634  23.071  0.00  0.00    +0.000 F 
ATOM     27  C   UNL     1       3.042   2.556  21.173  0.00  0.00    +0.000 A 
ATOM     28  C   UNL     1       3.264   2.538  19.794  0.00  0.00    +0.000 A 
ENDBRANCH  19  22
ENDBRANCH  10  19
TORSDOF 3
ENDMDL
MODEL 8
REMARK VINA RESULT:      -7.0      2.779      3.285
REMARK  Name = 
REMARK  3 active torsions:
REMARK  status: ('A' for Active; 'I' for Inactive)
REMARK    1  A    between atoms: C_2  and  C_3
REMARK    2  A    between atoms: N_12  and  S_13
REMARK    3  A    between atoms: S_13  and  C_16
REMARK                            x       y       z     vdW  Elec       q    Type
REMARK                         _______ _______ _______ _____ _____    ______ ____
ROOT
ATOM      1  C   UNL     1       5.010   5.381  18.682  0.00  0.00    +0.000 C 
ATOM      2  C   UNL     1       5.277   3.936  19.231  0.00  0.00    +0.000 C 
ATOM      3  C   UNL     1       4.012   3.169  18.947  0.00  0.00    +0.000 A 
ATOM      4  C   UNL     1       3.266   2.505  19.927  0.00  0.00    +0.000 A 
ATOM      5  C   UNL     1       1.962   2.130  19.651  0.00  0.00    +0.000 A 
ATOM      6  C   UNL     1       1.405   2.354  18.392  0.00  0.00    +0.000 A 
ATOM      7  C   UNL     1       2.165   2.945  17.386  0.00  0.00    +0.000 A 
ATOM      8  C   UNL     1       3.464   3.368  17.658  0.00  0.00    +0.000 A 
ATOM      9  C   UNL     1       4.331   4.076  16.633  0.00  0.00    +0.000 C 
ATOM     10  N   UNL     1       5.061   5.300  17.149  0.00  0.00    +0.000 NA
ENDROOT
BRANCH   1  12
ATOM     11  O   UNL     1       3.397   5.545  20.486  0.00  0.00    +0.000 OA
ATOM     12  C   UNL     1       3.711   5.955  19.352  0.00  0.00    +0.000 C 
ATOM     13  N   UNL     1       2.921   6.957  18.759  0.00  0.00    +0.000 N 
ATOM     14  C   UNL     1       1.754   7.368  19.563  0.00  0.00    +0.000 C 
ATOM     15  C   UNL     1       0.979   8.601  19.087  0.00  0.00    +0.000 C 
ATOM     16  O   UNL     1       1.839   9.615  18.561  0.00  0.00    +0.000 OA
ATOM     17  C   UNL     1       2.557   9.086  17.445  0.00  0.00    +0.000 C 
ATOM     18  C   UNL     1       3.517   7.977  17.893  0.00  0.00    +0.000 C 
ENDBRANCH   1  12
BRANCH  10  19
ATOM     19  S   UNL     1       6.701   5.406  16.574  0.00  0.00    +0.000 S 
ATOM     20  O   UNL     1       7.111   6.789  16.677  0.00  0.00    +0.000 OA
ATOM     21  O   UNL     1       7.477   4.369  17.232  0.00  0.00    +0.000 OA
BRANCH  19  22
ATOM     22  C   UNL     1       6.670   4.999  14.838  0.00  0.00    +0.000 A 
ATOM     23  C   UNL     1       7.654   5.523  13.990  0.00  0.00    +0.000 A 
ATOM     24  C   UNL     1       7.775   5.043  12.682  0.00  0.00    +0.000 A 
ATOM     25  C   UNL     1       6.940   4.020  12.241  0.00  0.00    +0.000 A 
ATOM     26  F   UNL     1       7.082   3.535  11.001  0.00  0.00    +0.000 F 
ATOM     27  C   UNL     1       5.982   3.469  13.087  0.00  0.00    +0.000 A 
ATOM     28  C   UNL     1       5.844   3.957  14.389  0.00  0.00    +0.000 A 
ENDBRANCH  19  22
ENDBRANCH  10  19
TORSDOF 3
ENDMDL
MODEL 9
REMARK VINA RESULT:      -6.9      4.900      8.370
REMARK  Name = 
REMARK  3 active torsions:
REMARK  status: ('A' for Active; 'I' for Inactive)
REMARK    1  A    between atoms: C_2  and  C_3
REMARK    2  A    between atoms: N_12  and  S_13
REMARK    3  A    between atoms: S_13  and  C_16
REMARK                            x       y       z     vdW  Elec       q    Type
REMARK                         _______ _______ _______ _____ _____    ______ ____
ROOT
ATOM      1  C   UNL     1       0.144  11.860  22.032  0.00  0.00    +0.000 C 
ATOM      2  C   UNL     1      -1.121  11.716  22.949  0.00  0.00    +0.000 C 
ATOM      3  C   UNL     1      -2.250  12.321  22.156  0.00  0.00    +0.000 A 
ATOM      4  C   UNL     1      -3.057  13.365  22.621  0.00  0.00    +0.000 A 
ATOM      5  C   UNL     1      -3.825  14.083  21.720  0.00  0.00    +0.000 A 
ATOM      6  C   UNL     1      -3.847  13.742  20.368  0.00  0.00    +0.000 A 
ATOM      7  C   UNL     1      -3.105  12.657  19.908  0.00  0.00    +0.000 A 
ATOM      8  C   UNL     1      -2.294  11.949  20.792  0.00  0.00    +0.000 A 
ATOM      9  C   UNL     1      -1.410  10.796  20.355  0.00  0.00    +0.000 C 
ATOM     10  N   UNL     1       0.003  10.830  20.902  0.00  0.00    +0.000 NA
ENDROOT
BRANCH   1  12
ATOM     11  O   UNL     1       0.178  14.234  22.526  0.00  0.00    +0.000 OA
ATOM     12  C   UNL     1       0.330  13.369  21.642  0.00  0.00    +0.000 C 
ATOM     13  N   UNL     1       0.722  13.786  20.358  0.00  0.00    +0.000 N 
ATOM     14  C   UNL     1       0.856  15.248  20.206  0.00  0.00    +0.000 C 
ATOM     15  C   UNL     1       1.491  15.759  18.908  0.00  0.00    +0.000 C 
ATOM     16  O   UNL     1       2.560  14.924  18.459  0.00  0.00    +0.000 OA
ATOM     17  C   UNL     1       2.057  13.609  18.217  0.00  0.00    +0.000 C 
ATOM     18  C   UNL     1       1.595  12.955  19.526  0.00  0.00    +0.000 C 
ENDBRANCH   1  12
BRANCH  10  19
ATOM     19  S   UNL     1       0.573   9.264  21.410  0.00  0.00    +0.000 S 
ATOM     20  O   UNL     1       1.608   9.477  22.398  0.00  0.00    +0.000 OA
ATOM     21  O   UNL     1      -0.584   8.448  21.735  0.00  0.00    +0.000 OA
BRANCH  19  22
ATOM     22  C   UNL     1       1.351   8.510  19.993  0.00  0.00    +0.000 A 
ATOM     23  C   UNL     1       1.547   9.267  18.831  0.00  0.00    +0.000 A 
ATOM     24  C   UNL     1       2.346   8.764  17.799  0.00  0.00    +0.000 A 
ATOM     25  C   UNL     1       2.970   7.529  17.947  0.00  0.00    +0.000 A 
ATOM     26  F   UNL     1       3.765   7.066  16.974  0.00  0.00    +0.000 F 
ATOM     27  C   UNL     1       2.809   6.785  19.112  0.00  0.00    +0.000 A 
ATOM     28  C   UNL     1       1.998   7.273  20.139  0.00  0.00    +0.000 A 
ENDBRANCH  19  22
ENDBRANCH  10  19
TORSDOF 3
ENDMDL
