MODEL 1
REMARK VINA RESULT:      -7.8      0.000      0.000
REMARK  Name = 
REMARK  15 active torsions:
REMARK  status: ('A' for Active; 'I' for Inactive)
REMARK    1  A    between atoms: C_1  and  C_2
REMARK    2  A    between atoms: C_2  and  N_3
REMARK    3  A    between atoms: N_3  and  C_4
REMARK    4  A    between atoms: N_3  and  C_11
REMARK    5  A    between atoms: C_4  and  C_5
REMARK    6  A    between atoms: C_17  and  O_18
REMARK    7  A    between atoms: O_18  and  C_19
REMARK    8  A    between atoms: C_20  and  O_21
REMARK    9  A    between atoms: O_21  and  C_22
REMARK   10  A    between atoms: C_24  and  C_25
REMARK   11  A    between atoms: C_25  and  O_26
REMARK   12  A    between atoms: O_26  and  C_27
REMARK   13  A    between atoms: C_29  and  O_30
REMARK   14  A    between atoms: O_30  and  C_31
REMARK   15  A    between atoms: C_32  and  C_33
REMARK                            x       y       z     vdW  Elec       q    Type
REMARK                         _______ _______ _______ _____ _____    ______ ____
ROOT
ATOM      1  C   UNL     1       0.751   9.405  19.898  0.00  0.00    +0.000 A 
ATOM      2  C   UNL     1       0.356   9.498  18.573  0.00  0.00    +0.000 A 
ATOM      3  C   UNL     1       1.343   9.149  17.664  0.00  0.00    +0.000 A 
ATOM      4  C   UNL     1       2.217   8.119  17.986  0.00  0.00    +0.000 A 
ATOM      5  C   UNL     1       2.510   7.801  19.286  0.00  0.00    +0.000 A 
ATOM      6  N   UNL     1       3.383   6.776  19.383  0.00  0.00    +0.000 NA
ATOM      7  C   UNL     1       3.039   5.675  20.062  0.00  0.00    +0.000 A 
ATOM      8  C   UNL     1       1.751   5.642  20.581  0.00  0.00    +0.000 A 
ATOM      9  C   UNL     1       1.012   4.321  20.578  0.00  0.00    +0.000 C 
ATOM     10  C   UNL     1       1.054   6.912  20.762  0.00  0.00    +0.000 A 
ATOM     11  C   UNL     1       1.515   8.161  20.192  0.00  0.00    +0.000 A 
ENDROOT
BRANCH   1  12
ATOM     12  N   UNL     1       0.898  10.668  20.556  0.00  0.00    +0.000 N 
BRANCH  12  14
ATOM     13  C   UNL     1       2.238  13.000  20.540  0.00  0.00    +0.000 C 
ATOM     14  C   UNL     1       1.314  11.966  19.874  0.00  0.00    +0.000 C 
ENDBRANCH  12  14
BRANCH  12  15
ATOM     15  C   UNL     1       0.175  10.938  21.825  0.00  0.00    +0.000 C 
BRANCH  15  16
ATOM     16  C   UNL     1      -0.969  11.952  21.710  0.00  0.00    +0.000 A 
ATOM     17  C   UNL     1      -1.928  11.890  20.698  0.00  0.00    +0.000 A 
ATOM     18  C   UNL     1      -2.980  12.806  20.688  0.00  0.00    +0.000 A 
ATOM     19  N   UNL     1      -3.155  13.761  21.619  0.00  0.00    +0.000 NA
ATOM     20  C   UNL     1      -2.219  13.819  22.592  0.00  0.00    +0.000 A 
ATOM     21  C   UNL     1      -1.128  12.961  22.677  0.00  0.00    +0.000 A 
ENDBRANCH  15  16
ENDBRANCH  12  15
ENDBRANCH   1  12
BRANCH   7  22
ATOM     22  O   UNL     1       3.800   4.594  19.694  0.00  0.00    +0.000 OA
BRANCH  22  23
ATOM     23  C   UNL     1       4.504   4.396  18.512  0.00  0.00    +0.000 A 
ATOM     24  C   UNL     1       5.869   4.746  18.532  0.00  0.00    +0.000 A 
ATOM     25  C   UNL     1       6.660   4.722  17.346  0.00  0.00    +0.000 A 
ATOM     26  C   UNL     1       6.082   4.439  16.123  0.00  0.00    +0.000 A 
ATOM     27  C   UNL     1       4.744   4.011  16.106  0.00  0.00    +0.000 A 
ATOM     28  C   UNL     1       3.957   3.961  17.285  0.00  0.00    +0.000 A 
BRANCH  24  29
ATOM     29  O   UNL     1       6.641   5.135  19.589  0.00  0.00    +0.000 OA
ATOM     30  C   UNL     1       7.897   5.760  19.395  0.00  0.00    +0.000 C 
ENDBRANCH  24  29
BRANCH  28  31
ATOM     31  O   UNL     1       2.654   3.553  17.256  0.00  0.00    +0.000 OA
ATOM     32  C   UNL     1       2.349   2.241  17.680  0.00  0.00    +0.000 C 
ENDBRANCH  28  31
BRANCH  26  33
ATOM     33  C   UNL     1       6.871   4.585  14.840  0.00  0.00    +0.000 C 
BRANCH  33  34
ATOM     34  O   UNL     1       6.490   3.580  13.904  0.00  0.00    +0.000 OA
ATOM     35  C   UNL     1       6.627   4.040  12.564  0.00  0.00    +0.000 C 
ENDBRANCH  33  34
ENDBRANCH  26  33
ENDBRANCH  22  23
ENDBRANCH   7  22
TORSDOF 10
ENDMDL
MODEL 2
REMARK VINA RESULT:      -7.7      1.229      1.920
REMARK  Name = 
REMARK  15 active torsions:
REMARK  status: ('A' for Active; 'I' for Inactive)
REMARK    1  A    between atoms: C_1  and  C_2
REMARK    2  A    between atoms: C_2  and  N_3
REMARK    3  A    between atoms: N_3  and  C_4
REMARK    4  A    between atoms: N_3  and  C_11
REMARK    5  A    between atoms: C_4  and  C_5
REMARK    6  A    between atoms: C_17  and  O_18
REMARK    7  A    between atoms: O_18  and  C_19
REMARK    8  A    between atoms: C_20  and  O_21
REMARK    9  A    between atoms: O_21  and  C_22
REMARK   10  A    between atoms: C_24  and  C_25
REMARK   11  A    between atoms: C_25  and  O_26
REMARK   12  A    between atoms: O_26  and  C_27
REMARK   13  A    between atoms: C_29  and  O_30
REMARK   14  A    between atoms: O_30  and  C_31
REMARK   15  A    between atoms: C_32  and  C_33
REMARK                            x       y       z     vdW  Elec       q    Type
REMARK                         _______ _______ _______ _____ _____    ______ ____
ROOT
ATOM      1  C   UNL     1       0.673   9.148  20.041  0.00  0.00    +0.000 A 
ATOM      2  C   UNL     1       0.336   9.316  18.708  0.00  0.00    +0.000 A 
ATOM      3  C   UNL     1       1.373   9.051  17.825  0.00  0.00    +0.000 A 
ATOM      4  C   UNL     1       2.259   8.025  18.123  0.00  0.00    +0.000 A 
ATOM      5  C   UNL     1       2.503   7.631  19.412  0.00  0.00    +0.000 A 
ATOM      6  N   UNL     1       3.399   6.624  19.485  0.00  0.00    +0.000 NA
ATOM      7  C   UNL     1       3.055   5.473  20.076  0.00  0.00    +0.000 A 
ATOM      8  C   UNL     1       1.746   5.375  20.532  0.00  0.00    +0.000 A 
ATOM      9  C   UNL     1       1.046   4.039  20.410  0.00  0.00    +0.000 C 
ATOM     10  C   UNL     1       1.007   6.613  20.760  0.00  0.00    +0.000 A 
ATOM     11  C   UNL     1       1.459   7.907  20.291  0.00  0.00    +0.000 A 
ENDROOT
BRANCH   1  12
ATOM     12  N   UNL     1       0.756  10.369  20.784  0.00  0.00    +0.000 N 
BRANCH  12  14
ATOM     13  C   UNL     1      -1.037  11.043  22.672  0.00  0.00    +0.000 C 
ATOM     14  C   UNL     1       0.349  10.533  22.244  0.00  0.00    +0.000 C 
ENDBRANCH  12  14
BRANCH  12  15
ATOM     15  C   UNL     1       1.706  11.433  20.370  0.00  0.00    +0.000 C 
BRANCH  15  16
ATOM     16  C   UNL     1       1.057  12.781  20.037  0.00  0.00    +0.000 A 
ATOM     17  C   UNL     1       1.355  13.951  20.736  0.00  0.00    +0.000 A 
ATOM     18  C   UNL     1       0.777  15.157  20.339  0.00  0.00    +0.000 A 
ATOM     19  N   UNL     1      -0.058  15.283  19.291  0.00  0.00    +0.000 NA
ATOM     20  C   UNL     1      -0.348  14.144  18.624  0.00  0.00    +0.000 A 
ATOM     21  C   UNL     1       0.167  12.895  18.953  0.00  0.00    +0.000 A 
ENDBRANCH  15  16
ENDBRANCH  12  15
ENDBRANCH   1  12
BRANCH   7  22
ATOM     22  O   UNL     1       3.861   4.437  19.677  0.00  0.00    +0.000 OA
BRANCH  22  23
ATOM     23  C   UNL     1       4.520   4.275  18.464  0.00  0.00    +0.000 A 
ATOM     24  C   UNL     1       5.875   4.663  18.432  0.00  0.00    +0.000 A 
ATOM     25  C   UNL     1       6.617   4.676  17.214  0.00  0.00    +0.000 A 
ATOM     26  C   UNL     1       5.997   4.394  16.013  0.00  0.00    +0.000 A 
ATOM     27  C   UNL     1       4.671   3.929  16.045  0.00  0.00    +0.000 A 
ATOM     28  C   UNL     1       3.935   3.840  17.255  0.00  0.00    +0.000 A 
BRANCH  24  29
ATOM     29  O   UNL     1       6.679   5.060  19.462  0.00  0.00    +0.000 OA
ATOM     30  C   UNL     1       7.866   5.798  19.231  0.00  0.00    +0.000 C 
ENDBRANCH  24  29
BRANCH  28  31
ATOM     31  O   UNL     1       2.645   3.397  17.273  0.00  0.00    +0.000 OA
ATOM     32  C   UNL     1       2.388   2.090  17.745  0.00  0.00    +0.000 C 
ENDBRANCH  28  31
BRANCH  26  33
ATOM     33  C   UNL     1       6.727   4.579  14.701  0.00  0.00    +0.000 C 
BRANCH  33  34
ATOM     34  O   UNL     1       5.917   4.139  13.614  0.00  0.00    +0.000 OA
ATOM     35  C   UNL     1       6.712   3.679  12.527  0.00  0.00    +0.000 C 
ENDBRANCH  33  34
ENDBRANCH  26  33
ENDBRANCH  22  23
ENDBRANCH   7  22
TORSDOF 10
ENDMDL
MODEL 3
REMARK VINA RESULT:      -7.4      1.409      2.976
REMARK  Name = 
REMARK  15 active torsions:
REMARK  status: ('A' for Active; 'I' for Inactive)
REMARK    1  A    between atoms: C_1  and  C_2
REMARK    2  A    between atoms: C_2  and  N_3
REMARK    3  A    between atoms: N_3  and  C_4
REMARK    4  A    between atoms: N_3  and  C_11
REMARK    5  A    between atoms: C_4  and  C_5
REMARK    6  A    between atoms: C_17  and  O_18
REMARK    7  A    between atoms: O_18  and  C_19
REMARK    8  A    between atoms: C_20  and  O_21
REMARK    9  A    between atoms: O_21  and  C_22
REMARK   10  A    between atoms: C_24  and  C_25
REMARK   11  A    between atoms: C_25  and  O_26
REMARK   12  A    between atoms: O_26  and  C_27
REMARK   13  A    between atoms: C_29  and  O_30
REMARK   14  A    between atoms: O_30  and  C_31
REMARK   15  A    between atoms: C_32  and  C_33
REMARK                            x       y       z     vdW  Elec       q    Type
REMARK                         _______ _______ _______ _____ _____    ______ ____
ROOT
ATOM      1  C   UNL     1       0.471   9.468  20.158  0.00  0.00    +0.000 A 
ATOM      2  C   UNL     1      -0.013   9.611  18.868  0.00  0.00    +0.000 A 
ATOM      3  C   UNL     1       0.940   9.406  17.881  0.00  0.00    +0.000 A 
ATOM      4  C   UNL     1       1.912   8.435  18.081  0.00  0.00    +0.000 A 
ATOM      5  C   UNL     1       2.313   8.061  19.336  0.00  0.00    +0.000 A 
ATOM      6  N   UNL     1       3.270   7.110  19.312  0.00  0.00    +0.000 NA
ATOM      7  C   UNL     1       3.060   5.942  19.931  0.00  0.00    +0.000 A 
ATOM      8  C   UNL     1       1.814   5.767  20.522  0.00  0.00    +0.000 A 
ATOM      9  C   UNL     1       1.186   4.391  20.470  0.00  0.00    +0.000 C 
ATOM     10  C   UNL     1       1.030   6.959  20.830  0.00  0.00    +0.000 A 
ATOM     11  C   UNL     1       1.351   8.277  20.321  0.00  0.00    +0.000 A 
ENDROOT
BRANCH   1  12
ATOM     12  N   UNL     1       0.558  10.694  20.892  0.00  0.00    +0.000 N 
BRANCH  12  14
ATOM     13  C   UNL     1      -0.678   9.809  23.112  0.00  0.00    +0.000 C 
ATOM     14  C   UNL     1      -0.054  10.934  22.268  0.00  0.00    +0.000 C 
ENDBRANCH  12  14
BRANCH  12  15
ATOM     15  C   UNL     1       1.661  11.650  20.623  0.00  0.00    +0.000 C 
BRANCH  15  16
ATOM     16  C   UNL     1       1.237  12.939  19.911  0.00  0.00    +0.000 A 
ATOM     17  C   UNL     1      -0.102  13.284  19.718  0.00  0.00    +0.000 A 
ATOM     18  C   UNL     1      -0.419  14.503  19.119  0.00  0.00    +0.000 A 
ATOM     19  N   UNL     1       0.494  15.405  18.718  0.00  0.00    +0.000 NA
ATOM     20  C   UNL     1       1.788  15.061  18.901  0.00  0.00    +0.000 A 
ATOM     21  C   UNL     1       2.202  13.864  19.475  0.00  0.00    +0.000 A 
ENDBRANCH  15  16
ENDBRANCH  12  15
ENDBRANCH   1  12
BRANCH   7  22
ATOM     22  O   UNL     1       3.880   4.955  19.447  0.00  0.00    +0.000 OA
BRANCH  22  23
ATOM     23  C   UNL     1       4.556   4.914  18.233  0.00  0.00    +0.000 A 
ATOM     24  C   UNL     1       3.899   4.256  17.174  0.00  0.00    +0.000 A 
ATOM     25  C   UNL     1       4.547   4.027  15.924  0.00  0.00    +0.000 A 
ATOM     26  C   UNL     1       5.875   4.366  15.751  0.00  0.00    +0.000 A 
ATOM     27  C   UNL     1       6.511   5.094  16.770  0.00  0.00    +0.000 A 
ATOM     28  C   UNL     1       5.863   5.395  17.996  0.00  0.00    +0.000 A 
BRANCH  24  29
ATOM     29  O   UNL     1       2.628   3.758  17.128  0.00  0.00    +0.000 OA
ATOM     30  C   UNL     1       2.328   2.457  17.598  0.00  0.00    +0.000 C 
ENDBRANCH  24  29
BRANCH  28  31
ATOM     31  O   UNL     1       6.493   6.094  18.984  0.00  0.00    +0.000 OA
ATOM     32  C   UNL     1       7.847   5.799  19.260  0.00  0.00    +0.000 C 
ENDBRANCH  28  31
BRANCH  26  33
ATOM     33  C   UNL     1       6.620   3.967  14.496  0.00  0.00    +0.000 C 
BRANCH  33  34
ATOM     34  O   UNL     1       5.704   3.656  13.450  0.00  0.00    +0.000 OA
ATOM     35  C   UNL     1       6.377   3.460  12.211  0.00  0.00    +0.000 C 
ENDBRANCH  33  34
ENDBRANCH  26  33
ENDBRANCH  22  23
ENDBRANCH   7  22
TORSDOF 10
ENDMDL
MODEL 4
REMARK VINA RESULT:      -7.3      3.442      9.497
REMARK  Name = 
REMARK  15 active torsions:
REMARK  status: ('A' for Active; 'I' for Inactive)
REMARK    1  A    between atoms: C_1  and  C_2
REMARK    2  A    between atoms: C_2  and  N_3
REMARK    3  A    between atoms: N_3  and  C_4
REMARK    4  A    between atoms: N_3  and  C_11
REMARK    5  A    between atoms: C_4  and  C_5
REMARK    6  A    between atoms: C_17  and  O_18
REMARK    7  A    between atoms: O_18  and  C_19
REMARK    8  A    between atoms: C_20  and  O_21
REMARK    9  A    between atoms: O_21  and  C_22
REMARK   10  A    between atoms: C_24  and  C_25
REMARK   11  A    between atoms: C_25  and  O_26
REMARK   12  A    between atoms: O_26  and  C_27
REMARK   13  A    between atoms: C_29  and  O_30
REMARK   14  A    between atoms: O_30  and  C_31
REMARK   15  A    between atoms: C_32  and  C_33
REMARK                            x       y       z     vdW  Elec       q    Type
REMARK                         _______ _______ _______ _____ _____    ______ ____
ROOT
ATOM      1  C   UNL     1       3.924   5.379  18.029  0.00  0.00    +0.000 A 
ATOM      2  C   UNL     1       5.243   5.802  18.089  0.00  0.00    +0.000 A 
ATOM      3  C   UNL     1       5.485   6.991  17.418  0.00  0.00    +0.000 A 
ATOM      4  C   UNL     1       4.509   7.979  17.431  0.00  0.00    +0.000 A 
ATOM      5  C   UNL     1       3.181   7.680  17.585  0.00  0.00    +0.000 A 
ATOM      6  N   UNL     1       2.398   8.779  17.563  0.00  0.00    +0.000 NA
ATOM      7  C   UNL     1       1.607   9.050  18.609  0.00  0.00    +0.000 A 
ATOM      8  C   UNL     1       1.695   8.187  19.695  0.00  0.00    +0.000 A 
ATOM      9  C   UNL     1       1.575   8.773  21.085  0.00  0.00    +0.000 C 
ATOM     10  C   UNL     1       2.249   6.856  19.467  0.00  0.00    +0.000 A 
ATOM     11  C   UNL     1       2.948   6.482  18.255  0.00  0.00    +0.000 A 
ENDROOT
BRANCH   1  12
ATOM     12  N   UNL     1       3.718   4.214  17.222  0.00  0.00    +0.000 N 
BRANCH  12  14
ATOM     13  C   UNL     1       5.342   4.211  15.078  0.00  0.00    +0.000 C 
ATOM     14  C   UNL     1       4.782   3.555  16.351  0.00  0.00    +0.000 C 
ENDBRANCH  12  14
BRANCH  12  15
ATOM     15  C   UNL     1       2.630   3.260  17.552  0.00  0.00    +0.000 C 
BRANCH  15  16
ATOM     16  C   UNL     1       2.459   2.970  19.048  0.00  0.00    +0.000 A 
ATOM     17  C   UNL     1       3.504   2.502  19.846  0.00  0.00    +0.000 A 
ATOM     18  C   UNL     1       3.298   2.320  21.213  0.00  0.00    +0.000 A 
ATOM     19  N   UNL     1       2.139   2.586  21.841  0.00  0.00    +0.000 NA
ATOM     20  C   UNL     1       1.129   3.031  21.061  0.00  0.00    +0.000 A 
ATOM     21  C   UNL     1       1.234   3.229  19.689  0.00  0.00    +0.000 A 
ENDBRANCH  15  16
ENDBRANCH  12  15
ENDBRANCH   1  12
BRANCH   7  22
ATOM     22  O   UNL     1       1.246  10.373  18.644  0.00  0.00    +0.000 OA
BRANCH  22  23
ATOM     23  C   UNL     1       0.105  10.941  19.198  0.00  0.00    +0.000 A 
ATOM     24  C   UNL     1      -1.105  10.705  18.514  0.00  0.00    +0.000 A 
ATOM     25  C   UNL     1      -2.317  11.348  18.904  0.00  0.00    +0.000 A 
ATOM     26  C   UNL     1      -2.317  12.293  19.911  0.00  0.00    +0.000 A 
ATOM     27  C   UNL     1      -1.135  12.474  20.650  0.00  0.00    +0.000 A 
ATOM     28  C   UNL     1       0.066  11.792  20.324  0.00  0.00    +0.000 A 
BRANCH  24  29
ATOM     29  O   UNL     1      -1.344   9.887  17.448  0.00  0.00    +0.000 OA
ATOM     30  C   UNL     1      -2.655   9.681  16.954  0.00  0.00    +0.000 C 
ENDBRANCH  24  29
BRANCH  28  31
ATOM     31  O   UNL     1       1.211  11.983  21.041  0.00  0.00    +0.000 OA
ATOM     32  C   UNL     1       2.023  13.096  20.732  0.00  0.00    +0.000 C 
ENDBRANCH  28  31
BRANCH  26  33
ATOM     33  C   UNL     1      -3.556  13.108  20.211  0.00  0.00    +0.000 C 
BRANCH  33  34
ATOM     34  O   UNL     1      -4.267  12.547  21.310  0.00  0.00    +0.000 OA
ATOM     35  C   UNL     1      -4.382  13.475  22.383  0.00  0.00    +0.000 C 
ENDBRANCH  33  34
ENDBRANCH  26  33
ENDBRANCH  22  23
ENDBRANCH   7  22
TORSDOF 10
ENDMDL
MODEL 5
REMARK VINA RESULT:      -7.2      3.628      9.511
REMARK  Name = 
REMARK  15 active torsions:
REMARK  status: ('A' for Active; 'I' for Inactive)
REMARK    1  A    between atoms: C_1  and  C_2
REMARK    2  A    between atoms: C_2  and  N_3
REMARK    3  A    between atoms: N_3  and  C_4
REMARK    4  A    between atoms: N_3  and  C_11
REMARK    5  A    between atoms: C_4  and  C_5
REMARK    6  A    between atoms: C_17  and  O_18
REMARK    7  A    between atoms: O_18  and  C_19
REMARK    8  A    between atoms: C_20  and  O_21
REMARK    9  A    between atoms: O_21  and  C_22
REMARK   10  A    between atoms: C_24  and  C_25
REMARK   11  A    between atoms: C_25  and  O_26
REMARK   12  A    between atoms: O_26  and  C_27
REMARK   13  A    between atoms: C_29  and  O_30
REMARK   14  A    between atoms: O_30  and  C_31
REMARK   15  A    between atoms: C_32  and  C_33
REMARK                            x       y       z     vdW  Elec       q    Type
REMARK                         _______ _______ _______ _____ _____    ______ ____
ROOT
ATOM      1  C   UNL     1       3.674   5.626  18.104  0.00  0.00    +0.000 A 
ATOM      2  C   UNL     1       4.951   6.144  17.961  0.00  0.00    +0.000 A 
ATOM      3  C   UNL     1       5.005   7.315  17.219  0.00  0.00    +0.000 A 
ATOM      4  C   UNL     1       3.967   8.230  17.335  0.00  0.00    +0.000 A 
ATOM      5  C   UNL     1       2.701   7.845  17.688  0.00  0.00    +0.000 A 
ATOM      6  N   UNL     1       1.840   8.883  17.739  0.00  0.00    +0.000 NA
ATOM      7  C   UNL     1       1.184   9.145  18.876  0.00  0.00    +0.000 A 
ATOM      8  C   UNL     1       1.489   8.342  19.969  0.00  0.00    +0.000 A 
ATOM      9  C   UNL     1       1.519   8.983  21.339  0.00  0.00    +0.000 C 
ATOM     10  C   UNL     1       2.107   7.045  19.713  0.00  0.00    +0.000 A 
ATOM     11  C   UNL     1       2.656   6.665  18.428  0.00  0.00    +0.000 A 
ENDROOT
BRANCH   1  12
ATOM     12  N   UNL     1       3.448   4.413  17.379  0.00  0.00    +0.000 N 
BRANCH  12  14
ATOM     13  C   UNL     1       5.106   4.223  15.269  0.00  0.00    +0.000 C 
ATOM     14  C   UNL     1       4.505   3.668  16.571  0.00  0.00    +0.000 C 
ENDBRANCH  12  14
BRANCH  12  15
ATOM     15  C   UNL     1       2.331   3.511  17.758  0.00  0.00    +0.000 C 
BRANCH  15  16
ATOM     16  C   UNL     1       2.242   3.192  19.255  0.00  0.00    +0.000 A 
ATOM     17  C   UNL     1       1.067   3.357  19.989  0.00  0.00    +0.000 A 
ATOM     18  C   UNL     1       1.036   2.987  21.333  0.00  0.00    +0.000 A 
ATOM     19  N   UNL     1       2.081   2.451  21.990  0.00  0.00    +0.000 NA
ATOM     20  C   UNL     1       3.218   2.301  21.275  0.00  0.00    +0.000 A 
ATOM     21  C   UNL     1       3.348   2.655  19.936  0.00  0.00    +0.000 A 
ENDBRANCH  15  16
ENDBRANCH  12  15
ENDBRANCH   1  12
BRANCH   7  22
ATOM     22  O   UNL     1       0.730  10.439  18.914  0.00  0.00    +0.000 OA
BRANCH  22  23
ATOM     23  C   UNL     1      -0.540  10.898  19.244  0.00  0.00    +0.000 A 
ATOM     24  C   UNL     1      -1.577  10.565  18.349  0.00  0.00    +0.000 A 
ATOM     25  C   UNL     1      -2.892  11.094  18.504  0.00  0.00    +0.000 A 
ATOM     26  C   UNL     1      -3.161  12.024  19.490  0.00  0.00    +0.000 A 
ATOM     27  C   UNL     1      -2.158  12.300  20.433  0.00  0.00    +0.000 A 
ATOM     28  C   UNL     1      -0.861  11.730  20.339  0.00  0.00    +0.000 A 
BRANCH  24  29
ATOM     29  O   UNL     1      -1.541   9.741  17.261  0.00  0.00    +0.000 OA
ATOM     30  C   UNL     1      -2.349   9.983  16.124  0.00  0.00    +0.000 C 
ENDBRANCH  24  29
BRANCH  28  31
ATOM     31  O   UNL     1       0.110  12.012  21.255  0.00  0.00    +0.000 OA
ATOM     32  C   UNL     1       0.800  13.240  21.149  0.00  0.00    +0.000 C 
ENDBRANCH  28  31
BRANCH  26  33
ATOM     33  C   UNL     1      -4.502  12.724  19.551  0.00  0.00    +0.000 C 
BRANCH  33  34
ATOM     34  O   UNL     1      -5.219  12.325  20.716  0.00  0.00    +0.000 OA
ATOM     35  C   UNL     1      -6.443  11.682  20.376  0.00  0.00    +0.000 C 
ENDBRANCH  33  34
ENDBRANCH  26  33
ENDBRANCH  22  23
ENDBRANCH   7  22
TORSDOF 10
ENDMDL
MODEL 6
REMARK VINA RESULT:      -7.2      3.491      9.270
REMARK  Name = 
REMARK  15 active torsions:
REMARK  status: ('A' for Active; 'I' for Inactive)
REMARK    1  A    between atoms: C_1  and  C_2
REMARK    2  A    between atoms: C_2  and  N_3
REMARK    3  A    between atoms: N_3  and  C_4
REMARK    4  A    between atoms: N_3  and  C_11
REMARK    5  A    between atoms: C_4  and  C_5
REMARK    6  A    between atoms: C_17  and  O_18
REMARK    7  A    between atoms: O_18  and  C_19
REMARK    8  A    between atoms: C_20  and  O_21
REMARK    9  A    between atoms: O_21  and  C_22
REMARK   10  A    between atoms: C_24  and  C_25
REMARK   11  A    between atoms: C_25  and  O_26
REMARK   12  A    between atoms: O_26  and  C_27
REMARK   13  A    between atoms: C_29  and  O_30
REMARK   14  A    between atoms: O_30  and  C_31
REMARK   15  A    between atoms: C_32  and  C_33
REMARK                            x       y       z     vdW  Elec       q    Type
REMARK                         _______ _______ _______ _____ _____    ______ ____
ROOT
ATOM      1  C   UNL     1       3.890   5.341  18.046  0.00  0.00    +0.000 A 
ATOM      2  C   UNL     1       5.217   5.714  18.182  0.00  0.00    +0.000 A 
ATOM      3  C   UNL     1       5.548   6.881  17.509  0.00  0.00    +0.000 A 
ATOM      4  C   UNL     1       4.613   7.905  17.444  0.00  0.00    +0.000 A 
ATOM      5  C   UNL     1       3.267   7.661  17.519  0.00  0.00    +0.000 A 
ATOM      6  N   UNL     1       2.531   8.788  17.430  0.00  0.00    +0.000 NA
ATOM      7  C   UNL     1       1.687   9.108  18.419  0.00  0.00    +0.000 A 
ATOM      8  C   UNL     1       1.673   8.263  19.523  0.00  0.00    +0.000 A 
ATOM      9  C   UNL     1       1.490   8.879  20.892  0.00  0.00    +0.000 C 
ATOM     10  C   UNL     1       2.187   6.907  19.352  0.00  0.00    +0.000 A 
ATOM     11  C   UNL     1       2.945   6.484  18.192  0.00  0.00    +0.000 A 
ENDROOT
BRANCH   1  12
ATOM     12  N   UNL     1       3.689   4.170  17.247  0.00  0.00    +0.000 N 
BRANCH  12  14
ATOM     13  C   UNL     1       5.267   4.152  15.069  0.00  0.00    +0.000 C 
ATOM     14  C   UNL     1       4.752   3.516  16.372  0.00  0.00    +0.000 C 
ENDBRANCH  12  14
BRANCH  12  15
ATOM     15  C   UNL     1       2.612   3.207  17.589  0.00  0.00    +0.000 C 
BRANCH  15  16
ATOM     16  C   UNL     1       2.428   2.953  19.090  0.00  0.00    +0.000 A 
ATOM     17  C   UNL     1       3.456   2.469  19.900  0.00  0.00    +0.000 A 
ATOM     18  C   UNL     1       3.241   2.321  21.270  0.00  0.00    +0.000 A 
ATOM     19  N   UNL     1       2.090   2.636  21.890  0.00  0.00    +0.000 NA
ATOM     20  C   UNL     1       1.096   3.097  21.098  0.00  0.00    +0.000 A 
ATOM     21  C   UNL     1       1.211   3.264  19.722  0.00  0.00    +0.000 A 
ENDBRANCH  15  16
ENDBRANCH  12  15
ENDBRANCH   1  12
BRANCH   7  22
ATOM     22  O   UNL     1       1.377  10.444  18.410  0.00  0.00    +0.000 OA
BRANCH  22  23
ATOM     23  C   UNL     1       0.188  11.056  18.789  0.00  0.00    +0.000 A 
ATOM     24  C   UNL     1       0.283  12.036  19.798  0.00  0.00    +0.000 A 
ATOM     25  C   UNL     1      -0.881  12.632  20.368  0.00  0.00    +0.000 A 
ATOM     26  C   UNL     1      -2.140  12.195  20.007  0.00  0.00    +0.000 A 
ATOM     27  C   UNL     1      -2.246  11.279  18.947  0.00  0.00    +0.000 A 
ATOM     28  C   UNL     1      -1.101  10.725  18.317  0.00  0.00    +0.000 A 
BRANCH  24  29
ATOM     29  O   UNL     1       1.399  12.570  20.375  0.00  0.00    +0.000 OA
ATOM     30  C   UNL     1       2.150  13.584  19.732  0.00  0.00    +0.000 C 
ENDBRANCH  24  29
BRANCH  28  31
ATOM     31  O   UNL     1      -1.214   9.828  17.294  0.00  0.00    +0.000 OA
ATOM     32  C   UNL     1      -2.290   9.968  16.391  0.00  0.00    +0.000 C 
ENDBRANCH  28  31
BRANCH  26  33
ATOM     33  C   UNL     1      -3.372  12.692  20.733  0.00  0.00    +0.000 C 
BRANCH  33  34
ATOM     34  O   UNL     1      -3.173  14.025  21.195  0.00  0.00    +0.000 OA
ATOM     35  C   UNL     1      -3.693  14.202  22.508  0.00  0.00    +0.000 C 
ENDBRANCH  33  34
ENDBRANCH  26  33
ENDBRANCH  22  23
ENDBRANCH   7  22
TORSDOF 10
ENDMDL
MODEL 7
REMARK VINA RESULT:      -7.2      1.463      3.063
REMARK  Name = 
REMARK  15 active torsions:
REMARK  status: ('A' for Active; 'I' for Inactive)
REMARK    1  A    between atoms: C_1  and  C_2
REMARK    2  A    between atoms: C_2  and  N_3
REMARK    3  A    between atoms: N_3  and  C_4
REMARK    4  A    between atoms: N_3  and  C_11
REMARK    5  A    between atoms: C_4  and  C_5
REMARK    6  A    between atoms: C_17  and  O_18
REMARK    7  A    between atoms: O_18  and  C_19
REMARK    8  A    between atoms: C_20  and  O_21
REMARK    9  A    between atoms: O_21  and  C_22
REMARK   10  A    between atoms: C_24  and  C_25
REMARK   11  A    between atoms: C_25  and  O_26
REMARK   12  A    between atoms: O_26  and  C_27
REMARK   13  A    between atoms: C_29  and  O_30
REMARK   14  A    between atoms: O_30  and  C_31
REMARK   15  A    between atoms: C_32  and  C_33
REMARK                            x       y       z     vdW  Elec       q    Type
REMARK                         _______ _______ _______ _____ _____    ______ ____
ROOT
ATOM      1  C   UNL     1       0.421   9.440  20.191  0.00  0.00    +0.000 A 
ATOM      2  C   UNL     1      -0.040   9.596  18.894  0.00  0.00    +0.000 A 
ATOM      3  C   UNL     1       0.937   9.426  17.924  0.00  0.00    +0.000 A 
ATOM      4  C   UNL     1       1.924   8.471  18.127  0.00  0.00    +0.000 A 
ATOM      5  C   UNL     1       2.306   8.083  19.383  0.00  0.00    +0.000 A 
ATOM      6  N   UNL     1       3.282   7.151  19.363  0.00  0.00    +0.000 NA
ATOM      7  C   UNL     1       3.082   5.969  19.958  0.00  0.00    +0.000 A 
ATOM      8  C   UNL     1       1.828   5.759  20.520  0.00  0.00    +0.000 A 
ATOM      9  C   UNL     1       1.229   4.373  20.431  0.00  0.00    +0.000 C 
ATOM     10  C   UNL     1       1.015   6.931  20.832  0.00  0.00    +0.000 A 
ATOM     11  C   UNL     1       1.321   8.263  20.352  0.00  0.00    +0.000 A 
ENDROOT
BRANCH   1  12
ATOM     12  N   UNL     1       0.468  10.654  20.947  0.00  0.00    +0.000 N 
BRANCH  12  14
ATOM     13  C   UNL     1      -0.417   9.816  23.345  0.00  0.00    +0.000 C 
ATOM     14  C   UNL     1      -0.269  10.896  22.260  0.00  0.00    +0.000 C 
ENDBRANCH  12  14
BRANCH  12  15
ATOM     15  C   UNL     1       1.619  11.581  20.802  0.00  0.00    +0.000 C 
BRANCH  15  16
ATOM     16  C   UNL     1       1.287  12.918  20.131  0.00  0.00    +0.000 A 
ATOM     17  C   UNL     1       2.269  13.848  19.783  0.00  0.00    +0.000 A 
ATOM     18  C   UNL     1       1.904  15.017  19.116  0.00  0.00    +0.000 A 
ATOM     19  N   UNL     1       0.643  15.318  18.758  0.00  0.00    +0.000 NA
ATOM     20  C   UNL     1      -0.303  14.417  19.105  0.00  0.00    +0.000 A 
ATOM     21  C   UNL     1      -0.039  13.232  19.782  0.00  0.00    +0.000 A 
ENDBRANCH  15  16
ENDBRANCH  12  15
ENDBRANCH   1  12
BRANCH   7  22
ATOM     22  O   UNL     1       3.932   5.006  19.474  0.00  0.00    +0.000 OA
BRANCH  22  23
ATOM     23  C   UNL     1       4.640   5.004  18.278  0.00  0.00    +0.000 A 
ATOM     24  C   UNL     1       3.999   4.407  17.174  0.00  0.00    +0.000 A 
ATOM     25  C   UNL     1       4.676   4.218  15.933  0.00  0.00    +0.000 A 
ATOM     26  C   UNL     1       6.015   4.535  15.810  0.00  0.00    +0.000 A 
ATOM     27  C   UNL     1       6.638   5.204  16.878  0.00  0.00    +0.000 A 
ATOM     28  C   UNL     1       5.962   5.465  18.098  0.00  0.00    +0.000 A 
BRANCH  24  29
ATOM     29  O   UNL     1       2.719   3.940  17.072  0.00  0.00    +0.000 OA
ATOM     30  C   UNL     1       2.391   2.606  17.415  0.00  0.00    +0.000 C 
ENDBRANCH  24  29
BRANCH  28  31
ATOM     31  O   UNL     1       6.580   6.105  19.132  0.00  0.00    +0.000 OA
ATOM     32  C   UNL     1       7.974   6.319  19.057  0.00  0.00    +0.000 C 
ENDBRANCH  28  31
BRANCH  26  33
ATOM     33  C   UNL     1       6.786   4.175  14.560  0.00  0.00    +0.000 C 
BRANCH  33  34
ATOM     34  O   UNL     1       7.687   5.222  14.211  0.00  0.00    +0.000 OA
ATOM     35  C   UNL     1       7.961   5.227  12.814  0.00  0.00    +0.000 C 
ENDBRANCH  33  34
ENDBRANCH  26  33
ENDBRANCH  22  23
ENDBRANCH   7  22
TORSDOF 10
ENDMDL
MODEL 8
REMARK VINA RESULT:      -7.1      0.755      1.198
REMARK  Name = 
REMARK  15 active torsions:
REMARK  status: ('A' for Active; 'I' for Inactive)
REMARK    1  A    between atoms: C_1  and  C_2
REMARK    2  A    between atoms: C_2  and  N_3
REMARK    3  A    between atoms: N_3  and  C_4
REMARK    4  A    between atoms: N_3  and  C_11
REMARK    5  A    between atoms: C_4  and  C_5
REMARK    6  A    between atoms: C_17  and  O_18
REMARK    7  A    between atoms: O_18  and  C_19
REMARK    8  A    between atoms: C_20  and  O_21
REMARK    9  A    between atoms: O_21  and  C_22
REMARK   10  A    between atoms: C_24  and  C_25
REMARK   11  A    between atoms: C_25  and  O_26
REMARK   12  A    between atoms: O_26  and  C_27
REMARK   13  A    between atoms: C_29  and  O_30
REMARK   14  A    between atoms: O_30  and  C_31
REMARK   15  A    between atoms: C_32  and  C_33
REMARK                            x       y       z     vdW  Elec       q    Type
REMARK                         _______ _______ _______ _____ _____    ______ ____
ROOT
ATOM      1  C   UNL     1       0.703   8.831  20.139  0.00  0.00    +0.000 A 
ATOM      2  C   UNL     1       0.476   9.122  18.803  0.00  0.00    +0.000 A 
ATOM      3  C   UNL     1       1.586   8.944  17.991  0.00  0.00    +0.000 A 
ATOM      4  C   UNL     1       2.456   7.897  18.264  0.00  0.00    +0.000 A 
ATOM      5  C   UNL     1       2.595   7.385  19.527  0.00  0.00    +0.000 A 
ATOM      6  N   UNL     1       3.492   6.378  19.581  0.00  0.00    +0.000 NA
ATOM      7  C   UNL     1       3.113   5.176  20.031  0.00  0.00    +0.000 A 
ATOM      8  C   UNL     1       1.772   5.031  20.363  0.00  0.00    +0.000 A 
ATOM      9  C   UNL     1       1.099   3.710  20.059  0.00  0.00    +0.000 C 
ATOM     10  C   UNL     1       1.003   6.240  20.643  0.00  0.00    +0.000 A 
ATOM     11  C   UNL     1       1.478   7.574  20.337  0.00  0.00    +0.000 A 
ENDROOT
BRANCH   1  12
ATOM     12  N   UNL     1       0.709   9.976  20.996  0.00  0.00    +0.000 N 
BRANCH  12  14
ATOM     13  C   UNL     1       0.171   9.617  23.607  0.00  0.00    +0.000 C 
ATOM     14  C   UNL     1       1.133   9.970  22.461  0.00  0.00    +0.000 C 
ENDBRANCH  12  14
BRANCH  12  15
ATOM     15  C   UNL     1       0.801  11.342  20.420  0.00  0.00    +0.000 C 
BRANCH  15  16
ATOM     16  C   UNL     1      -0.443  12.213  20.628  0.00  0.00    +0.000 A 
ATOM     17  C   UNL     1      -1.536  12.181  19.761  0.00  0.00    +0.000 A 
ATOM     18  C   UNL     1      -2.663  12.952  20.045  0.00  0.00    +0.000 A 
ATOM     19  N   UNL     1      -2.786  13.734  21.132  0.00  0.00    +0.000 NA
ATOM     20  C   UNL     1      -1.720  13.767  21.963  0.00  0.00    +0.000 A 
ATOM     21  C   UNL     1      -0.550  13.046  21.757  0.00  0.00    +0.000 A 
ENDBRANCH  15  16
ENDBRANCH  12  15
ENDBRANCH   1  12
BRANCH   7  22
ATOM     22  O   UNL     1       3.961   4.184  19.606  0.00  0.00    +0.000 OA
BRANCH  22  23
ATOM     23  C   UNL     1       4.621   4.077  18.387  0.00  0.00    +0.000 A 
ATOM     24  C   UNL     1       5.960   4.515  18.360  0.00  0.00    +0.000 A 
ATOM     25  C   UNL     1       6.695   4.586  17.140  0.00  0.00    +0.000 A 
ATOM     26  C   UNL     1       6.080   4.311  15.935  0.00  0.00    +0.000 A 
ATOM     27  C   UNL     1       4.773   3.796  15.960  0.00  0.00    +0.000 A 
ATOM     28  C   UNL     1       4.046   3.651  17.170  0.00  0.00    +0.000 A 
BRANCH  24  29
ATOM     29  O   UNL     1       6.754   4.916  19.397  0.00  0.00    +0.000 OA
ATOM     30  C   UNL     1       7.775   5.880  19.215  0.00  0.00    +0.000 C 
ENDBRANCH  24  29
BRANCH  28  31
ATOM     31  O   UNL     1       2.773   3.159  17.182  0.00  0.00    +0.000 OA
ATOM     32  C   UNL     1       2.568   1.831  17.618  0.00  0.00    +0.000 C 
ENDBRANCH  28  31
BRANCH  26  33
ATOM     33  C   UNL     1       6.797   4.555  14.625  0.00  0.00    +0.000 C 
BRANCH  33  34
ATOM     34  O   UNL     1       6.588   3.464  13.732  0.00  0.00    +0.000 OA
ATOM     35  C   UNL     1       5.772   3.845  12.629  0.00  0.00    +0.000 C 
ENDBRANCH  33  34
ENDBRANCH  26  33
ENDBRANCH  22  23
ENDBRANCH   7  22
TORSDOF 10
ENDMDL
MODEL 9
REMARK VINA RESULT:      -7.1      0.532      2.211
REMARK  Name = 
REMARK  15 active torsions:
REMARK  status: ('A' for Active; 'I' for Inactive)
REMARK    1  A    between atoms: C_1  and  C_2
REMARK    2  A    between atoms: C_2  and  N_3
REMARK    3  A    between atoms: N_3  and  C_4
REMARK    4  A    between atoms: N_3  and  C_11
REMARK    5  A    between atoms: C_4  and  C_5
REMARK    6  A    between atoms: C_17  and  O_18
REMARK    7  A    between atoms: O_18  and  C_19
REMARK    8  A    between atoms: C_20  and  O_21
REMARK    9  A    between atoms: O_21  and  C_22
REMARK   10  A    between atoms: C_24  and  C_25
REMARK   11  A    between atoms: C_25  and  O_26
REMARK   12  A    between atoms: O_26  and  C_27
REMARK   13  A    between atoms: C_29  and  O_30
REMARK   14  A    between atoms: O_30  and  C_31
REMARK   15  A    between atoms: C_32  and  C_33
REMARK                            x       y       z     vdW  Elec       q    Type
REMARK                         _______ _______ _______ _____ _____    ______ ____
ROOT
ATOM      1  C   UNL     1       0.542   9.536  20.093  0.00  0.00    +0.000 A 
ATOM      2  C   UNL     1       0.017   9.650  18.816  0.00  0.00    +0.000 A 
ATOM      3  C   UNL     1       0.932   9.395  17.805  0.00  0.00    +0.000 A 
ATOM      4  C   UNL     1       1.892   8.411  18.003  0.00  0.00    +0.000 A 
ATOM      5  C   UNL     1       2.327   8.067  19.255  0.00  0.00    +0.000 A 
ATOM      6  N   UNL     1       3.264   7.097  19.229  0.00  0.00    +0.000 NA
ATOM      7  C   UNL     1       3.053   5.953  19.892  0.00  0.00    +0.000 A 
ATOM      8  C   UNL     1       1.824   5.822  20.529  0.00  0.00    +0.000 A 
ATOM      9  C   UNL     1       1.168   4.458  20.541  0.00  0.00    +0.000 C 
ATOM     10  C   UNL     1       1.074   7.039  20.825  0.00  0.00    +0.000 A 
ATOM     11  C   UNL     1       1.404   8.333  20.264  0.00  0.00    +0.000 A 
ENDROOT
BRANCH   1  12
ATOM     12  N   UNL     1       0.677  10.782  20.785  0.00  0.00    +0.000 N 
BRANCH  12  14
ATOM     13  C   UNL     1       2.206  12.993  20.675  0.00  0.00    +0.000 C 
ATOM     14  C   UNL     1       1.073  12.104  20.136  0.00  0.00    +0.000 C 
ENDBRANCH  12  14
BRANCH  12  15
ATOM     15  C   UNL     1      -0.041  11.009  22.065  0.00  0.00    +0.000 C 
BRANCH  15  16
ATOM     16  C   UNL     1      -1.192  12.018  21.987  0.00  0.00    +0.000 A 
ATOM     17  C   UNL     1      -2.036  12.110  20.880  0.00  0.00    +0.000 A 
ATOM     18  C   UNL     1      -3.104  13.007  20.900  0.00  0.00    +0.000 A 
ATOM     19  N   UNL     1      -3.400  13.801  21.945  0.00  0.00    +0.000 NA
ATOM     20  C   UNL     1      -2.574  13.712  23.011  0.00  0.00    +0.000 A 
ATOM     21  C   UNL     1      -1.477  12.860  23.077  0.00  0.00    +0.000 A 
ENDBRANCH  15  16
ENDBRANCH  12  15
ENDBRANCH   1  12
BRANCH   7  22
ATOM     22  O   UNL     1       3.837   4.935  19.412  0.00  0.00    +0.000 OA
BRANCH  22  23
ATOM     23  C   UNL     1       4.495   4.856  18.190  0.00  0.00    +0.000 A 
ATOM     24  C   UNL     1       3.808   4.192  17.153  0.00  0.00    +0.000 A 
ATOM     25  C   UNL     1       4.433   3.924  15.900  0.00  0.00    +0.000 A 
ATOM     26  C   UNL     1       5.766   4.231  15.702  0.00  0.00    +0.000 A 
ATOM     27  C   UNL     1       6.433   4.964  16.698  0.00  0.00    +0.000 A 
ATOM     28  C   UNL     1       5.808   5.302  17.926  0.00  0.00    +0.000 A 
BRANCH  24  29
ATOM     29  O   UNL     1       2.526   3.722  17.135  0.00  0.00    +0.000 OA
ATOM     30  C   UNL     1       2.205   2.434  17.627  0.00  0.00    +0.000 C 
ENDBRANCH  24  29
BRANCH  28  31
ATOM     31  O   UNL     1       6.468   6.006  18.891  0.00  0.00    +0.000 OA
ATOM     32  C   UNL     1       7.874   5.902  18.959  0.00  0.00    +0.000 C 
ENDBRANCH  28  31
BRANCH  26  33
ATOM     33  C   UNL     1       6.484   3.791  14.445  0.00  0.00    +0.000 C 
BRANCH  33  34
ATOM     34  O   UNL     1       5.663   4.007  13.300  0.00  0.00    +0.000 OA
ATOM     35  C   UNL     1       6.088   3.211  12.199  0.00  0.00    +0.000 C 
ENDBRANCH  33  34
ENDBRANCH  26  33
ENDBRANCH  22  23
ENDBRANCH   7  22
TORSDOF 10
ENDMDL
