MODEL 1
REMARK VINA RESULT:      -7.6      0.000      0.000
REMARK  Name = 
REMARK  8 active torsions:
REMARK  status: ('A' for Active; 'I' for Inactive)
REMARK    1  A    between atoms: C_1  and  C_2
REMARK    2  A    between atoms: C_2  and  N_3
REMARK    3  A    between atoms: C_8  and  C_9
REMARK    4  A    between atoms: N_17  and  C_18
REMARK    5  A    between atoms: C_18  and  C_19
REMARK    6  A    between atoms: C_19  and  C_20
REMARK    7  A    between atoms: C_20  and  O_21
REMARK    8  A    between atoms: O_21  and  C_22
REMARK                            x       y       z     vdW  Elec       q    Type
REMARK                         _______ _______ _______ _____ _____    ______ ____
ROOT
ATOM      1  N   UNL     1       3.164   3.931  19.681  0.00  0.00    +0.000 N 
ATOM      2  C   UNL     1       3.800   3.112  18.746  0.00  0.00    +0.000 A 
ATOM      3  O   UNL     1       3.922   1.895  18.845  0.00  0.00    +0.000 OA
ATOM      4  C   UNL     1       4.308   3.834  17.645  0.00  0.00    +0.000 A 
ATOM      5  N   UNL     1       4.996   3.402  16.554  0.00  0.00    +0.000 N 
ATOM      6  C   UNL     1       5.270   4.506  15.770  0.00  0.00    +0.000 A 
ATOM      7  N   UNL     1       4.814   5.601  16.358  0.00  0.00    +0.000 NA
ATOM      8  C   UNL     1       4.187   5.177  17.493  0.00  0.00    +0.000 A 
ATOM      9  N   UNL     1       3.494   5.944  18.404  0.00  0.00    +0.000 N 
ATOM     10  C   UNL     1       2.938   5.319  19.531  0.00  0.00    +0.000 A 
ATOM     11  O   UNL     1       2.280   5.948  20.365  0.00  0.00    +0.000 OA
ATOM     12  H   UNL     1       5.266   2.447  16.361  0.00  0.00    +0.000 HD
ENDROOT
BRANCH   6  13
ATOM     13  C   UNL     1       5.980   4.417  14.492  0.00  0.00    +0.000 A 
ATOM     14  C   UNL     1       7.128   5.182  14.241  0.00  0.00    +0.000 A 
ATOM     15  C   UNL     1       7.792   5.096  13.014  0.00  0.00    +0.000 A 
ATOM     16  C   UNL     1       7.313   4.242  12.024  0.00  0.00    +0.000 A 
ATOM     17  C   UNL     1       6.178   3.469  12.262  0.00  0.00    +0.000 A 
ATOM     18  C   UNL     1       5.519   3.550  13.492  0.00  0.00    +0.000 A 
ENDBRANCH   6  13
BRANCH   1  20
ATOM     19  C   UNL     1       1.193   2.889  20.750  0.00  0.00    +0.000 C 
ATOM     20  C   UNL     1       2.656   3.284  20.885  0.00  0.00    +0.000 C 
ENDBRANCH   1  20
BRANCH   9  21
ATOM     21  C   UNL     1       3.406   7.400  18.251  0.00  0.00    +0.000 C 
BRANCH  21  22
ATOM     22  C   UNL     1       2.038   7.894  17.768  0.00  0.00    +0.000 C 
BRANCH  22  23
ATOM     23  C   UNL     1       1.924   9.414  17.839  0.00  0.00    +0.000 C 
BRANCH  23  24
ATOM     24  O   UNL     1       0.557   9.773  18.034  0.00  0.00    +0.000 OA
ATOM     25  C   UNL     1       0.409  10.837  18.964  0.00  0.00    +0.000 C 
ENDBRANCH  23  24
ENDBRANCH  22  23
ENDBRANCH  21  22
ENDBRANCH   9  21
TORSDOF 6
ENDMDL
MODEL 2
REMARK VINA RESULT:      -7.6      0.350      1.045
REMARK  Name = 
REMARK  8 active torsions:
REMARK  status: ('A' for Active; 'I' for Inactive)
REMARK    1  A    between atoms: C_1  and  C_2
REMARK    2  A    between atoms: C_2  and  N_3
REMARK    3  A    between atoms: C_8  and  C_9
REMARK    4  A    between atoms: N_17  and  C_18
REMARK    5  A    between atoms: C_18  and  C_19
REMARK    6  A    between atoms: C_19  and  C_20
REMARK    7  A    between atoms: C_20  and  O_21
REMARK    8  A    between atoms: O_21  and  C_22
REMARK                            x       y       z     vdW  Elec       q    Type
REMARK                         _______ _______ _______ _____ _____    ______ ____
ROOT
ATOM      1  N   UNL     1       3.085   4.162  19.642  0.00  0.00    +0.000 N 
ATOM      2  C   UNL     1       3.725   3.306  18.743  0.00  0.00    +0.000 A 
ATOM      3  O   UNL     1       3.842   2.093  18.888  0.00  0.00    +0.000 OA
ATOM      4  C   UNL     1       4.245   3.986  17.620  0.00  0.00    +0.000 A 
ATOM      5  N   UNL     1       4.940   3.511  16.552  0.00  0.00    +0.000 N 
ATOM      6  C   UNL     1       5.226   4.583  15.730  0.00  0.00    +0.000 A 
ATOM      7  N   UNL     1       4.770   5.702  16.273  0.00  0.00    +0.000 NA
ATOM      8  C   UNL     1       4.132   5.322  17.417  0.00  0.00    +0.000 A 
ATOM      9  N   UNL     1       3.435   6.125  18.294  0.00  0.00    +0.000 N 
ATOM     10  C   UNL     1       2.867   5.544  19.439  0.00  0.00    +0.000 A 
ATOM     11  O   UNL     1       2.205   6.206  20.243  0.00  0.00    +0.000 OA
ATOM     12  H   UNL     1       5.208   2.548  16.396  0.00  0.00    +0.000 HD
ENDROOT
BRANCH   6  13
ATOM     13  C   UNL     1       5.946   4.445  14.462  0.00  0.00    +0.000 A 
ATOM     14  C   UNL     1       5.487   3.584  13.454  0.00  0.00    +0.000 A 
ATOM     15  C   UNL     1       6.187   3.453  12.251  0.00  0.00    +0.000 A 
ATOM     16  C   UNL     1       7.355   4.183  12.044  0.00  0.00    +0.000 A 
ATOM     17  C   UNL     1       7.818   5.049  13.033  0.00  0.00    +0.000 A 
ATOM     18  C   UNL     1       7.113   5.185  14.233  0.00  0.00    +0.000 A 
ENDBRANCH   6  13
BRANCH   1  20
ATOM     19  C   UNL     1       1.144   3.044  20.690  0.00  0.00    +0.000 C 
ATOM     20  C   UNL     1       2.564   3.561  20.864  0.00  0.00    +0.000 C 
ENDBRANCH   1  20
BRANCH   9  21
ATOM     21  C   UNL     1       3.354   7.575  18.086  0.00  0.00    +0.000 C 
BRANCH  21  22
ATOM     22  C   UNL     1       1.962   8.069  17.679  0.00  0.00    +0.000 C 
BRANCH  22  23
ATOM     23  C   UNL     1       1.741   9.529  18.064  0.00  0.00    +0.000 C 
BRANCH  23  24
ATOM     24  O   UNL     1       0.813   9.595  19.145  0.00  0.00    +0.000 OA
ATOM     25  C   UNL     1      -0.346  10.346  18.813  0.00  0.00    +0.000 C 
ENDBRANCH  23  24
ENDBRANCH  22  23
ENDBRANCH  21  22
ENDBRANCH   9  21
TORSDOF 6
ENDMDL
MODEL 3
REMARK VINA RESULT:      -7.2      2.400      6.982
REMARK  Name = 
REMARK  8 active torsions:
REMARK  status: ('A' for Active; 'I' for Inactive)
REMARK    1  A    between atoms: C_1  and  C_2
REMARK    2  A    between atoms: C_2  and  N_3
REMARK    3  A    between atoms: C_8  and  C_9
REMARK    4  A    between atoms: N_17  and  C_18
REMARK    5  A    between atoms: C_18  and  C_19
REMARK    6  A    between atoms: C_19  and  C_20
REMARK    7  A    between atoms: C_20  and  O_21
REMARK    8  A    between atoms: O_21  and  C_22
REMARK                            x       y       z     vdW  Elec       q    Type
REMARK                         _______ _______ _______ _____ _____    ______ ____
ROOT
ATOM      1  N   UNL     1       4.849   5.397  17.759  0.00  0.00    +0.000 N 
ATOM      2  C   UNL     1       4.502   6.596  17.132  0.00  0.00    +0.000 A 
ATOM      3  O   UNL     1       5.035   7.041  16.120  0.00  0.00    +0.000 OA
ATOM      4  C   UNL     1       3.453   7.271  17.792  0.00  0.00    +0.000 A 
ATOM      5  N   UNL     1       2.855   8.459  17.504  0.00  0.00    +0.000 N 
ATOM      6  C   UNL     1       1.884   8.680  18.460  0.00  0.00    +0.000 A 
ATOM      7  N   UNL     1       1.890   7.696  19.346  0.00  0.00    +0.000 NA
ATOM      8  C   UNL     1       2.831   6.811  18.906  0.00  0.00    +0.000 A 
ATOM      9  N   UNL     1       3.156   5.591  19.458  0.00  0.00    +0.000 N 
ATOM     10  C   UNL     1       4.180   4.833  18.869  0.00  0.00    +0.000 A 
ATOM     11  O   UNL     1       4.494   3.719  19.300  0.00  0.00    +0.000 OA
ATOM     12  H   UNL     1       3.091   9.072  16.735  0.00  0.00    +0.000 HD
ENDROOT
BRANCH   6  13
ATOM     13  C   UNL     1       1.014   9.858  18.452  0.00  0.00    +0.000 A 
ATOM     14  C   UNL     1       1.492  11.119  18.837  0.00  0.00    +0.000 A 
ATOM     15  C   UNL     1       0.650  12.236  18.834  0.00  0.00    +0.000 A 
ATOM     16  C   UNL     1      -0.681  12.101  18.447  0.00  0.00    +0.000 A 
ATOM     17  C   UNL     1      -1.167  10.856  18.053  0.00  0.00    +0.000 A 
ATOM     18  C   UNL     1      -0.323   9.741  18.049  0.00  0.00    +0.000 A 
ENDBRANCH   6  13
BRANCH   1  20
ATOM     19  C   UNL     1       5.542   3.828  15.977  0.00  0.00    +0.000 C 
ATOM     20  C   UNL     1       5.964   4.653  17.184  0.00  0.00    +0.000 C 
ENDBRANCH   1  20
BRANCH   9  21
ATOM     21  C   UNL     1       2.507   5.123  20.688  0.00  0.00    +0.000 C 
BRANCH  21  22
ATOM     22  C   UNL     1       1.202   4.354  20.449  0.00  0.00    +0.000 C 
BRANCH  22  23
ATOM     23  C   UNL     1       1.274   2.929  20.991  0.00  0.00    +0.000 C 
BRANCH  23  24
ATOM     24  O   UNL     1       1.724   2.056  19.956  0.00  0.00    +0.000 OA
ATOM     25  C   UNL     1       1.038   2.274  18.733  0.00  0.00    +0.000 C 
ENDBRANCH  23  24
ENDBRANCH  22  23
ENDBRANCH  21  22
ENDBRANCH   9  21
TORSDOF 6
ENDMDL
MODEL 4
REMARK VINA RESULT:      -7.2      2.405      7.102
REMARK  Name = 
REMARK  8 active torsions:
REMARK  status: ('A' for Active; 'I' for Inactive)
REMARK    1  A    between atoms: C_1  and  C_2
REMARK    2  A    between atoms: C_2  and  N_3
REMARK    3  A    between atoms: C_8  and  C_9
REMARK    4  A    between atoms: N_17  and  C_18
REMARK    5  A    between atoms: C_18  and  C_19
REMARK    6  A    between atoms: C_19  and  C_20
REMARK    7  A    between atoms: C_20  and  O_21
REMARK    8  A    between atoms: O_21  and  C_22
REMARK                            x       y       z     vdW  Elec       q    Type
REMARK                         _______ _______ _______ _____ _____    ______ ____
ROOT
ATOM      1  N   UNL     1       3.659   3.637  19.452  0.00  0.00    +0.000 N 
ATOM      2  C   UNL     1       2.798   4.180  20.408  0.00  0.00    +0.000 A 
ATOM      3  O   UNL     1       2.323   3.565  21.357  0.00  0.00    +0.000 OA
ATOM      4  C   UNL     1       2.515   5.543  20.173  0.00  0.00    +0.000 A 
ATOM      5  N   UNL     1       1.717   6.404  20.861  0.00  0.00    +0.000 N 
ATOM      6  C   UNL     1       1.773   7.626  20.220  0.00  0.00    +0.000 A 
ATOM      7  N   UNL     1       2.539   7.536  19.144  0.00  0.00    +0.000 NA
ATOM      8  C   UNL     1       3.025   6.262  19.143  0.00  0.00    +0.000 A 
ATOM      9  N   UNL     1       3.924   5.709  18.257  0.00  0.00    +0.000 N 
ATOM     10  C   UNL     1       4.283   4.360  18.410  0.00  0.00    +0.000 A 
ATOM     11  O   UNL     1       5.107   3.819  17.667  0.00  0.00    +0.000 OA
ATOM     12  H   UNL     1       1.175   6.183  21.685  0.00  0.00    +0.000 HD
ENDROOT
BRANCH   6  13
ATOM     13  C   UNL     1       1.054   8.809  20.699  0.00  0.00    +0.000 A 
ATOM     14  C   UNL     1       0.646   8.922  22.036  0.00  0.00    +0.000 A 
ATOM     15  C   UNL     1      -0.048  10.052  22.480  0.00  0.00    +0.000 A 
ATOM     16  C   UNL     1      -0.339  11.082  21.589  0.00  0.00    +0.000 A 
ATOM     17  C   UNL     1       0.068  10.988  20.260  0.00  0.00    +0.000 A 
ATOM     18  C   UNL     1       0.768   9.860  19.818  0.00  0.00    +0.000 A 
ENDBRANCH   6  13
BRANCH   1  20
ATOM     19  C   UNL     1       3.188   1.371  18.580  0.00  0.00    +0.000 C 
ATOM     20  C   UNL     1       3.967   2.217  19.576  0.00  0.00    +0.000 C 
ENDBRANCH   1  20
BRANCH   9  21
ATOM     21  C   UNL     1       4.437   6.483  17.122  0.00  0.00    +0.000 C 
BRANCH  21  22
ATOM     22  C   UNL     1       5.820   7.100  17.362  0.00  0.00    +0.000 C 
BRANCH  22  23
ATOM     23  C   UNL     1       6.919   6.332  16.635  0.00  0.00    +0.000 C 
BRANCH  23  24
ATOM     24  O   UNL     1       6.456   5.963  15.337  0.00  0.00    +0.000 OA
ATOM     25  C   UNL     1       6.997   4.724  14.905  0.00  0.00    +0.000 C 
ENDBRANCH  23  24
ENDBRANCH  22  23
ENDBRANCH  21  22
ENDBRANCH   9  21
TORSDOF 6
ENDMDL
MODEL 5
REMARK VINA RESULT:      -7.1      2.445      7.061
REMARK  Name = 
REMARK  8 active torsions:
REMARK  status: ('A' for Active; 'I' for Inactive)
REMARK    1  A    between atoms: C_1  and  C_2
REMARK    2  A    between atoms: C_2  and  N_3
REMARK    3  A    between atoms: C_8  and  C_9
REMARK    4  A    between atoms: N_17  and  C_18
REMARK    5  A    between atoms: C_18  and  C_19
REMARK    6  A    between atoms: C_19  and  C_20
REMARK    7  A    between atoms: C_20  and  O_21
REMARK    8  A    between atoms: O_21  and  C_22
REMARK                            x       y       z     vdW  Elec       q    Type
REMARK                         _______ _______ _______ _____ _____    ______ ____
ROOT
ATOM      1  N   UNL     1       3.722   3.594  19.449  0.00  0.00    +0.000 N 
ATOM      2  C   UNL     1       2.866   4.166  20.393  0.00  0.00    +0.000 A 
ATOM      3  O   UNL     1       2.394   3.579  21.362  0.00  0.00    +0.000 OA
ATOM      4  C   UNL     1       2.584   5.522  20.121  0.00  0.00    +0.000 A 
ATOM      5  N   UNL     1       1.792   6.404  20.787  0.00  0.00    +0.000 N 
ATOM      6  C   UNL     1       1.847   7.607  20.111  0.00  0.00    +0.000 A 
ATOM      7  N   UNL     1       2.608   7.485  19.035  0.00  0.00    +0.000 NA
ATOM      8  C   UNL     1       3.092   6.210  19.068  0.00  0.00    +0.000 A 
ATOM      9  N   UNL     1       3.986   5.630  18.194  0.00  0.00    +0.000 N 
ATOM     10  C   UNL     1       4.343   4.286  18.384  0.00  0.00    +0.000 A 
ATOM     11  O   UNL     1       5.163   3.722  17.654  0.00  0.00    +0.000 OA
ATOM     12  H   UNL     1       1.252   6.208  21.619  0.00  0.00    +0.000 HD
ENDROOT
BRANCH   6  13
ATOM     13  C   UNL     1       1.132   8.805  20.559  0.00  0.00    +0.000 A 
ATOM     14  C   UNL     1       0.864   9.864  19.680  0.00  0.00    +0.000 A 
ATOM     15  C   UNL     1       0.189  11.007  20.121  0.00  0.00    +0.000 A 
ATOM     16  C   UNL     1      -0.224  11.101  21.448  0.00  0.00    +0.000 A 
ATOM     17  C   UNL     1       0.028  10.052  22.330  0.00  0.00    +0.000 A 
ATOM     18  C   UNL     1       0.696   8.906  21.886  0.00  0.00    +0.000 A 
ENDBRANCH   6  13
BRANCH   1  20
ATOM     19  C   UNL     1       3.322   1.314  18.577  0.00  0.00    +0.000 C 
ATOM     20  C   UNL     1       4.027   2.177  19.612  0.00  0.00    +0.000 C 
ENDBRANCH   1  20
BRANCH   9  21
ATOM     21  C   UNL     1       4.496   6.371  17.035  0.00  0.00    +0.000 C 
BRANCH  21  22
ATOM     22  C   UNL     1       5.830   7.082  17.288  0.00  0.00    +0.000 C 
BRANCH  22  23
ATOM     23  C   UNL     1       7.017   6.139  17.120  0.00  0.00    +0.000 C 
BRANCH  23  24
ATOM     24  O   UNL     1       7.404   6.110  15.747  0.00  0.00    +0.000 OA
ATOM     25  C   UNL     1       7.129   4.857  15.138  0.00  0.00    +0.000 C 
ENDBRANCH  23  24
ENDBRANCH  22  23
ENDBRANCH  21  22
ENDBRANCH   9  21
TORSDOF 6
ENDMDL
MODEL 6
REMARK VINA RESULT:      -7.1      3.051      7.160
REMARK  Name = 
REMARK  8 active torsions:
REMARK  status: ('A' for Active; 'I' for Inactive)
REMARK    1  A    between atoms: C_1  and  C_2
REMARK    2  A    between atoms: C_2  and  N_3
REMARK    3  A    between atoms: C_8  and  C_9
REMARK    4  A    between atoms: N_17  and  C_18
REMARK    5  A    between atoms: C_18  and  C_19
REMARK    6  A    between atoms: C_19  and  C_20
REMARK    7  A    between atoms: C_20  and  O_21
REMARK    8  A    between atoms: O_21  and  C_22
REMARK                            x       y       z     vdW  Elec       q    Type
REMARK                         _______ _______ _______ _____ _____    ______ ____
ROOT
ATOM      1  N   UNL     1       3.301   3.781  19.621  0.00  0.00    +0.000 N 
ATOM      2  C   UNL     1       2.491   4.361  20.599  0.00  0.00    +0.000 A 
ATOM      3  O   UNL     1       2.024   3.769  21.567  0.00  0.00    +0.000 OA
ATOM      4  C   UNL     1       2.249   5.731  20.363  0.00  0.00    +0.000 A 
ATOM      5  N   UNL     1       1.504   6.625  21.068  0.00  0.00    +0.000 N 
ATOM      6  C   UNL     1       1.583   7.840  20.417  0.00  0.00    +0.000 A 
ATOM      7  N   UNL     1       2.311   7.716  19.318  0.00  0.00    +0.000 NA
ATOM      8  C   UNL     1       2.752   6.425  19.311  0.00  0.00    +0.000 A 
ATOM      9  N   UNL     1       3.603   5.834  18.402  0.00  0.00    +0.000 N 
ATOM     10  C   UNL     1       3.918   4.475  18.554  0.00  0.00    +0.000 A 
ATOM     11  O   UNL     1       4.699   3.900  17.790  0.00  0.00    +0.000 OA
ATOM     12  H   UNL     1       0.980   6.429  21.910  0.00  0.00    +0.000 HD
ENDROOT
BRANCH   6  13
ATOM     13  C   UNL     1       0.922   9.051  20.909  0.00  0.00    +0.000 A 
ATOM     14  C   UNL     1       0.857  10.214  20.127  0.00  0.00    +0.000 A 
ATOM     15  C   UNL     1       0.231  11.367  20.610  0.00  0.00    +0.000 A 
ATOM     16  C   UNL     1      -0.336  11.368  21.882  0.00  0.00    +0.000 A 
ATOM     17  C   UNL     1      -0.287  10.217  22.666  0.00  0.00    +0.000 A 
ATOM     18  C   UNL     1       0.333   9.061  22.179  0.00  0.00    +0.000 A 
ENDBRANCH   6  13
BRANCH   1  20
ATOM     19  C   UNL     1       2.656   1.522  18.850  0.00  0.00    +0.000 C 
ATOM     20  C   UNL     1       3.562   2.352  19.745  0.00  0.00    +0.000 C 
ENDBRANCH   1  20
BRANCH   9  21
ATOM     21  C   UNL     1       4.107   6.583  17.246  0.00  0.00    +0.000 C 
BRANCH  21  22
ATOM     22  C   UNL     1       5.501   7.185  17.454  0.00  0.00    +0.000 C 
BRANCH  22  23
ATOM     23  C   UNL     1       6.583   6.370  16.752  0.00  0.00    +0.000 C 
BRANCH  23  24
ATOM     24  O   UNL     1       7.775   7.149  16.663  0.00  0.00    +0.000 OA
ATOM     25  C   UNL     1       7.826   8.167  17.652  0.00  0.00    +0.000 C 
ENDBRANCH  23  24
ENDBRANCH  22  23
ENDBRANCH  21  22
ENDBRANCH   9  21
TORSDOF 6
ENDMDL
MODEL 7
REMARK VINA RESULT:      -7.1      2.942      7.156
REMARK  Name = 
REMARK  8 active torsions:
REMARK  status: ('A' for Active; 'I' for Inactive)
REMARK    1  A    between atoms: C_1  and  C_2
REMARK    2  A    between atoms: C_2  and  N_3
REMARK    3  A    between atoms: C_8  and  C_9
REMARK    4  A    between atoms: N_17  and  C_18
REMARK    5  A    between atoms: C_18  and  C_19
REMARK    6  A    between atoms: C_19  and  C_20
REMARK    7  A    between atoms: C_20  and  O_21
REMARK    8  A    between atoms: O_21  and  C_22
REMARK                            x       y       z     vdW  Elec       q    Type
REMARK                         _______ _______ _______ _____ _____    ______ ____
ROOT
ATOM      1  N   UNL     1       3.218   3.624  19.596  0.00  0.00    +0.000 N 
ATOM      2  C   UNL     1       2.441   4.216  20.593  0.00  0.00    +0.000 A 
ATOM      3  O   UNL     1       1.990   3.632  21.574  0.00  0.00    +0.000 OA
ATOM      4  C   UNL     1       2.213   5.590  20.362  0.00  0.00    +0.000 A 
ATOM      5  N   UNL     1       1.499   6.494  21.084  0.00  0.00    +0.000 N 
ATOM      6  C   UNL     1       1.579   7.707  20.429  0.00  0.00    +0.000 A 
ATOM      7  N   UNL     1       2.278   7.572  19.313  0.00  0.00    +0.000 NA
ATOM      8  C   UNL     1       2.699   6.275  19.297  0.00  0.00    +0.000 A 
ATOM      9  N   UNL     1       3.519   5.671  18.368  0.00  0.00    +0.000 N 
ATOM     10  C   UNL     1       3.818   4.308  18.514  0.00  0.00    +0.000 A 
ATOM     11  O   UNL     1       4.571   3.721  17.731  0.00  0.00    +0.000 OA
ATOM     12  H   UNL     1       0.993   6.307  21.940  0.00  0.00    +0.000 HD
ENDROOT
BRANCH   6  13
ATOM     13  C   UNL     1       0.948   8.928  20.936  0.00  0.00    +0.000 A 
ATOM     14  C   UNL     1       0.467   9.008  22.251  0.00  0.00    +0.000 A 
ATOM     15  C   UNL     1      -0.142  10.176  22.722  0.00  0.00    +0.000 A 
ATOM     16  C   UNL     1      -0.276  11.276  21.879  0.00  0.00    +0.000 A 
ATOM     17  C   UNL     1       0.205  11.215  20.573  0.00  0.00    +0.000 A 
ATOM     18  C   UNL     1       0.821  10.049  20.105  0.00  0.00    +0.000 A 
ENDBRANCH   6  13
BRANCH   1  20
ATOM     19  C   UNL     1       4.723   1.887  20.512  0.00  0.00    +0.000 C 
ATOM     20  C   UNL     1       3.462   2.191  19.716  0.00  0.00    +0.000 C 
ENDBRANCH   1  20
BRANCH   9  21
ATOM     21  C   UNL     1       4.005   6.412  17.198  0.00  0.00    +0.000 C 
BRANCH  21  22
ATOM     22  C   UNL     1       5.420   6.977  17.363  0.00  0.00    +0.000 C 
BRANCH  22  23
ATOM     23  C   UNL     1       6.413   6.309  16.416  0.00  0.00    +0.000 C 
BRANCH  23  24
ATOM     24  O   UNL     1       7.725   6.794  16.694  0.00  0.00    +0.000 OA
ATOM     25  C   UNL     1       7.713   7.892  17.595  0.00  0.00    +0.000 C 
ENDBRANCH  23  24
ENDBRANCH  22  23
ENDBRANCH  21  22
ENDBRANCH   9  21
TORSDOF 6
ENDMDL
MODEL 8
REMARK VINA RESULT:      -7.1      2.037      6.975
REMARK  Name = 
REMARK  8 active torsions:
REMARK  status: ('A' for Active; 'I' for Inactive)
REMARK    1  A    between atoms: C_1  and  C_2
REMARK    2  A    between atoms: C_2  and  N_3
REMARK    3  A    between atoms: C_8  and  C_9
REMARK    4  A    between atoms: N_17  and  C_18
REMARK    5  A    between atoms: C_18  and  C_19
REMARK    6  A    between atoms: C_19  and  C_20
REMARK    7  A    between atoms: C_20  and  O_21
REMARK    8  A    between atoms: O_21  and  C_22
REMARK                            x       y       z     vdW  Elec       q    Type
REMARK                         _______ _______ _______ _____ _____    ______ ____
ROOT
ATOM      1  N   UNL     1       5.418   4.784  16.150  0.00  0.00    +0.000 N 
ATOM      2  C   UNL     1       5.080   6.134  16.255  0.00  0.00    +0.000 A 
ATOM      3  O   UNL     1       5.570   7.037  15.583  0.00  0.00    +0.000 OA
ATOM      4  C   UNL     1       4.096   6.374  17.238  0.00  0.00    +0.000 A 
ATOM      5  N   UNL     1       3.527   7.541  17.644  0.00  0.00    +0.000 N 
ATOM      6  C   UNL     1       2.621   7.239  18.641  0.00  0.00    +0.000 A 
ATOM      7  N   UNL     1       2.642   5.939  18.891  0.00  0.00    +0.000 NA
ATOM      8  C   UNL     1       3.523   5.406  17.996  0.00  0.00    +0.000 A 
ATOM      9  N   UNL     1       3.834   4.075  17.817  0.00  0.00    +0.000 N 
ATOM     10  C   UNL     1       4.794   3.728  16.854  0.00  0.00    +0.000 A 
ATOM     11  O   UNL     1       5.090   2.551  16.627  0.00  0.00    +0.000 OA
ATOM     12  H   UNL     1       3.741   8.463  17.287  0.00  0.00    +0.000 HD
ENDROOT
BRANCH   6  13
ATOM     13  C   UNL     1       1.796   8.254  19.301  0.00  0.00    +0.000 A 
ATOM     14  C   UNL     1       1.310   9.367  18.599  0.00  0.00    +0.000 A 
ATOM     15  C   UNL     1       0.531  10.334  19.241  0.00  0.00    +0.000 A 
ATOM     16  C   UNL     1       0.230  10.197  20.594  0.00  0.00    +0.000 A 
ATOM     17  C   UNL     1       0.699   9.092  21.302  0.00  0.00    +0.000 A 
ATOM     18  C   UNL     1       1.472   8.121  20.657  0.00  0.00    +0.000 A 
ENDBRANCH   6  13
BRANCH   1  20
ATOM     19  C   UNL     1       5.911   4.057  13.838  0.00  0.00    +0.000 C 
ATOM     20  C   UNL     1       6.470   4.441  15.199  0.00  0.00    +0.000 C 
ENDBRANCH   1  20
BRANCH   9  21
ATOM     21  C   UNL     1       3.239   3.041  18.671  0.00  0.00    +0.000 C 
BRANCH  21  22
ATOM     22  C   UNL     1       1.862   2.561  18.199  0.00  0.00    +0.000 C 
BRANCH  22  23
ATOM     23  C   UNL     1       0.960   2.181  19.370  0.00  0.00    +0.000 C 
BRANCH  23  24
ATOM     24  O   UNL     1       0.988   3.226  20.341  0.00  0.00    +0.000 OA
ATOM     25  C   UNL     1       1.411   2.763  21.616  0.00  0.00    +0.000 C 
ENDBRANCH  23  24
ENDBRANCH  22  23
ENDBRANCH  21  22
ENDBRANCH   9  21
TORSDOF 6
ENDMDL
MODEL 9
REMARK VINA RESULT:      -7.0      2.081      6.913
REMARK  Name = 
REMARK  8 active torsions:
REMARK  status: ('A' for Active; 'I' for Inactive)
REMARK    1  A    between atoms: C_1  and  C_2
REMARK    2  A    between atoms: C_2  and  N_3
REMARK    3  A    between atoms: C_8  and  C_9
REMARK    4  A    between atoms: N_17  and  C_18
REMARK    5  A    between atoms: C_18  and  C_19
REMARK    6  A    between atoms: C_19  and  C_20
REMARK    7  A    between atoms: C_20  and  O_21
REMARK    8  A    between atoms: O_21  and  C_22
REMARK                            x       y       z     vdW  Elec       q    Type
REMARK                         _______ _______ _______ _____ _____    ______ ____
ROOT
ATOM      1  N   UNL     1       5.721   5.020  16.472  0.00  0.00    +0.000 N 
ATOM      2  C   UNL     1       5.532   6.368  16.780  0.00  0.00    +0.000 A 
ATOM      3  O   UNL     1       6.341   7.263  16.552  0.00  0.00    +0.000 OA
ATOM      4  C   UNL     1       4.289   6.616  17.401  0.00  0.00    +0.000 A 
ATOM      5  N   UNL     1       3.754   7.779  17.861  0.00  0.00    +0.000 N 
ATOM      6  C   UNL     1       2.512   7.486  18.389  0.00  0.00    +0.000 A 
ATOM      7  N   UNL     1       2.283   6.185  18.310  0.00  0.00    +0.000 NA
ATOM      8  C   UNL     1       3.364   5.659  17.664  0.00  0.00    +0.000 A 
ATOM      9  N   UNL     1       3.558   4.349  17.285  0.00  0.00    +0.000 N 
ATOM     10  C   UNL     1       4.758   3.999  16.648  0.00  0.00    +0.000 A 
ATOM     11  O   UNL     1       4.976   2.848  16.257  0.00  0.00    +0.000 OA
ATOM     12  H   UNL     1       4.193   8.689  17.830  0.00  0.00    +0.000 HD
ENDROOT
BRANCH   6  13
ATOM     13  C   UNL     1       1.628   8.508  18.957  0.00  0.00    +0.000 A 
ATOM     14  C   UNL     1       1.311   8.519  20.323  0.00  0.00    +0.000 A 
ATOM     15  C   UNL     1       0.459   9.493  20.852  0.00  0.00    +0.000 A 
ATOM     16  C   UNL     1      -0.085  10.467  20.017  0.00  0.00    +0.000 A 
ATOM     17  C   UNL     1       0.229  10.473  18.660  0.00  0.00    +0.000 A 
ATOM     18  C   UNL     1       1.087   9.503  18.133  0.00  0.00    +0.000 A 
ENDBRANCH   6  13
BRANCH   1  20
ATOM     19  C   UNL     1       7.003   4.819  14.367  0.00  0.00    +0.000 C 
ATOM     20  C   UNL     1       7.002   4.654  15.879  0.00  0.00    +0.000 C 
ENDBRANCH   1  20
BRANCH   9  21
ATOM     21  C   UNL     1       2.569   3.315  17.612  0.00  0.00    +0.000 C 
BRANCH  21  22
ATOM     22  C   UNL     1       2.885   2.533  18.891  0.00  0.00    +0.000 C 
BRANCH  22  23
ATOM     23  C   UNL     1       1.653   2.364  19.774  0.00  0.00    +0.000 C 
BRANCH  23  24
ATOM     24  O   UNL     1       1.269   3.636  20.294  0.00  0.00    +0.000 OA
ATOM     25  C   UNL     1       2.101   4.052  21.367  0.00  0.00    +0.000 C 
ENDBRANCH  23  24
ENDBRANCH  22  23
ENDBRANCH  21  22
ENDBRANCH   9  21
TORSDOF 6
ENDMDL
