MODEL 1
REMARK VINA RESULT:      -6.4      0.000      0.000
REMARK  Name = 
REMARK  5 active torsions:
REMARK  status: ('A' for Active; 'I' for Inactive)
REMARK    1  A    between atoms: C_1  and  C_2
REMARK    2  A    between atoms: C_5  and  C_6
REMARK    3  A    between atoms: C_6  and  C_8
REMARK    4  A    between atoms: C_9  and  C_10
REMARK    5  A    between atoms: C_10  and  O_12
REMARK                            x       y       z     vdW  Elec       q    Type
REMARK                         _______ _______ _______ _____ _____    ______ ____
ROOT
ATOM      1  C   UNL     1       0.699   2.205  18.814  0.00  0.00    +0.000 C 
ATOM      2  C   UNL     1       2.051   2.856  18.814  0.00  0.00    +0.000 A 
ATOM      3  C   UNL     1       3.206   2.128  19.104  0.00  0.00    +0.000 A 
ATOM      4  C   UNL     1       4.461   2.747  19.077  0.00  0.00    +0.000 A 
ATOM      5  C   UNL     1       4.586   4.115  18.780  0.00  0.00    +0.000 A 
ATOM      6  C   UNL     1       3.423   4.850  18.495  0.00  0.00    +0.000 A 
ATOM      7 CL   UNL     1       3.418   6.547  18.162  0.00  0.00    +0.000 Cl
ATOM      8  C   UNL     1       2.171   4.217  18.508  0.00  0.00    +0.000 A 
ENDROOT
BRANCH   5   9
ATOM      9  C   UNL     1       5.940   4.739  18.713  0.00  0.00    +0.000 C 
ATOM     10  O   UNL     1       6.402   5.371  19.657  0.00  0.00    +0.000 OA
BRANCH   9  11
ATOM     11  C   UNL     1       6.716   4.609  17.450  0.00  0.00    +0.000 C 
ATOM     12  C   UNL     1       6.089   4.826  16.282  0.00  0.00    +0.000 C 
BRANCH  12  13
ATOM     13  C   UNL     1       6.836   4.651  15.028  0.00  0.00    +0.000 C 
ATOM     14  O   UNL     1       7.718   5.401  14.646  0.00  0.00    +0.000 OA
BRANCH  13  15
ATOM     15  O   UNL     1       6.446   3.556  14.346  0.00  0.00    +0.000 OA
ATOM     16  H   UNL     1       5.489   3.368  14.363  0.00  0.00    +0.000 HD
ENDBRANCH  13  15
ENDBRANCH  12  13
ENDBRANCH   9  11
ENDBRANCH   5   9
TORSDOF 4
ENDMDL
MODEL 2
REMARK VINA RESULT:      -6.4      2.797      3.651
REMARK  Name = 
REMARK  5 active torsions:
REMARK  status: ('A' for Active; 'I' for Inactive)
REMARK    1  A    between atoms: C_1  and  C_2
REMARK    2  A    between atoms: C_5  and  C_6
REMARK    3  A    between atoms: C_6  and  C_8
REMARK    4  A    between atoms: C_9  and  C_10
REMARK    5  A    between atoms: C_10  and  O_12
REMARK                            x       y       z     vdW  Elec       q    Type
REMARK                         _______ _______ _______ _____ _____    ______ ____
ROOT
ATOM      1  C   UNL     1       1.692   4.108  17.866  0.00  0.00    +0.000 C 
ATOM      2  C   UNL     1       3.168   4.380  17.915  0.00  0.00    +0.000 A 
ATOM      3  C   UNL     1       3.796   4.751  19.105  0.00  0.00    +0.000 A 
ATOM      4  C   UNL     1       5.177   4.978  19.137  0.00  0.00    +0.000 A 
ATOM      5  C   UNL     1       5.957   4.858  17.973  0.00  0.00    +0.000 A 
ATOM      6  C   UNL     1       5.323   4.491  16.774  0.00  0.00    +0.000 A 
ATOM      7 CL   UNL     1       6.142   4.354  15.258  0.00  0.00    +0.000 Cl
ATOM      8  C   UNL     1       3.941   4.250  16.755  0.00  0.00    +0.000 A 
ENDROOT
BRANCH   5   9
ATOM      9  C   UNL     1       7.433   5.060  18.045  0.00  0.00    +0.000 C 
ATOM     10  O   UNL     1       8.219   4.152  17.796  0.00  0.00    +0.000 OA
BRANCH   9  11
ATOM     11  C   UNL     1       7.943   6.393  18.468  0.00  0.00    +0.000 C 
ATOM     12  C   UNL     1       7.652   7.465  17.713  0.00  0.00    +0.000 C 
BRANCH  12  13
ATOM     13  C   UNL     1       8.194   8.777  18.098  0.00  0.00    +0.000 C 
ATOM     14  O   UNL     1       7.966   9.814  17.500  0.00  0.00    +0.000 OA
BRANCH  13  15
ATOM     15  O   UNL     1       8.966   8.709  19.200  0.00  0.00    +0.000 OA
ATOM     16  H   UNL     1       8.828   9.417  19.856  0.00  0.00    +0.000 HD
ENDBRANCH  13  15
ENDBRANCH  12  13
ENDBRANCH   9  11
ENDBRANCH   5   9
TORSDOF 4
ENDMDL
MODEL 3
REMARK VINA RESULT:      -6.2      1.424      2.947
REMARK  Name = 
REMARK  5 active torsions:
REMARK  status: ('A' for Active; 'I' for Inactive)
REMARK    1  A    between atoms: C_1  and  C_2
REMARK    2  A    between atoms: C_5  and  C_6
REMARK    3  A    between atoms: C_6  and  C_8
REMARK    4  A    between atoms: C_9  and  C_10
REMARK    5  A    between atoms: C_10  and  O_12
REMARK                            x       y       z     vdW  Elec       q    Type
REMARK                         _______ _______ _______ _____ _____    ______ ____
ROOT
ATOM      1  C   UNL     1       0.692   2.933  19.562  0.00  0.00    +0.000 C 
ATOM      2  C   UNL     1       1.897   3.451  18.832  0.00  0.00    +0.000 A 
ATOM      3  C   UNL     1       2.857   2.581  18.312  0.00  0.00    +0.000 A 
ATOM      4  C   UNL     1       3.963   3.081  17.614  0.00  0.00    +0.000 A 
ATOM      5  C   UNL     1       4.142   4.465  17.439  0.00  0.00    +0.000 A 
ATOM      6  C   UNL     1       3.179   5.340  17.968  0.00  0.00    +0.000 A 
ATOM      7 CL   UNL     1       3.294   7.062  17.876  0.00  0.00    +0.000 Cl
ATOM      8  C   UNL     1       2.066   4.829  18.652  0.00  0.00    +0.000 A 
ENDROOT
BRANCH   5   9
ATOM      9  C   UNL     1       5.306   4.968  16.652  0.00  0.00    +0.000 C 
ATOM     10  O   UNL     1       5.303   4.959  15.425  0.00  0.00    +0.000 OA
BRANCH   9  11
ATOM     11  C   UNL     1       6.503   5.451  17.392  0.00  0.00    +0.000 C 
ATOM     12  C   UNL     1       6.562   5.262  18.720  0.00  0.00    +0.000 C 
BRANCH  12  13
ATOM     13  C   UNL     1       7.718   5.781  19.465  0.00  0.00    +0.000 C 
ATOM     14  O   UNL     1       8.125   5.311  20.513  0.00  0.00    +0.000 OA
BRANCH  13  15
ATOM     15  O   UNL     1       8.292   6.835  18.851  0.00  0.00    +0.000 OA
ATOM     16  H   UNL     1       7.713   7.338  18.249  0.00  0.00    +0.000 HD
ENDBRANCH  13  15
ENDBRANCH  12  13
ENDBRANCH   9  11
ENDBRANCH   5   9
TORSDOF 4
ENDMDL
MODEL 4
REMARK VINA RESULT:      -6.2      2.660      3.618
REMARK  Name = 
REMARK  5 active torsions:
REMARK  status: ('A' for Active; 'I' for Inactive)
REMARK    1  A    between atoms: C_1  and  C_2
REMARK    2  A    between atoms: C_5  and  C_6
REMARK    3  A    between atoms: C_6  and  C_8
REMARK    4  A    between atoms: C_9  and  C_10
REMARK    5  A    between atoms: C_10  and  O_12
REMARK                            x       y       z     vdW  Elec       q    Type
REMARK                         _______ _______ _______ _____ _____    ______ ____
ROOT
ATOM      1  C   UNL     1       1.541   2.434  18.634  0.00  0.00    +0.000 C 
ATOM      2  C   UNL     1       2.441   3.496  18.071  0.00  0.00    +0.000 A 
ATOM      3  C   UNL     1       2.176   4.851  18.272  0.00  0.00    +0.000 A 
ATOM      4  C   UNL     1       3.039   5.827  17.758  0.00  0.00    +0.000 A 
ATOM      5  C   UNL     1       4.176   5.467  17.015  0.00  0.00    +0.000 A 
ATOM      6  C   UNL     1       4.439   4.103  16.807  0.00  0.00    +0.000 A 
ATOM      7 CL   UNL     1       5.768   3.513  15.871  0.00  0.00    +0.000 Cl
ATOM      8  C   UNL     1       3.577   3.132  17.338  0.00  0.00    +0.000 A 
ENDROOT
BRANCH   5   9
ATOM      9  C   UNL     1       5.103   6.526  16.519  0.00  0.00    +0.000 C 
ATOM     10  O   UNL     1       5.168   6.815  15.329  0.00  0.00    +0.000 OA
BRANCH   9  11
ATOM     11  C   UNL     1       5.988   7.207  17.503  0.00  0.00    +0.000 C 
ATOM     12  C   UNL     1       7.278   7.403  17.184  0.00  0.00    +0.000 C 
BRANCH  12  13
ATOM     13  C   UNL     1       8.169   8.031  18.171  0.00  0.00    +0.000 C 
ATOM     14  O   UNL     1       8.505   9.202  18.143  0.00  0.00    +0.000 OA
BRANCH  13  15
ATOM     15  O   UNL     1       8.566   7.166  19.125  0.00  0.00    +0.000 OA
ATOM     16  H   UNL     1       9.369   7.421  19.616  0.00  0.00    +0.000 HD
ENDBRANCH  13  15
ENDBRANCH  12  13
ENDBRANCH   9  11
ENDBRANCH   5   9
TORSDOF 4
ENDMDL
MODEL 5
REMARK VINA RESULT:      -6.2      1.826      2.238
REMARK  Name = 
REMARK  5 active torsions:
REMARK  status: ('A' for Active; 'I' for Inactive)
REMARK    1  A    between atoms: C_1  and  C_2
REMARK    2  A    between atoms: C_5  and  C_6
REMARK    3  A    between atoms: C_6  and  C_8
REMARK    4  A    between atoms: C_9  and  C_10
REMARK    5  A    between atoms: C_10  and  O_12
REMARK                            x       y       z     vdW  Elec       q    Type
REMARK                         _______ _______ _______ _____ _____    ______ ____
ROOT
ATOM      1  C   UNL     1       1.751   2.467  20.561  0.00  0.00    +0.000 C 
ATOM      2  C   UNL     1       2.398   3.493  19.676  0.00  0.00    +0.000 A 
ATOM      3  C   UNL     1       1.708   4.068  18.609  0.00  0.00    +0.000 A 
ATOM      4  C   UNL     1       2.320   5.039  17.808  0.00  0.00    +0.000 A 
ATOM      5  C   UNL     1       3.646   5.442  18.047  0.00  0.00    +0.000 A 
ATOM      6  C   UNL     1       4.343   4.858  19.118  0.00  0.00    +0.000 A 
ATOM      7 CL   UNL     1       5.991   5.217  19.500  0.00  0.00    +0.000 Cl
ATOM      8  C   UNL     1       3.715   3.897  19.925  0.00  0.00    +0.000 A 
ENDROOT
BRANCH   5   9
ATOM      9  C   UNL     1       4.258   6.513  17.207  0.00  0.00    +0.000 C 
ATOM     10  O   UNL     1       3.812   7.655  17.198  0.00  0.00    +0.000 OA
BRANCH   9  11
ATOM     11  C   UNL     1       5.413   6.155  16.339  0.00  0.00    +0.000 C 
ATOM     12  C   UNL     1       5.354   5.022  15.620  0.00  0.00    +0.000 C 
BRANCH  12  13
ATOM     13  C   UNL     1       6.511   4.637  14.799  0.00  0.00    +0.000 C 
ATOM     14  O   UNL     1       7.534   5.294  14.706  0.00  0.00    +0.000 OA
BRANCH  13  15
ATOM     15  O   UNL     1       6.322   3.463  14.165  0.00  0.00    +0.000 OA
ATOM     16  H   UNL     1       7.006   2.786  14.320  0.00  0.00    +0.000 HD
ENDBRANCH  13  15
ENDBRANCH  12  13
ENDBRANCH   9  11
ENDBRANCH   5   9
TORSDOF 4
ENDMDL
MODEL 6
REMARK VINA RESULT:      -6.1      2.870      3.822
REMARK  Name = 
REMARK  5 active torsions:
REMARK  status: ('A' for Active; 'I' for Inactive)
REMARK    1  A    between atoms: C_1  and  C_2
REMARK    2  A    between atoms: C_5  and  C_6
REMARK    3  A    between atoms: C_6  and  C_8
REMARK    4  A    between atoms: C_9  and  C_10
REMARK    5  A    between atoms: C_10  and  O_12
REMARK                            x       y       z     vdW  Elec       q    Type
REMARK                         _______ _______ _______ _____ _____    ______ ____
ROOT
ATOM      1  C   UNL     1       1.434   8.432  21.344  0.00  0.00    +0.000 C 
ATOM      2  C   UNL     1       1.762   7.333  20.375  0.00  0.00    +0.000 A 
ATOM      3  C   UNL     1       2.252   7.615  19.099  0.00  0.00    +0.000 A 
ATOM      4  C   UNL     1       2.573   6.577  18.217  0.00  0.00    +0.000 A 
ATOM      5  C   UNL     1       2.392   5.233  18.587  0.00  0.00    +0.000 A 
ATOM      6  C   UNL     1       1.893   4.949  19.869  0.00  0.00    +0.000 A 
ATOM      7 CL   UNL     1       1.571   3.350  20.442  0.00  0.00    +0.000 Cl
ATOM      8  C   UNL     1       1.589   5.996  20.751  0.00  0.00    +0.000 A 
ENDROOT
BRANCH   5   9
ATOM      9  C   UNL     1       2.787   4.145  17.644  0.00  0.00    +0.000 C 
ATOM     10  O   UNL     1       1.949   3.431  17.101  0.00  0.00    +0.000 OA
BRANCH   9  11
ATOM     11  C   UNL     1       4.236   3.913  17.400  0.00  0.00    +0.000 C 
ATOM     12  C   UNL     1       4.796   4.431  16.295  0.00  0.00    +0.000 C 
BRANCH  12  13
ATOM     13  C   UNL     1       6.216   4.165  16.022  0.00  0.00    +0.000 C 
ATOM     14  O   UNL     1       6.684   4.021  14.905  0.00  0.00    +0.000 OA
BRANCH  13  15
ATOM     15  O   UNL     1       6.953   4.108  17.149  0.00  0.00    +0.000 OA
ATOM     16  H   UNL     1       6.525   3.676  17.911  0.00  0.00    +0.000 HD
ENDBRANCH  13  15
ENDBRANCH  12  13
ENDBRANCH   9  11
ENDBRANCH   5   9
TORSDOF 4
ENDMDL
MODEL 7
REMARK VINA RESULT:      -6.1      2.129      2.899
REMARK  Name = 
REMARK  5 active torsions:
REMARK  status: ('A' for Active; 'I' for Inactive)
REMARK    1  A    between atoms: C_1  and  C_2
REMARK    2  A    between atoms: C_5  and  C_6
REMARK    3  A    between atoms: C_6  and  C_8
REMARK    4  A    between atoms: C_9  and  C_10
REMARK    5  A    between atoms: C_10  and  O_12
REMARK                            x       y       z     vdW  Elec       q    Type
REMARK                         _______ _______ _______ _____ _____    ______ ____
ROOT
ATOM      1  C   UNL     1       0.830   2.787  19.394  0.00  0.00    +0.000 C 
ATOM      2  C   UNL     1       1.970   3.511  18.738  0.00  0.00    +0.000 A 
ATOM      3  C   UNL     1       3.035   2.817  18.164  0.00  0.00    +0.000 A 
ATOM      4  C   UNL     1       4.078   3.509  17.537  0.00  0.00    +0.000 A 
ATOM      5  C   UNL     1       4.087   4.914  17.489  0.00  0.00    +0.000 A 
ATOM      6  C   UNL     1       3.018   5.613  18.073  0.00  0.00    +0.000 A 
ATOM      7 CL   UNL     1       2.919   7.338  18.135  0.00  0.00    +0.000 Cl
ATOM      8  C   UNL     1       1.969   4.910  18.685  0.00  0.00    +0.000 A 
ENDROOT
BRANCH   5   9
ATOM      9  C   UNL     1       5.188   5.624  16.774  0.00  0.00    +0.000 C 
ATOM     10  O   UNL     1       5.185   5.749  15.554  0.00  0.00    +0.000 OA
BRANCH   9  11
ATOM     11  C   UNL     1       6.324   6.154  17.575  0.00  0.00    +0.000 C 
ATOM     12  C   UNL     1       6.804   7.374  17.287  0.00  0.00    +0.000 C 
BRANCH  12  13
ATOM     13  C   UNL     1       7.959   7.883  18.042  0.00  0.00    +0.000 C 
ATOM     14  O   UNL     1       8.425   9.001  17.909  0.00  0.00    +0.000 OA
BRANCH  13  15
ATOM     15  O   UNL     1       8.442   6.976  18.913  0.00  0.00    +0.000 OA
ATOM     16  H   UNL     1       8.708   7.327  19.783  0.00  0.00    +0.000 HD
ENDBRANCH  13  15
ENDBRANCH  12  13
ENDBRANCH   9  11
ENDBRANCH   5   9
TORSDOF 4
ENDMDL
MODEL 8
REMARK VINA RESULT:      -6.0      2.298      2.856
REMARK  Name = 
REMARK  5 active torsions:
REMARK  status: ('A' for Active; 'I' for Inactive)
REMARK    1  A    between atoms: C_1  and  C_2
REMARK    2  A    between atoms: C_5  and  C_6
REMARK    3  A    between atoms: C_6  and  C_8
REMARK    4  A    between atoms: C_9  and  C_10
REMARK    5  A    between atoms: C_10  and  O_12
REMARK                            x       y       z     vdW  Elec       q    Type
REMARK                         _______ _______ _______ _____ _____    ______ ____
ROOT
ATOM      1  C   UNL     1       1.406   2.693  21.488  0.00  0.00    +0.000 C 
ATOM      2  C   UNL     1       1.938   3.725  20.536  0.00  0.00    +0.000 A 
ATOM      3  C   UNL     1       2.006   5.072  20.893  0.00  0.00    +0.000 A 
ATOM      4  C   UNL     1       2.526   6.018  20.001  0.00  0.00    +0.000 A 
ATOM      5  C   UNL     1       2.971   5.636  18.723  0.00  0.00    +0.000 A 
ATOM      6  C   UNL     1       2.895   4.281  18.361  0.00  0.00    +0.000 A 
ATOM      7 CL   UNL     1       3.356   3.675  16.808  0.00  0.00    +0.000 Cl
ATOM      8  C   UNL     1       2.387   3.339  19.268  0.00  0.00    +0.000 A 
ENDROOT
BRANCH   5   9
ATOM      9  C   UNL     1       3.563   6.657  17.809  0.00  0.00    +0.000 C 
ATOM     10  O   UNL     1       3.018   7.739  17.616  0.00  0.00    +0.000 OA
BRANCH   9  11
ATOM     11  C   UNL     1       4.825   6.319  17.097  0.00  0.00    +0.000 C 
ATOM     12  C   UNL     1       5.942   6.128  17.817  0.00  0.00    +0.000 C 
BRANCH  12  13
ATOM     13  C   UNL     1       7.203   5.843  17.117  0.00  0.00    +0.000 C 
ATOM     14  O   UNL     1       7.697   6.570  16.273  0.00  0.00    +0.000 OA
BRANCH  13  15
ATOM     15  O   UNL     1       7.765   4.687  17.522  0.00  0.00    +0.000 OA
ATOM     16  H   UNL     1       8.009   4.065  16.812  0.00  0.00    +0.000 HD
ENDBRANCH  13  15
ENDBRANCH  12  13
ENDBRANCH   9  11
ENDBRANCH   5   9
TORSDOF 4
ENDMDL
MODEL 9
REMARK VINA RESULT:      -6.0      2.216      3.285
REMARK  Name = 
REMARK  5 active torsions:
REMARK  status: ('A' for Active; 'I' for Inactive)
REMARK    1  A    between atoms: C_1  and  C_2
REMARK    2  A    between atoms: C_5  and  C_6
REMARK    3  A    between atoms: C_6  and  C_8
REMARK    4  A    between atoms: C_9  and  C_10
REMARK    5  A    between atoms: C_10  and  O_12
REMARK                            x       y       z     vdW  Elec       q    Type
REMARK                         _______ _______ _______ _____ _____    ______ ____
ROOT
ATOM      1  C   UNL     1       3.113   3.300  20.224  0.00  0.00    +0.000 C 
ATOM      2  C   UNL     1       3.882   3.663  18.987  0.00  0.00    +0.000 A 
ATOM      3  C   UNL     1       3.322   3.517  17.717  0.00  0.00    +0.000 A 
ATOM      4  C   UNL     1       4.046   3.881  16.576  0.00  0.00    +0.000 A 
ATOM      5  C   UNL     1       5.356   4.381  16.681  0.00  0.00    +0.000 A 
ATOM      6  C   UNL     1       5.922   4.521  17.958  0.00  0.00    +0.000 A 
ATOM      7 CL   UNL     1       7.537   5.073  18.238  0.00  0.00    +0.000 Cl
ATOM      8  C   UNL     1       5.183   4.168  19.097  0.00  0.00    +0.000 A 
ENDROOT
BRANCH   5   9
ATOM      9  C   UNL     1       6.088   4.805  15.451  0.00  0.00    +0.000 C 
ATOM     10  O   UNL     1       6.564   5.930  15.343  0.00  0.00    +0.000 OA
BRANCH   9  11
ATOM     11  C   UNL     1       6.200   3.836  14.327  0.00  0.00    +0.000 C 
ATOM     12  C   UNL     1       5.515   4.076  13.197  0.00  0.00    +0.000 C 
BRANCH  12  13
ATOM     13  C   UNL     1       5.581   3.098  12.101  0.00  0.00    +0.000 C 
ATOM     14  O   UNL     1       4.628   2.772  11.415  0.00  0.00    +0.000 OA
BRANCH  13  15
ATOM     15  O   UNL     1       6.824   2.606  11.928  0.00  0.00    +0.000 OA
ATOM     16  H   UNL     1       6.906   1.889  11.272  0.00  0.00    +0.000 HD
ENDBRANCH  13  15
ENDBRANCH  12  13
ENDBRANCH   9  11
ENDBRANCH   5   9
TORSDOF 4
ENDMDL
