MODEL 1
REMARK VINA RESULT:      -7.8      0.000      0.000
REMARK  Name = 
REMARK  8 active torsions:
REMARK  status: ('A' for Active; 'I' for Inactive)
REMARK    1  A    between atoms: C_4  and  C_5
REMARK    2  A    between atoms: C_14  and  O_15
REMARK    3  A    between atoms: C_16  and  O_17
REMARK    4  A    between atoms: O_17  and  C_18
REMARK    5  A    between atoms: C_18  and  C_19
REMARK    6  A    between atoms: C_19  and  C_20
REMARK    7  A    between atoms: C_20  and  N_21
REMARK    8  A    between atoms: C_26  and  O_27
REMARK                            x       y       z     vdW  Elec       q    Type
REMARK                         _______ _______ _______ _____ _____    ______ ____
ROOT
ATOM      1  O   UNL     1       2.151   8.945  17.270  0.00  0.00    +0.000 OA
ATOM      2  C   UNL     1       2.005   8.477  18.390  0.00  0.00    +0.000 A 
ATOM      3  C   UNL     1       2.462   7.102  18.646  0.00  0.00    +0.000 A 
ATOM      4  C   UNL     1       2.279   6.560  19.853  0.00  0.00    +0.000 A 
ATOM      5  O   UNL     1       1.673   7.195  20.919  0.00  0.00    +0.000 OA
ATOM      6  C   UNL     1       1.267   8.502  20.742  0.00  0.00    +0.000 A 
ATOM      7  C   UNL     1       0.694   9.126  21.854  0.00  0.00    +0.000 A 
ATOM      8  C   UNL     1       0.288  10.463  21.774  0.00  0.00    +0.000 A 
ATOM      9  C   UNL     1       0.462  11.190  20.588  0.00  0.00    +0.000 A 
ATOM     10  C   UNL     1       0.992  10.530  19.465  0.00  0.00    +0.000 A 
ATOM     11  C   UNL     1       1.407   9.195  19.537  0.00  0.00    +0.000 A 
ENDROOT
BRANCH   4  12
ATOM     12  C   UNL     1       2.737   5.191  20.103  0.00  0.00    +0.000 A 
ATOM     13  C   UNL     1       3.804   4.657  19.369  0.00  0.00    +0.000 A 
ATOM     14  C   UNL     1       4.167   3.317  19.529  0.00  0.00    +0.000 A 
ATOM     15  C   UNL     1       3.469   2.505  20.422  0.00  0.00    +0.000 A 
ATOM     16  C   UNL     1       2.415   3.034  21.166  0.00  0.00    +0.000 A 
ATOM     17  C   UNL     1       2.049   4.372  21.008  0.00  0.00    +0.000 A 
ENDBRANCH   4  12
BRANCH   8  18
ATOM     18  O   UNL     1      -0.294  11.031  22.873  0.00  0.00    +0.000 OA
ATOM     19  H   UNL     1      -1.022  11.611  22.594  0.00  0.00    +0.000 HD
ENDBRANCH   8  18
BRANCH  10  20
ATOM     20  O   UNL     1       1.111  11.250  18.303  0.00  0.00    +0.000 OA
ATOM     21  H   UNL     1       1.347  12.160  18.569  0.00  0.00    +0.000 HD
ENDBRANCH  10  20
BRANCH   9  22
ATOM     22  O   UNL     1       0.166  12.520  20.363  0.00  0.00    +0.000 OA
BRANCH  22  23
ATOM     23  C   UNL     1      -1.222  12.840  20.286  0.00  0.00    +0.000 C 
BRANCH  23  24
ATOM     24  C   UNL     1      -2.046  11.625  19.829  0.00  0.00    +0.000 C 
BRANCH  24  25
ATOM     25  C   UNL     1      -2.621  11.953  18.445  0.00  0.00    +0.000 C 
BRANCH  25  26
ATOM     26  N   UNL     1      -3.592  11.015  17.861  0.00  0.00    +0.000 NA
ATOM     27  C   UNL     1      -2.892   9.760  17.503  0.00  0.00    +0.000 C 
ATOM     28  C   UNL     1      -2.534   9.914  16.038  0.00  0.00    +0.000 C 
ATOM     29  C   UNL     1      -3.783  10.566  15.491  0.00  0.00    +0.000 C 
ATOM     30  C   UNL     1      -4.227  11.497  16.618  0.00  0.00    +0.000 C 
ENDBRANCH  25  26
ENDBRANCH  24  25
ENDBRANCH  23  24
ENDBRANCH  22  23
ENDBRANCH   9  22
TORSDOF 8
ENDMDL
MODEL 2
REMARK VINA RESULT:      -7.7      3.589      8.184
REMARK  Name = 
REMARK  8 active torsions:
REMARK  status: ('A' for Active; 'I' for Inactive)
REMARK    1  A    between atoms: C_4  and  C_5
REMARK    2  A    between atoms: C_14  and  O_15
REMARK    3  A    between atoms: C_16  and  O_17
REMARK    4  A    between atoms: O_17  and  C_18
REMARK    5  A    between atoms: C_18  and  C_19
REMARK    6  A    between atoms: C_19  and  C_20
REMARK    7  A    between atoms: C_20  and  N_21
REMARK    8  A    between atoms: C_26  and  O_27
REMARK                            x       y       z     vdW  Elec       q    Type
REMARK                         _______ _______ _______ _____ _____    ______ ____
ROOT
ATOM      1  O   UNL     1       2.590   8.573  17.304  0.00  0.00    +0.000 OA
ATOM      2  C   UNL     1       2.202   8.212  18.406  0.00  0.00    +0.000 A 
ATOM      3  C   UNL     1       1.510   9.186  19.265  0.00  0.00    +0.000 A 
ATOM      4  C   UNL     1       1.108   8.821  20.485  0.00  0.00    +0.000 A 
ATOM      5  O   UNL     1       1.298   7.569  21.035  0.00  0.00    +0.000 OA
ATOM      6  C   UNL     1       1.903   6.608  20.252  0.00  0.00    +0.000 A 
ATOM      7  C   UNL     1       2.042   5.341  20.828  0.00  0.00    +0.000 A 
ATOM      8  C   UNL     1       2.612   4.296  20.090  0.00  0.00    +0.000 A 
ATOM      9  C   UNL     1       3.035   4.505  18.770  0.00  0.00    +0.000 A 
ATOM     10  C   UNL     1       2.935   5.799  18.227  0.00  0.00    +0.000 A 
ATOM     11  C   UNL     1       2.361   6.848  18.955  0.00  0.00    +0.000 A 
ENDROOT
BRANCH   4  12
ATOM     12  C   UNL     1       0.418   9.793  21.336  0.00  0.00    +0.000 A 
ATOM     13  C   UNL     1      -0.226   9.377  22.508  0.00  0.00    +0.000 A 
ATOM     14  C   UNL     1      -0.977  10.285  23.258  0.00  0.00    +0.000 A 
ATOM     15  C   UNL     1      -1.087  11.612  22.845  0.00  0.00    +0.000 A 
ATOM     16  C   UNL     1      -0.437  12.037  21.687  0.00  0.00    +0.000 A 
ATOM     17  C   UNL     1       0.314  11.131  20.934  0.00  0.00    +0.000 A 
ENDBRANCH   4  12
BRANCH   8  18
ATOM     18  O   UNL     1       2.757   3.079  20.696  0.00  0.00    +0.000 OA
ATOM     19  H   UNL     1       2.431   2.379  20.106  0.00  0.00    +0.000 HD
ENDBRANCH   8  18
BRANCH  10  20
ATOM     20  O   UNL     1       3.398   5.987  16.950  0.00  0.00    +0.000 OA
ATOM     21  H   UNL     1       4.372   5.976  17.008  0.00  0.00    +0.000 HD
ENDBRANCH  10  20
BRANCH   9  22
ATOM     22  O   UNL     1       3.564   3.575  17.897  0.00  0.00    +0.000 OA
BRANCH  22  23
ATOM     23  C   UNL     1       4.981   3.418  17.944  0.00  0.00    +0.000 C 
BRANCH  23  24
ATOM     24  C   UNL     1       5.623   3.784  16.596  0.00  0.00    +0.000 C 
BRANCH  24  25
ATOM     25  C   UNL     1       6.755   4.780  16.880  0.00  0.00    +0.000 C 
BRANCH  25  26
ATOM     26  N   UNL     1       6.538   5.793  17.924  0.00  0.00    +0.000 NA
ATOM     27  C   UNL     1       6.370   7.116  17.281  0.00  0.00    +0.000 C 
ATOM     28  C   UNL     1       7.750   7.744  17.307  0.00  0.00    +0.000 C 
ATOM     29  C   UNL     1       8.236   7.342  18.680  0.00  0.00    +0.000 C 
ATOM     30  C   UNL     1       7.663   5.939  18.869  0.00  0.00    +0.000 C 
ENDBRANCH  25  26
ENDBRANCH  24  25
ENDBRANCH  23  24
ENDBRANCH  22  23
ENDBRANCH   9  22
TORSDOF 8
ENDMDL
MODEL 3
REMARK VINA RESULT:      -7.7      2.755      3.541
REMARK  Name = 
REMARK  8 active torsions:
REMARK  status: ('A' for Active; 'I' for Inactive)
REMARK    1  A    between atoms: C_4  and  C_5
REMARK    2  A    between atoms: C_14  and  O_15
REMARK    3  A    between atoms: C_16  and  O_17
REMARK    4  A    between atoms: O_17  and  C_18
REMARK    5  A    between atoms: C_18  and  C_19
REMARK    6  A    between atoms: C_19  and  C_20
REMARK    7  A    between atoms: C_20  and  N_21
REMARK    8  A    between atoms: C_26  and  O_27
REMARK                            x       y       z     vdW  Elec       q    Type
REMARK                         _______ _______ _______ _____ _____    ______ ____
ROOT
ATOM      1  O   UNL     1       1.822   9.983  17.369  0.00  0.00    +0.000 OA
ATOM      2  C   UNL     1       1.838   9.139  18.254  0.00  0.00    +0.000 A 
ATOM      3  C   UNL     1       2.341   7.793  17.936  0.00  0.00    +0.000 A 
ATOM      4  C   UNL     1       2.335   6.847  18.879  0.00  0.00    +0.000 A 
ATOM      5  O   UNL     1       1.878   7.024  20.170  0.00  0.00    +0.000 OA
ATOM      6  C   UNL     1       1.439   8.281  20.529  0.00  0.00    +0.000 A 
ATOM      7  C   UNL     1       1.021   8.433  21.855  0.00  0.00    +0.000 A 
ATOM      8  C   UNL     1       0.594   9.685  22.315  0.00  0.00    +0.000 A 
ATOM      9  C   UNL     1       0.592  10.795  21.459  0.00  0.00    +0.000 A 
ATOM     10  C   UNL     1       0.966  10.611  20.116  0.00  0.00    +0.000 A 
ATOM     11  C   UNL     1       1.400   9.365  19.648  0.00  0.00    +0.000 A 
ENDROOT
BRANCH   4  12
ATOM     12  C   UNL     1       2.837   5.509  18.558  0.00  0.00    +0.000 A 
ATOM     13  C   UNL     1       4.152   5.150  18.883  0.00  0.00    +0.000 A 
ATOM     14  C   UNL     1       4.664   3.915  18.477  0.00  0.00    +0.000 A 
ATOM     15  C   UNL     1       3.868   3.033  17.748  0.00  0.00    +0.000 A 
ATOM     16  C   UNL     1       2.555   3.378  17.433  0.00  0.00    +0.000 A 
ATOM     17  C   UNL     1       2.040   4.612  17.837  0.00  0.00    +0.000 A 
ENDBRANCH   4  12
BRANCH   8  18
ATOM     18  O   UNL     1       0.166   9.789  23.609  0.00  0.00    +0.000 OA
ATOM     19  H   UNL     1      -0.802   9.704  23.642  0.00  0.00    +0.000 HD
ENDBRANCH   8  18
BRANCH  10  20
ATOM     20  O   UNL     1       0.913  11.703  19.287  0.00  0.00    +0.000 OA
ATOM     21  H   UNL     1       1.818  12.068  19.258  0.00  0.00    +0.000 HD
ENDBRANCH  10  20
BRANCH   9  22
ATOM     22  O   UNL     1       0.254  12.098  21.768  0.00  0.00    +0.000 OA
BRANCH  22  23
ATOM     23  C   UNL     1      -1.143  12.385  21.793  0.00  0.00    +0.000 C 
BRANCH  23  24
ATOM     24  C   UNL     1      -1.565  12.958  23.156  0.00  0.00    +0.000 C 
BRANCH  24  25
ATOM     25  C   UNL     1      -3.038  12.587  23.376  0.00  0.00    +0.000 C 
BRANCH  25  26
ATOM     26  N   UNL     1      -4.065  13.447  22.770  0.00  0.00    +0.000 NA
ATOM     27  C   UNL     1      -4.986  13.915  23.831  0.00  0.00    +0.000 C 
ATOM     28  C   UNL     1      -6.144  12.937  23.805  0.00  0.00    +0.000 C 
ATOM     29  C   UNL     1      -6.333  12.736  22.319  0.00  0.00    +0.000 C 
ATOM     30  C   UNL     1      -4.910  12.768  21.767  0.00  0.00    +0.000 C 
ENDBRANCH  25  26
ENDBRANCH  24  25
ENDBRANCH  23  24
ENDBRANCH  22  23
ENDBRANCH   9  22
TORSDOF 8
ENDMDL
MODEL 4
REMARK VINA RESULT:      -7.6      1.435      1.797
REMARK  Name = 
REMARK  8 active torsions:
REMARK  status: ('A' for Active; 'I' for Inactive)
REMARK    1  A    between atoms: C_4  and  C_5
REMARK    2  A    between atoms: C_14  and  O_15
REMARK    3  A    between atoms: C_16  and  O_17
REMARK    4  A    between atoms: O_17  and  C_18
REMARK    5  A    between atoms: C_18  and  C_19
REMARK    6  A    between atoms: C_19  and  C_20
REMARK    7  A    between atoms: C_20  and  N_21
REMARK    8  A    between atoms: C_26  and  O_27
REMARK                            x       y       z     vdW  Elec       q    Type
REMARK                         _______ _______ _______ _____ _____    ______ ____
ROOT
ATOM      1  O   UNL     1       1.956   9.881  17.345  0.00  0.00    +0.000 OA
ATOM      2  C   UNL     1       1.942   9.042  18.235  0.00  0.00    +0.000 A 
ATOM      3  C   UNL     1       2.414   7.682  17.931  0.00  0.00    +0.000 A 
ATOM      4  C   UNL     1       2.374   6.743  18.880  0.00  0.00    +0.000 A 
ATOM      5  O   UNL     1       1.906   6.939  20.164  0.00  0.00    +0.000 OA
ATOM      6  C   UNL     1       1.495   8.209  20.510  0.00  0.00    +0.000 A 
ATOM      7  C   UNL     1       1.066   8.380  21.830  0.00  0.00    +0.000 A 
ATOM      8  C   UNL     1       0.665   9.645  22.278  0.00  0.00    +0.000 A 
ATOM      9  C   UNL     1       0.701  10.749  21.415  0.00  0.00    +0.000 A 
ATOM     10  C   UNL     1       1.085  10.547  20.077  0.00  0.00    +0.000 A 
ATOM     11  C   UNL     1       1.493   9.288  19.622  0.00  0.00    +0.000 A 
ENDROOT
BRANCH   4  12
ATOM     12  C   UNL     1       2.846   5.391  18.573  0.00  0.00    +0.000 A 
ATOM     13  C   UNL     1       2.067   4.531  17.787  0.00  0.00    +0.000 A 
ATOM     14  C   UNL     1       2.465   3.206  17.588  0.00  0.00    +0.000 A 
ATOM     15  C   UNL     1       3.642   2.735  18.168  0.00  0.00    +0.000 A 
ATOM     16  C   UNL     1       4.429   3.588  18.939  0.00  0.00    +0.000 A 
ATOM     17  C   UNL     1       4.034   4.913  19.142  0.00  0.00    +0.000 A 
ENDBRANCH   4  12
BRANCH   8  18
ATOM     18  O   UNL     1       0.225   9.768  23.567  0.00  0.00    +0.000 OA
ATOM     19  H   UNL     1      -0.734   9.614  23.601  0.00  0.00    +0.000 HD
ENDBRANCH   8  18
BRANCH  10  20
ATOM     20  O   UNL     1       1.069  11.635  19.242  0.00  0.00    +0.000 OA
ATOM     21  H   UNL     1       0.414  12.256  19.615  0.00  0.00    +0.000 HD
ENDBRANCH  10  20
BRANCH   9  22
ATOM     22  O   UNL     1       0.392  12.062  21.713  0.00  0.00    +0.000 OA
BRANCH  22  23
ATOM     23  C   UNL     1      -0.999  12.363  21.811  0.00  0.00    +0.000 C 
BRANCH  23  24
ATOM     24  C   UNL     1      -1.346  13.634  21.019  0.00  0.00    +0.000 C 
BRANCH  24  25
ATOM     25  C   UNL     1      -1.930  13.191  19.670  0.00  0.00    +0.000 C 
BRANCH  25  26
ATOM     26  N   UNL     1      -2.769  11.984  19.644  0.00  0.00    +0.000 NA
ATOM     27  C   UNL     1      -2.313  11.106  18.542  0.00  0.00    +0.000 C 
ATOM     28  C   UNL     1      -3.206  11.453  17.367  0.00  0.00    +0.000 C 
ATOM     29  C   UNL     1      -4.548  11.607  18.047  0.00  0.00    +0.000 C 
ATOM     30  C   UNL     1      -4.200  12.247  19.389  0.00  0.00    +0.000 C 
ENDBRANCH  25  26
ENDBRANCH  24  25
ENDBRANCH  23  24
ENDBRANCH  22  23
ENDBRANCH   9  22
TORSDOF 8
ENDMDL
MODEL 5
REMARK VINA RESULT:      -7.5      2.159      2.755
REMARK  Name = 
REMARK  8 active torsions:
REMARK  status: ('A' for Active; 'I' for Inactive)
REMARK    1  A    between atoms: C_4  and  C_5
REMARK    2  A    between atoms: C_14  and  O_15
REMARK    3  A    between atoms: C_16  and  O_17
REMARK    4  A    between atoms: O_17  and  C_18
REMARK    5  A    between atoms: C_18  and  C_19
REMARK    6  A    between atoms: C_19  and  C_20
REMARK    7  A    between atoms: C_20  and  N_21
REMARK    8  A    between atoms: C_26  and  O_27
REMARK                            x       y       z     vdW  Elec       q    Type
REMARK                         _______ _______ _______ _____ _____    ______ ____
ROOT
ATOM      1  O   UNL     1       1.863   9.834  17.378  0.00  0.00    +0.000 OA
ATOM      2  C   UNL     1       1.864   9.014  18.285  0.00  0.00    +0.000 A 
ATOM      3  C   UNL     1       2.355   7.655  18.008  0.00  0.00    +0.000 A 
ATOM      4  C   UNL     1       2.333   6.735  18.977  0.00  0.00    +0.000 A 
ATOM      5  O   UNL     1       1.867   6.952  20.258  0.00  0.00    +0.000 OA
ATOM      6  C   UNL     1       1.438   8.223  20.580  0.00  0.00    +0.000 A 
ATOM      7  C   UNL     1       1.012   8.415  21.898  0.00  0.00    +0.000 A 
ATOM      8  C   UNL     1       0.595   9.683  22.320  0.00  0.00    +0.000 A 
ATOM      9  C   UNL     1       0.610  10.769  21.434  0.00  0.00    +0.000 A 
ATOM     10  C   UNL     1       0.993  10.545  20.099  0.00  0.00    +0.000 A 
ATOM     11  C   UNL     1       1.418   9.282  19.669  0.00  0.00    +0.000 A 
ENDROOT
BRANCH   4  12
ATOM     12  C   UNL     1       2.823   5.384  18.696  0.00  0.00    +0.000 A 
ATOM     13  C   UNL     1       4.031   4.941  19.250  0.00  0.00    +0.000 A 
ATOM     14  C   UNL     1       4.553   3.695  18.893  0.00  0.00    +0.000 A 
ATOM     15  C   UNL     1       3.873   2.885  17.985  0.00  0.00    +0.000 A 
ATOM     16  C   UNL     1       2.664   3.314  17.440  0.00  0.00    +0.000 A 
ATOM     17  C   UNL     1       2.139   4.559  17.794  0.00  0.00    +0.000 A 
ENDBRANCH   4  12
BRANCH   8  18
ATOM     18  O   UNL     1       0.158   9.826  23.608  0.00  0.00    +0.000 OA
ATOM     19  H   UNL     1       0.091  10.770  23.827  0.00  0.00    +0.000 HD
ENDBRANCH   8  18
BRANCH  10  20
ATOM     20  O   UNL     1       0.957  11.615  19.241  0.00  0.00    +0.000 OA
ATOM     21  H   UNL     1       1.841  12.027  19.282  0.00  0.00    +0.000 HD
ENDBRANCH  10  20
BRANCH   9  22
ATOM     22  O   UNL     1       0.283  12.083  21.705  0.00  0.00    +0.000 OA
BRANCH  22  23
ATOM     23  C   UNL     1      -1.095  12.335  21.973  0.00  0.00    +0.000 C 
BRANCH  23  24
ATOM     24  C   UNL     1      -1.692  13.302  20.937  0.00  0.00    +0.000 C 
BRANCH  24  25
ATOM     25  C   UNL     1      -2.842  12.569  20.232  0.00  0.00    +0.000 C 
BRANCH  25  26
ATOM     26  N   UNL     1      -4.152  13.234  20.174  0.00  0.00    +0.000 NA
ATOM     27  C   UNL     1      -4.395  13.927  21.461  0.00  0.00    +0.000 C 
ATOM     28  C   UNL     1      -5.206  12.948  22.287  0.00  0.00    +0.000 C 
ATOM     29  C   UNL     1      -6.149  12.387  21.247  0.00  0.00    +0.000 C 
ATOM     30  C   UNL     1      -5.291  12.314  19.985  0.00  0.00    +0.000 C 
ENDBRANCH  25  26
ENDBRANCH  24  25
ENDBRANCH  23  24
ENDBRANCH  22  23
ENDBRANCH   9  22
TORSDOF 8
ENDMDL
MODEL 6
REMARK VINA RESULT:      -7.5      0.763      1.228
REMARK  Name = 
REMARK  8 active torsions:
REMARK  status: ('A' for Active; 'I' for Inactive)
REMARK    1  A    between atoms: C_4  and  C_5
REMARK    2  A    between atoms: C_14  and  O_15
REMARK    3  A    between atoms: C_16  and  O_17
REMARK    4  A    between atoms: O_17  and  C_18
REMARK    5  A    between atoms: C_18  and  C_19
REMARK    6  A    between atoms: C_19  and  C_20
REMARK    7  A    between atoms: C_20  and  N_21
REMARK    8  A    between atoms: C_26  and  O_27
REMARK                            x       y       z     vdW  Elec       q    Type
REMARK                         _______ _______ _______ _____ _____    ______ ____
ROOT
ATOM      1  O   UNL     1       2.916   8.252  16.894  0.00  0.00    +0.000 OA
ATOM      2  C   UNL     1       2.536   7.907  18.004  0.00  0.00    +0.000 A 
ATOM      3  C   UNL     1       2.817   6.533  18.450  0.00  0.00    +0.000 A 
ATOM      4  C   UNL     1       2.380   6.127  19.646  0.00  0.00    +0.000 A 
ATOM      5  O   UNL     1       1.658   6.905  20.528  0.00  0.00    +0.000 OA
ATOM      6  C   UNL     1       1.409   8.215  20.173  0.00  0.00    +0.000 A 
ATOM      7  C   UNL     1       0.711   8.985  21.109  0.00  0.00    +0.000 A 
ATOM      8  C   UNL     1       0.447  10.335  20.846  0.00  0.00    +0.000 A 
ATOM      9  C   UNL     1       0.887  10.928  19.655  0.00  0.00    +0.000 A 
ATOM     10  C   UNL     1       1.543  10.124  18.705  0.00  0.00    +0.000 A 
ATOM     11  C   UNL     1       1.817   8.775  18.960  0.00  0.00    +0.000 A 
ENDROOT
BRANCH   4  12
ATOM     12  C   UNL     1       2.663   4.759  20.086  0.00  0.00    +0.000 A 
ATOM     13  C   UNL     1       1.968   4.207  21.170  0.00  0.00    +0.000 A 
ATOM     14  C   UNL     1       2.316   2.945  21.659  0.00  0.00    +0.000 A 
ATOM     15  C   UNL     1       3.355   2.227  21.068  0.00  0.00    +0.000 A 
ATOM     16  C   UNL     1       4.041   2.764  19.980  0.00  0.00    +0.000 A 
ATOM     17  C   UNL     1       3.697   4.026  19.489  0.00  0.00    +0.000 A 
ENDBRANCH   4  12
BRANCH   8  18
ATOM     18  O   UNL     1      -0.263  11.049  21.772  0.00  0.00    +0.000 OA
ATOM     19  H   UNL     1      -0.001  10.777  22.667  0.00  0.00    +0.000 HD
ENDBRANCH   8  18
BRANCH  10  20
ATOM     20  O   UNL     1       1.924  10.718  17.528  0.00  0.00    +0.000 OA
ATOM     21  H   UNL     1       2.829  11.057  17.674  0.00  0.00    +0.000 HD
ENDBRANCH  10  20
BRANCH   9  22
ATOM     22  O   UNL     1       0.756  12.248  19.271  0.00  0.00    +0.000 OA
BRANCH  22  23
ATOM     23  C   UNL     1      -0.579  12.747  19.219  0.00  0.00    +0.000 C 
BRANCH  23  24
ATOM     24  C   UNL     1      -1.390  12.042  18.119  0.00  0.00    +0.000 C 
BRANCH  24  25
ATOM     25  C   UNL     1      -2.817  11.851  18.650  0.00  0.00    +0.000 C 
BRANCH  25  26
ATOM     26  N   UNL     1      -3.698  10.910  17.941  0.00  0.00    +0.000 NA
ATOM     27  C   UNL     1      -2.921   9.700  17.587  0.00  0.00    +0.000 C 
ATOM     28  C   UNL     1      -2.446   9.939  16.167  0.00  0.00    +0.000 C 
ATOM     29  C   UNL     1      -3.670  10.573  15.546  0.00  0.00    +0.000 C 
ATOM     30  C   UNL     1      -4.244  11.430  16.672  0.00  0.00    +0.000 C 
ENDBRANCH  25  26
ENDBRANCH  24  25
ENDBRANCH  23  24
ENDBRANCH  22  23
ENDBRANCH   9  22
TORSDOF 8
ENDMDL
MODEL 7
REMARK VINA RESULT:      -7.5      2.292      3.834
REMARK  Name = 
REMARK  8 active torsions:
REMARK  status: ('A' for Active; 'I' for Inactive)
REMARK    1  A    between atoms: C_4  and  C_5
REMARK    2  A    between atoms: C_14  and  O_15
REMARK    3  A    between atoms: C_16  and  O_17
REMARK    4  A    between atoms: O_17  and  C_18
REMARK    5  A    between atoms: C_18  and  C_19
REMARK    6  A    between atoms: C_19  and  C_20
REMARK    7  A    between atoms: C_20  and  N_21
REMARK    8  A    between atoms: C_26  and  O_27
REMARK                            x       y       z     vdW  Elec       q    Type
REMARK                         _______ _______ _______ _____ _____    ______ ____
ROOT
ATOM      1  O   UNL     1       1.995   9.267  17.298  0.00  0.00    +0.000 OA
ATOM      2  C   UNL     1       1.878   8.750  18.400  0.00  0.00    +0.000 A 
ATOM      3  C   UNL     1       2.385   7.382  18.596  0.00  0.00    +0.000 A 
ATOM      4  C   UNL     1       2.236   6.787  19.783  0.00  0.00    +0.000 A 
ATOM      5  O   UNL     1       1.621   7.359  20.879  0.00  0.00    +0.000 OA
ATOM      6  C   UNL     1       1.170   8.657  20.758  0.00  0.00    +0.000 A 
ATOM      7  C   UNL     1       0.590   9.217  21.901  0.00  0.00    +0.000 A 
ATOM      8  C   UNL     1       0.138  10.541  21.878  0.00  0.00    +0.000 A 
ATOM      9  C   UNL     1       0.272  11.320  20.720  0.00  0.00    +0.000 A 
ATOM     10  C   UNL     1       0.811  10.723  19.566  0.00  0.00    +0.000 A 
ATOM     11  C   UNL     1       1.271   9.401  19.580  0.00  0.00    +0.000 A 
ENDROOT
BRANCH   4  12
ATOM     12  C   UNL     1       2.743   5.427  19.972  0.00  0.00    +0.000 A 
ATOM     13  C   UNL     1       3.865   4.984  19.261  0.00  0.00    +0.000 A 
ATOM     14  C   UNL     1       4.280   3.653  19.359  0.00  0.00    +0.000 A 
ATOM     15  C   UNL     1       3.579   2.759  20.167  0.00  0.00    +0.000 A 
ATOM     16  C   UNL     1       2.470   3.196  20.889  0.00  0.00    +0.000 A 
ATOM     17  C   UNL     1       2.052   4.525  20.793  0.00  0.00    +0.000 A 
ENDBRANCH   4  12
BRANCH   8  18
ATOM     18  O   UNL     1      -0.450  11.046  23.006  0.00  0.00    +0.000 OA
ATOM     19  H   UNL     1      -1.285  11.483  22.771  0.00  0.00    +0.000 HD
ENDBRANCH   8  18
BRANCH  10  20
ATOM     20  O   UNL     1       0.890  11.493  18.433  0.00  0.00    +0.000 OA
ATOM     21  H   UNL     1       0.042  11.375  17.963  0.00  0.00    +0.000 HD
ENDBRANCH  10  20
BRANCH   9  22
ATOM     22  O   UNL     1      -0.072  12.647  20.552  0.00  0.00    +0.000 OA
BRANCH  22  23
ATOM     23  C   UNL     1      -1.346  12.885  19.957  0.00  0.00    +0.000 C 
BRANCH  23  24
ATOM     24  C   UNL     1      -2.404  13.204  21.025  0.00  0.00    +0.000 C 
BRANCH  24  25
ATOM     25  C   UNL     1      -1.763  14.163  22.037  0.00  0.00    +0.000 C 
BRANCH  25  26
ATOM     26  N   UNL     1      -1.737  13.760  23.451  0.00  0.00    +0.000 NA
ATOM     27  C   UNL     1      -3.098  13.337  23.854  0.00  0.00    +0.000 C 
ATOM     28  C   UNL     1      -3.724  14.570  24.475  0.00  0.00    +0.000 C 
ATOM     29  C   UNL     1      -2.564  15.130  25.265  0.00  0.00    +0.000 C 
ATOM     30  C   UNL     1      -1.352  14.840  24.382  0.00  0.00    +0.000 C 
ENDBRANCH  25  26
ENDBRANCH  24  25
ENDBRANCH  23  24
ENDBRANCH  22  23
ENDBRANCH   9  22
TORSDOF 8
ENDMDL
MODEL 8
REMARK VINA RESULT:      -7.5      2.629      4.017
REMARK  Name = 
REMARK  8 active torsions:
REMARK  status: ('A' for Active; 'I' for Inactive)
REMARK    1  A    between atoms: C_4  and  C_5
REMARK    2  A    between atoms: C_14  and  O_15
REMARK    3  A    between atoms: C_16  and  O_17
REMARK    4  A    between atoms: O_17  and  C_18
REMARK    5  A    between atoms: C_18  and  C_19
REMARK    6  A    between atoms: C_19  and  C_20
REMARK    7  A    between atoms: C_20  and  N_21
REMARK    8  A    between atoms: C_26  and  O_27
REMARK                            x       y       z     vdW  Elec       q    Type
REMARK                         _______ _______ _______ _____ _____    ______ ____
ROOT
ATOM      1  O   UNL     1       2.066   9.175  17.319  0.00  0.00    +0.000 OA
ATOM      2  C   UNL     1       1.913   8.642  18.409  0.00  0.00    +0.000 A 
ATOM      3  C   UNL     1       2.355   7.249  18.582  0.00  0.00    +0.000 A 
ATOM      4  C   UNL     1       2.165   6.639  19.756  0.00  0.00    +0.000 A 
ATOM      5  O   UNL     1       1.564   7.216  20.856  0.00  0.00    +0.000 OA
ATOM      6  C   UNL     1       1.173   8.535  20.757  0.00  0.00    +0.000 A 
ATOM      7  C   UNL     1       0.606   9.098  21.904  0.00  0.00    +0.000 A 
ATOM      8  C   UNL     1       0.214  10.442  21.904  0.00  0.00    +0.000 A 
ATOM      9  C   UNL     1       0.397  11.236  20.763  0.00  0.00    +0.000 A 
ATOM     10  C   UNL     1       0.922  10.639  19.603  0.00  0.00    +0.000 A 
ATOM     11  C   UNL     1       1.322   9.297  19.596  0.00  0.00    +0.000 A 
ENDROOT
BRANCH   4  12
ATOM     12  C   UNL     1       2.608   5.253  19.924  0.00  0.00    +0.000 A 
ATOM     13  C   UNL     1       1.997   4.426  20.875  0.00  0.00    +0.000 A 
ATOM     14  C   UNL     1       2.493   3.141  21.112  0.00  0.00    +0.000 A 
ATOM     15  C   UNL     1       3.598   2.675  20.400  0.00  0.00    +0.000 A 
ATOM     16  C   UNL     1       4.202   3.488  19.442  0.00  0.00    +0.000 A 
ATOM     17  C   UNL     1       3.709   4.773  19.203  0.00  0.00    +0.000 A 
ENDBRANCH   4  12
BRANCH   8  18
ATOM     18  O   UNL     1      -0.364  10.950  23.034  0.00  0.00    +0.000 OA
ATOM     19  H   UNL     1      -0.628  10.223  23.622  0.00  0.00    +0.000 HD
ENDBRANCH   8  18
BRANCH  10  20
ATOM     20  O   UNL     1       1.049  11.426  18.487  0.00  0.00    +0.000 OA
ATOM     21  H   UNL     1       0.175  11.836  18.340  0.00  0.00    +0.000 HD
ENDBRANCH  10  20
BRANCH   9  22
ATOM     22  O   UNL     1       0.115  12.580  20.618  0.00  0.00    +0.000 OA
BRANCH  22  23
ATOM     23  C   UNL     1       1.051  13.476  21.215  0.00  0.00    +0.000 C 
BRANCH  23  24
ATOM     24  C   UNL     1       0.332  14.657  21.889  0.00  0.00    +0.000 C 
BRANCH  24  25
ATOM     25  C   UNL     1      -1.104  14.209  22.193  0.00  0.00    +0.000 C 
BRANCH  25  26
ATOM     26  N   UNL     1      -1.432  13.832  23.576  0.00  0.00    +0.000 NA
ATOM     27  C   UNL     1      -2.840  13.377  23.628  0.00  0.00    +0.000 C 
ATOM     28  C   UNL     1      -3.634  14.602  24.037  0.00  0.00    +0.000 C 
ATOM     29  C   UNL     1      -2.729  15.209  25.084  0.00  0.00    +0.000 C 
ATOM     30  C   UNL     1      -1.325  14.938  24.548  0.00  0.00    +0.000 C 
ENDBRANCH  25  26
ENDBRANCH  24  25
ENDBRANCH  23  24
ENDBRANCH  22  23
ENDBRANCH   9  22
TORSDOF 8
ENDMDL
MODEL 9
REMARK VINA RESULT:      -7.5      2.765      3.755
REMARK  Name = 
REMARK  8 active torsions:
REMARK  status: ('A' for Active; 'I' for Inactive)
REMARK    1  A    between atoms: C_4  and  C_5
REMARK    2  A    between atoms: C_14  and  O_15
REMARK    3  A    between atoms: C_16  and  O_17
REMARK    4  A    between atoms: O_17  and  C_18
REMARK    5  A    between atoms: C_18  and  C_19
REMARK    6  A    between atoms: C_19  and  C_20
REMARK    7  A    between atoms: C_20  and  N_21
REMARK    8  A    between atoms: C_26  and  O_27
REMARK                            x       y       z     vdW  Elec       q    Type
REMARK                         _______ _______ _______ _____ _____    ______ ____
ROOT
ATOM      1  O   UNL     1       2.083   9.146  17.285  0.00  0.00    +0.000 OA
ATOM      2  C   UNL     1       1.930   8.663  18.398  0.00  0.00    +0.000 A 
ATOM      3  C   UNL     1       2.383   7.283  18.637  0.00  0.00    +0.000 A 
ATOM      4  C   UNL     1       2.193   6.726  19.837  0.00  0.00    +0.000 A 
ATOM      5  O   UNL     1       1.582   7.348  20.907  0.00  0.00    +0.000 OA
ATOM      6  C   UNL     1       1.181   8.658  20.746  0.00  0.00    +0.000 A 
ATOM      7  C   UNL     1       0.604   9.268  21.864  0.00  0.00    +0.000 A 
ATOM      8  C   UNL     1       0.201  10.607  21.799  0.00  0.00    +0.000 A 
ATOM      9  C   UNL     1       0.382  11.349  20.624  0.00  0.00    +0.000 A 
ATOM     10  C   UNL     1       0.917  10.703  19.495  0.00  0.00    +0.000 A 
ATOM     11  C   UNL     1       1.328   9.366  19.551  0.00  0.00    +0.000 A 
ENDROOT
BRANCH   4  12
ATOM     12  C   UNL     1       2.646   5.353  20.070  0.00  0.00    +0.000 A 
ATOM     13  C   UNL     1       3.737   4.837  19.358  0.00  0.00    +0.000 A 
ATOM     14  C   UNL     1       4.099   3.495  19.500  0.00  0.00    +0.000 A 
ATOM     15  C   UNL     1       3.375   2.662  20.353  0.00  0.00    +0.000 A 
ATOM     16  C   UNL     1       2.297   3.171  21.074  0.00  0.00    +0.000 A 
ATOM     17  C   UNL     1       1.933   4.513  20.935  0.00  0.00    +0.000 A 
ENDBRANCH   4  12
BRANCH   8  18
ATOM     18  O   UNL     1      -0.386  11.162  22.903  0.00  0.00    +0.000 OA
ATOM     19  H   UNL     1       0.106  10.903  23.700  0.00  0.00    +0.000 HD
ENDBRANCH   8  18
BRANCH  10  20
ATOM     20  O   UNL     1       1.043  11.439  18.344  0.00  0.00    +0.000 OA
ATOM     21  H   UNL     1       1.681  10.959  17.781  0.00  0.00    +0.000 HD
ENDBRANCH  10  20
BRANCH   9  22
ATOM     22  O   UNL     1       0.090  12.683  20.416  0.00  0.00    +0.000 OA
BRANCH  22  23
ATOM     23  C   UNL     1       0.994  13.614  21.007  0.00  0.00    +0.000 C 
BRANCH  23  24
ATOM     24  C   UNL     1       1.659  14.495  19.937  0.00  0.00    +0.000 C 
BRANCH  24  25
ATOM     25  C   UNL     1       0.567  15.385  19.329  0.00  0.00    +0.000 C 
BRANCH  25  26
ATOM     26  N   UNL     1       0.813  16.834  19.264  0.00  0.00    +0.000 NA
ATOM     27  C   UNL     1      -0.471  17.528  19.014  0.00  0.00    +0.000 C 
ATOM     28  C   UNL     1      -0.528  17.720  17.511  0.00  0.00    +0.000 C 
ATOM     29  C   UNL     1       0.903  18.100  17.204  0.00  0.00    +0.000 C 
ATOM     30  C   UNL     1       1.718  17.246  18.172  0.00  0.00    +0.000 C 
ENDBRANCH  25  26
ENDBRANCH  24  25
ENDBRANCH  23  24
ENDBRANCH  22  23
ENDBRANCH   9  22
TORSDOF 8
ENDMDL
