MODEL 1
REMARK VINA RESULT:      -8.5      0.000      0.000
REMARK  Name = 
REMARK  7 active torsions:
REMARK  status: ('A' for Active; 'I' for Inactive)
REMARK    1  A    between atoms: C_2  and  C_3
REMARK    2  A    between atoms: C_3  and  S_4
REMARK    3  A    between atoms: S_4  and  C_5
REMARK    4  A    between atoms: N_13  and  C_14
REMARK    5  A    between atoms: C_14  and  C_15
REMARK    6  A    between atoms: C_15  and  C_16
REMARK    7  A    between atoms: N_22  and  C_23
REMARK                            x       y       z     vdW  Elec       q    Type
REMARK                         _______ _______ _______ _____ _____    ______ ____
ROOT
ATOM      1  C   UNL     1       4.704   4.971  17.137  0.00  0.00    +0.000 A 
ATOM      2  N   UNL     1       4.473   3.700  16.917  0.00  0.00    +0.000 NA
ATOM      3  C   UNL     1       3.372   3.404  17.673  0.00  0.00    +0.000 A 
ATOM      4  C   UNL     1       2.703   2.177  17.802  0.00  0.00    +0.000 A 
ATOM      5  C   UNL     1       1.531   2.115  18.559  0.00  0.00    +0.000 A 
ATOM      6  C   UNL     1       1.027   3.258  19.168  0.00  0.00    +0.000 A 
ATOM      7  C   UNL     1       1.687   4.486  19.060  0.00  0.00    +0.000 A 
ATOM      8  C   UNL     1       2.880   4.541  18.323  0.00  0.00    +0.000 A 
ATOM      9  N   UNL     1       3.794   5.535  18.008  0.00  0.00    +0.000 N 
ENDROOT
BRANCH   1  10
ATOM     10  S   UNL     1       5.897   5.886  16.272  0.00  0.00    +0.000 S 
BRANCH  10  11
ATOM     11  C   UNL     1       6.918   4.533  15.623  0.00  0.00    +0.000 C 
BRANCH  11  13
ATOM     12  O   UNL     1       7.555   5.351  13.443  0.00  0.00    +0.000 OA
ATOM     13  C   UNL     1       6.914   4.533  14.103  0.00  0.00    +0.000 C 
ATOM     14  N   UNL     1       6.127   3.546  13.539  0.00  0.00    +0.000 N 
ATOM     15  H   UNL     1       5.492   3.033  14.149  0.00  0.00    +0.000 HD
BRANCH  14  16
ATOM     16  C   UNL     1       6.004   3.372  12.128  0.00  0.00    +0.000 C 
ATOM     17  C   UNL     1       5.668   2.024  11.550  0.00  0.00    +0.000 C 
ATOM     18  C   UNL     1       4.669   3.140  11.476  0.00  0.00    +0.000 C 
ENDBRANCH  14  16
ENDBRANCH  11  13
ENDBRANCH  10  11
ENDBRANCH   1  10
BRANCH   9  19
ATOM     19  C   UNL     1       3.759   6.948  18.362  0.00  0.00    +0.000 C 
BRANCH  19  20
ATOM     20  C   UNL     1       2.576   7.765  17.846  0.00  0.00    +0.000 C 
BRANCH  20  21
ATOM     21  C   UNL     1       1.812   8.464  18.942  0.00  0.00    +0.000 A 
ATOM     22  C   UNL     1       1.060   9.614  18.658  0.00  0.00    +0.000 A 
ATOM     23  C   UNL     1       0.300  10.227  19.653  0.00  0.00    +0.000 A 
ATOM     24  C   UNL     1       0.279   9.693  20.939  0.00  0.00    +0.000 A 
ATOM     25  C   UNL     1       1.018   8.547  21.231  0.00  0.00    +0.000 A 
ATOM     26  C   UNL     1       1.783   7.934  20.238  0.00  0.00    +0.000 A 
ENDBRANCH  20  21
ENDBRANCH  19  20
ENDBRANCH   9  19
TORSDOF 7
ENDMDL
MODEL 2
REMARK VINA RESULT:      -8.3      1.369      4.143
REMARK  Name = 
REMARK  7 active torsions:
REMARK  status: ('A' for Active; 'I' for Inactive)
REMARK    1  A    between atoms: C_2  and  C_3
REMARK    2  A    between atoms: C_3  and  S_4
REMARK    3  A    between atoms: S_4  and  C_5
REMARK    4  A    between atoms: N_13  and  C_14
REMARK    5  A    between atoms: C_14  and  C_15
REMARK    6  A    between atoms: C_15  and  C_16
REMARK    7  A    between atoms: N_22  and  C_23
REMARK                            x       y       z     vdW  Elec       q    Type
REMARK                         _______ _______ _______ _____ _____    ______ ____
ROOT
ATOM      1  C   UNL     1       5.468   6.052  17.425  0.00  0.00    +0.000 A 
ATOM      2  N   UNL     1       4.866   7.088  16.895  0.00  0.00    +0.000 NA
ATOM      3  C   UNL     1       3.764   7.297  17.679  0.00  0.00    +0.000 A 
ATOM      4  C   UNL     1       2.776   8.286  17.554  0.00  0.00    +0.000 A 
ATOM      5  C   UNL     1       1.778   8.380  18.528  0.00  0.00    +0.000 A 
ATOM      6  C   UNL     1       1.772   7.513  19.613  0.00  0.00    +0.000 A 
ATOM      7  C   UNL     1       2.743   6.514  19.747  0.00  0.00    +0.000 A 
ATOM      8  C   UNL     1       3.727   6.402  18.754  0.00  0.00    +0.000 A 
ATOM      9  N   UNL     1       4.811   5.565  18.537  0.00  0.00    +0.000 N 
ENDROOT
BRANCH   1  10
ATOM     10  S   UNL     1       7.023   5.486  16.905  0.00  0.00    +0.000 S 
BRANCH  10  11
ATOM     11  C   UNL     1       6.522   4.016  15.967  0.00  0.00    +0.000 C 
BRANCH  11  13
ATOM     12  O   UNL     1       7.029   5.326  14.004  0.00  0.00    +0.000 OA
ATOM     13  C   UNL     1       6.553   4.291  14.473  0.00  0.00    +0.000 C 
ATOM     14  N   UNL     1       5.995   3.289  13.700  0.00  0.00    +0.000 N 
ATOM     15  H   UNL     1       5.464   2.560  14.174  0.00  0.00    +0.000 HD
BRANCH  14  16
ATOM     16  C   UNL     1       5.942   3.354  12.276  0.00  0.00    +0.000 C 
ATOM     17  C   UNL     1       5.644   2.122  11.465  0.00  0.00    +0.000 C 
ATOM     18  C   UNL     1       4.642   3.236  11.530  0.00  0.00    +0.000 C 
ENDBRANCH  14  16
ENDBRANCH  11  13
ENDBRANCH  10  11
ENDBRANCH   1  10
BRANCH   9  19
ATOM     19  C   UNL     1       5.301   4.477  19.373  0.00  0.00    +0.000 C 
BRANCH  19  20
ATOM     20  C   UNL     1       4.718   3.088  19.119  0.00  0.00    +0.000 C 
BRANCH  20  21
ATOM     21  C   UNL     1       3.254   2.986  19.463  0.00  0.00    +0.000 A 
ATOM     22  C   UNL     1       2.838   3.013  20.803  0.00  0.00    +0.000 A 
ATOM     23  C   UNL     1       1.482   2.983  21.124  0.00  0.00    +0.000 A 
ATOM     24  C   UNL     1       0.529   2.934  20.111  0.00  0.00    +0.000 A 
ATOM     25  C   UNL     1       0.930   2.913  18.776  0.00  0.00    +0.000 A 
ATOM     26  C   UNL     1       2.287   2.938  18.451  0.00  0.00    +0.000 A 
ENDBRANCH  20  21
ENDBRANCH  19  20
ENDBRANCH   9  19
TORSDOF 7
ENDMDL
MODEL 3
REMARK VINA RESULT:      -8.1      1.171      1.557
REMARK  Name = 
REMARK  7 active torsions:
REMARK  status: ('A' for Active; 'I' for Inactive)
REMARK    1  A    between atoms: C_2  and  C_3
REMARK    2  A    between atoms: C_3  and  S_4
REMARK    3  A    between atoms: S_4  and  C_5
REMARK    4  A    between atoms: N_13  and  C_14
REMARK    5  A    between atoms: C_14  and  C_15
REMARK    6  A    between atoms: C_15  and  C_16
REMARK    7  A    between atoms: N_22  and  C_23
REMARK                            x       y       z     vdW  Elec       q    Type
REMARK                         _______ _______ _______ _____ _____    ______ ____
ROOT
ATOM      1  C   UNL     1       4.375   5.094  18.043  0.00  0.00    +0.000 A 
ATOM      2  N   UNL     1       4.780   4.033  18.698  0.00  0.00    +0.000 NA
ATOM      3  C   UNL     1       3.754   3.731  19.551  0.00  0.00    +0.000 A 
ATOM      4  C   UNL     1       3.669   2.681  20.480  0.00  0.00    +0.000 A 
ATOM      5  C   UNL     1       2.481   2.494  21.191  0.00  0.00    +0.000 A 
ATOM      6  C   UNL     1       1.393   3.331  20.973  0.00  0.00    +0.000 A 
ATOM      7  C   UNL     1       1.465   4.389  20.060  0.00  0.00    +0.000 A 
ATOM      8  C   UNL     1       2.668   4.593  19.367  0.00  0.00    +0.000 A 
ATOM      9  N   UNL     1       3.114   5.507  18.425  0.00  0.00    +0.000 N 
ENDROOT
BRANCH   1  10
ATOM     10  S   UNL     1       5.244   5.777  16.706  0.00  0.00    +0.000 S 
BRANCH  10  11
ATOM     11  C   UNL     1       6.114   4.300  16.112  0.00  0.00    +0.000 C 
BRANCH  11  13
ATOM     12  O   UNL     1       7.139   5.304  14.171  0.00  0.00    +0.000 OA
ATOM     13  C   UNL     1       6.423   4.413  14.628  0.00  0.00    +0.000 C 
ATOM     14  N   UNL     1       5.823   3.441  13.849  0.00  0.00    +0.000 N 
ATOM     15  H   UNL     1       5.106   2.859  14.279  0.00  0.00    +0.000 HD
BRANCH  14  16
ATOM     16  C   UNL     1       6.002   3.369  12.435  0.00  0.00    +0.000 C 
ATOM     17  C   UNL     1       5.738   2.084  11.696  0.00  0.00    +0.000 C 
ATOM     18  C   UNL     1       4.832   3.263  11.498  0.00  0.00    +0.000 C 
ENDBRANCH  14  16
ENDBRANCH  11  13
ENDBRANCH  10  11
ENDBRANCH   1  10
BRANCH   9  19
ATOM     19  C   UNL     1       2.383   6.603  17.804  0.00  0.00    +0.000 C 
BRANCH  19  20
ATOM     20  C   UNL     1       2.702   8.015  18.291  0.00  0.00    +0.000 C 
BRANCH  20  21
ATOM     21  C   UNL     1       1.666   8.566  19.238  0.00  0.00    +0.000 A 
ATOM     22  C   UNL     1       1.560   8.060  20.543  0.00  0.00    +0.000 A 
ATOM     23  C   UNL     1       0.648   8.608  21.443  0.00  0.00    +0.000 A 
ATOM     24  C   UNL     1      -0.160   9.672  21.052  0.00  0.00    +0.000 A 
ATOM     25  C   UNL     1      -0.059  10.187  19.760  0.00  0.00    +0.000 A 
ATOM     26  C   UNL     1       0.850   9.637  18.855  0.00  0.00    +0.000 A 
ENDBRANCH  20  21
ENDBRANCH  19  20
ENDBRANCH   9  19
TORSDOF 7
ENDMDL
MODEL 4
REMARK VINA RESULT:      -8.0      3.575      6.756
REMARK  Name = 
REMARK  7 active torsions:
REMARK  status: ('A' for Active; 'I' for Inactive)
REMARK    1  A    between atoms: C_2  and  C_3
REMARK    2  A    between atoms: C_3  and  S_4
REMARK    3  A    between atoms: S_4  and  C_5
REMARK    4  A    between atoms: N_13  and  C_14
REMARK    5  A    between atoms: C_14  and  C_15
REMARK    6  A    between atoms: C_15  and  C_16
REMARK    7  A    between atoms: N_22  and  C_23
REMARK                            x       y       z     vdW  Elec       q    Type
REMARK                         _______ _______ _______ _____ _____    ______ ____
ROOT
ATOM      1  C   UNL     1       6.374   5.276  16.500  0.00  0.00    +0.000 A 
ATOM      2  N   UNL     1       7.342   5.555  15.662  0.00  0.00    +0.000 NA
ATOM      3  C   UNL     1       7.007   4.907  14.505  0.00  0.00    +0.000 A 
ATOM      4  C   UNL     1       7.703   4.876  13.286  0.00  0.00    +0.000 A 
ATOM      5  C   UNL     1       7.131   4.225  12.190  0.00  0.00    +0.000 A 
ATOM      6  C   UNL     1       5.882   3.626  12.302  0.00  0.00    +0.000 A 
ATOM      7  C   UNL     1       5.180   3.637  13.513  0.00  0.00    +0.000 A 
ATOM      8  C   UNL     1       5.768   4.266  14.621  0.00  0.00    +0.000 A 
ATOM      9  N   UNL     1       5.402   4.469  15.942  0.00  0.00    +0.000 N 
ENDROOT
BRANCH   1  10
ATOM     10  S   UNL     1       6.231   6.005  18.068  0.00  0.00    +0.000 S 
BRANCH  10  11
ATOM     11  C   UNL     1       7.924   6.622  18.280  0.00  0.00    +0.000 C 
BRANCH  11  13
ATOM     12  O   UNL     1       7.377   8.668  17.122  0.00  0.00    +0.000 OA
ATOM     13  C   UNL     1       7.989   8.121  18.041  0.00  0.00    +0.000 C 
ATOM     14  N   UNL     1       8.795   8.803  18.933  0.00  0.00    +0.000 N 
ATOM     15  H   UNL     1       9.404   8.257  19.541  0.00  0.00    +0.000 HD
BRANCH  14  16
ATOM     16  C   UNL     1       8.975  10.218  18.882  0.00  0.00    +0.000 C 
ATOM     17  C   UNL     1       9.483  10.967  20.084  0.00  0.00    +0.000 C 
ATOM     18  C   UNL     1      10.344  10.838  18.862  0.00  0.00    +0.000 C 
ENDBRANCH  14  16
ENDBRANCH  11  13
ENDBRANCH  10  11
ENDBRANCH   1  10
BRANCH   9  19
ATOM     19  C   UNL     1       4.173   4.075  16.616  0.00  0.00    +0.000 C 
BRANCH  19  20
ATOM     20  C   UNL     1       4.259   2.902  17.590  0.00  0.00    +0.000 C 
BRANCH  20  21
ATOM     21  C   UNL     1       3.227   2.962  18.687  0.00  0.00    +0.000 A 
ATOM     22  C   UNL     1       1.866   3.094  18.372  0.00  0.00    +0.000 A 
ATOM     23  C   UNL     1       0.901   3.086  19.378  0.00  0.00    +0.000 A 
ATOM     24  C   UNL     1       1.286   2.939  20.708  0.00  0.00    +0.000 A 
ATOM     25  C   UNL     1       2.635   2.802  21.033  0.00  0.00    +0.000 A 
ATOM     26  C   UNL     1       3.604   2.814  20.028  0.00  0.00    +0.000 A 
ENDBRANCH  20  21
ENDBRANCH  19  20
ENDBRANCH   9  19
TORSDOF 7
ENDMDL
MODEL 5
REMARK VINA RESULT:      -8.0      0.532      1.144
REMARK  Name = 
REMARK  7 active torsions:
REMARK  status: ('A' for Active; 'I' for Inactive)
REMARK    1  A    between atoms: C_2  and  C_3
REMARK    2  A    between atoms: C_3  and  S_4
REMARK    3  A    between atoms: S_4  and  C_5
REMARK    4  A    between atoms: N_13  and  C_14
REMARK    5  A    between atoms: C_14  and  C_15
REMARK    6  A    between atoms: C_15  and  C_16
REMARK    7  A    between atoms: N_22  and  C_23
REMARK                            x       y       z     vdW  Elec       q    Type
REMARK                         _______ _______ _______ _____ _____    ______ ____
ROOT
ATOM      1  C   UNL     1       4.351   4.976  17.265  0.00  0.00    +0.000 A 
ATOM      2  N   UNL     1       4.350   3.675  17.115  0.00  0.00    +0.000 NA
ATOM      3  C   UNL     1       3.278   3.236  17.844  0.00  0.00    +0.000 A 
ATOM      4  C   UNL     1       2.820   1.920  18.021  0.00  0.00    +0.000 A 
ATOM      5  C   UNL     1       1.638   1.700  18.733  0.00  0.00    +0.000 A 
ATOM      6  C   UNL     1       0.919   2.770  19.250  0.00  0.00    +0.000 A 
ATOM      7  C   UNL     1       1.367   4.086  19.092  0.00  0.00    +0.000 A 
ATOM      8  C   UNL     1       2.569   4.305  18.402  0.00  0.00    +0.000 A 
ATOM      9  N   UNL     1       3.316   5.422  18.063  0.00  0.00    +0.000 N 
ENDROOT
BRANCH   1  10
ATOM     10  S   UNL     1       5.415   6.034  16.394  0.00  0.00    +0.000 S 
BRANCH  10  11
ATOM     11  C   UNL     1       6.720   4.858  15.939  0.00  0.00    +0.000 C 
BRANCH  11  13
ATOM     12  O   UNL     1       7.700   5.455  13.815  0.00  0.00    +0.000 OA
ATOM     13  C   UNL     1       6.875   4.778  14.429  0.00  0.00    +0.000 C 
ATOM     14  N   UNL     1       6.008   3.892  13.817  0.00  0.00    +0.000 N 
ATOM     15  H   UNL     1       5.241   3.513  14.371  0.00  0.00    +0.000 HD
BRANCH  14  16
ATOM     16  C   UNL     1       6.007   3.664  12.408  0.00  0.00    +0.000 C 
ATOM     17  C   UNL     1       5.840   2.273  11.859  0.00  0.00    +0.000 C 
ATOM     18  C   UNL     1       4.751   3.287  11.672  0.00  0.00    +0.000 C 
ENDBRANCH  14  16
ENDBRANCH  11  13
ENDBRANCH  10  11
ENDBRANCH   1  10
BRANCH   9  19
ATOM     19  C   UNL     1       3.026   6.825  18.327  0.00  0.00    +0.000 C 
BRANCH  19  20
ATOM     20  C   UNL     1       2.467   7.172  19.705  0.00  0.00    +0.000 C 
BRANCH  20  21
ATOM     21  C   UNL     1       1.560   8.376  19.693  0.00  0.00    +0.000 A 
ATOM     22  C   UNL     1       0.905   8.780  20.867  0.00  0.00    +0.000 A 
ATOM     23  C   UNL     1       0.116   9.929  20.878  0.00  0.00    +0.000 A 
ATOM     24  C   UNL     1      -0.020  10.689  19.719  0.00  0.00    +0.000 A 
ATOM     25  C   UNL     1       0.631  10.301  18.549  0.00  0.00    +0.000 A 
ATOM     26  C   UNL     1       1.418   9.148  18.534  0.00  0.00    +0.000 A 
ENDBRANCH  20  21
ENDBRANCH  19  20
ENDBRANCH   9  19
TORSDOF 7
ENDMDL
MODEL 6
REMARK VINA RESULT:      -8.0      1.418      1.650
REMARK  Name = 
REMARK  7 active torsions:
REMARK  status: ('A' for Active; 'I' for Inactive)
REMARK    1  A    between atoms: C_2  and  C_3
REMARK    2  A    between atoms: C_3  and  S_4
REMARK    3  A    between atoms: S_4  and  C_5
REMARK    4  A    between atoms: N_13  and  C_14
REMARK    5  A    between atoms: C_14  and  C_15
REMARK    6  A    between atoms: C_15  and  C_16
REMARK    7  A    between atoms: N_22  and  C_23
REMARK                            x       y       z     vdW  Elec       q    Type
REMARK                         _______ _______ _______ _____ _____    ______ ____
ROOT
ATOM      1  C   UNL     1       5.321   4.800  19.057  0.00  0.00    +0.000 A 
ATOM      2  N   UNL     1       5.126   3.539  19.358  0.00  0.00    +0.000 NA
ATOM      3  C   UNL     1       3.794   3.323  19.132  0.00  0.00    +0.000 A 
ATOM      4  C   UNL     1       3.060   2.138  19.295  0.00  0.00    +0.000 A 
ATOM      5  C   UNL     1       1.716   2.109  18.912  0.00  0.00    +0.000 A 
ATOM      6  C   UNL     1       1.117   3.238  18.367  0.00  0.00    +0.000 A 
ATOM      7  C   UNL     1       1.831   4.431  18.209  0.00  0.00    +0.000 A 
ATOM      8  C   UNL     1       3.172   4.467  18.619  0.00  0.00    +0.000 A 
ATOM      9  N   UNL     1       4.168   5.431  18.634  0.00  0.00    +0.000 N 
ENDROOT
BRANCH   1  10
ATOM     10  S   UNL     1       6.891   5.534  19.005  0.00  0.00    +0.000 S 
BRANCH  10  11
ATOM     11  C   UNL     1       7.595   4.664  17.577  0.00  0.00    +0.000 C 
BRANCH  11  13
ATOM     12  O   UNL     1       6.835   6.391  16.071  0.00  0.00    +0.000 OA
ATOM     13  C   UNL     1       7.006   5.189  16.278  0.00  0.00    +0.000 C 
ATOM     14  N   UNL     1       6.674   4.203  15.367  0.00  0.00    +0.000 N 
ATOM     15  H   UNL     1       6.677   3.236  15.687  0.00  0.00    +0.000 HD
BRANCH  14  16
ATOM     16  C   UNL     1       6.121   4.494  14.084  0.00  0.00    +0.000 C 
ATOM     17  C   UNL     1       6.976   4.418  12.848  0.00  0.00    +0.000 C 
ATOM     18  C   UNL     1       5.883   3.415  13.066  0.00  0.00    +0.000 C 
ENDBRANCH  14  16
ENDBRANCH  11  13
ENDBRANCH  10  11
ENDBRANCH   1  10
BRANCH   9  19
ATOM     19  C   UNL     1       4.110   6.805  18.155  0.00  0.00    +0.000 C 
BRANCH  19  20
ATOM     20  C   UNL     1       2.746   7.332  17.714  0.00  0.00    +0.000 C 
BRANCH  20  21
ATOM     21  C   UNL     1       2.060   8.163  18.768  0.00  0.00    +0.000 A 
ATOM     22  C   UNL     1       1.504   9.408  18.436  0.00  0.00    +0.000 A 
ATOM     23  C   UNL     1       0.813  10.153  19.391  0.00  0.00    +0.000 A 
ATOM     24  C   UNL     1       0.664   9.657  20.683  0.00  0.00    +0.000 A 
ATOM     25  C   UNL     1       1.207   8.419  21.023  0.00  0.00    +0.000 A 
ATOM     26  C   UNL     1       1.904   7.673  20.071  0.00  0.00    +0.000 A 
ENDBRANCH  20  21
ENDBRANCH  19  20
ENDBRANCH   9  19
TORSDOF 7
ENDMDL
MODEL 7
REMARK VINA RESULT:      -8.0      1.262      1.341
REMARK  Name = 
REMARK  7 active torsions:
REMARK  status: ('A' for Active; 'I' for Inactive)
REMARK    1  A    between atoms: C_2  and  C_3
REMARK    2  A    between atoms: C_3  and  S_4
REMARK    3  A    between atoms: S_4  and  C_5
REMARK    4  A    between atoms: N_13  and  C_14
REMARK    5  A    between atoms: C_14  and  C_15
REMARK    6  A    between atoms: C_15  and  C_16
REMARK    7  A    between atoms: N_22  and  C_23
REMARK                            x       y       z     vdW  Elec       q    Type
REMARK                         _______ _______ _______ _____ _____    ______ ____
ROOT
ATOM      1  C   UNL     1       4.516   5.115  18.231  0.00  0.00    +0.000 A 
ATOM      2  N   UNL     1       4.888   4.067  18.924  0.00  0.00    +0.000 NA
ATOM      3  C   UNL     1       3.803   3.747  19.693  0.00  0.00    +0.000 A 
ATOM      4  C   UNL     1       3.664   2.700  20.618  0.00  0.00    +0.000 A 
ATOM      5  C   UNL     1       2.425   2.492  21.231  0.00  0.00    +0.000 A 
ATOM      6  C   UNL     1       1.342   3.304  20.920  0.00  0.00    +0.000 A 
ATOM      7  C   UNL     1       1.466   4.358  20.008  0.00  0.00    +0.000 A 
ATOM      8  C   UNL     1       2.717   4.584  19.415  0.00  0.00    +0.000 A 
ATOM      9  N   UNL     1       3.220   5.503  18.506  0.00  0.00    +0.000 N 
ENDROOT
BRANCH   1  10
ATOM     10  S   UNL     1       5.477   5.810  16.966  0.00  0.00    +0.000 S 
BRANCH  10  11
ATOM     11  C   UNL     1       6.184   4.301  16.246  0.00  0.00    +0.000 C 
BRANCH  11  13
ATOM     12  O   UNL     1       7.031   5.451  14.300  0.00  0.00    +0.000 OA
ATOM     13  C   UNL     1       6.432   4.476  14.757  0.00  0.00    +0.000 C 
ATOM     14  N   UNL     1       5.921   3.458  13.974  0.00  0.00    +0.000 N 
ATOM     15  H   UNL     1       5.287   2.791  14.411  0.00  0.00    +0.000 HD
BRANCH  14  16
ATOM     16  C   UNL     1       6.064   3.433  12.554  0.00  0.00    +0.000 C 
ATOM     17  C   UNL     1       5.789   2.171  11.781  0.00  0.00    +0.000 C 
ATOM     18  C   UNL     1       4.870   3.349  11.644  0.00  0.00    +0.000 C 
ENDBRANCH  14  16
ENDBRANCH  11  13
ENDBRANCH  10  11
ENDBRANCH   1  10
BRANCH   9  19
ATOM     19  C   UNL     1       2.520   6.580  17.820  0.00  0.00    +0.000 C 
BRANCH  19  20
ATOM     20  C   UNL     1       2.879   8.009  18.222  0.00  0.00    +0.000 C 
BRANCH  20  21
ATOM     21  C   UNL     1       1.723   8.765  18.827  0.00  0.00    +0.000 A 
ATOM     22  C   UNL     1       0.931   9.604  18.029  0.00  0.00    +0.000 A 
ATOM     23  C   UNL     1      -0.177  10.255  18.568  0.00  0.00    +0.000 A 
ATOM     24  C   UNL     1      -0.509  10.068  19.907  0.00  0.00    +0.000 A 
ATOM     25  C   UNL     1       0.268   9.232  20.708  0.00  0.00    +0.000 A 
ATOM     26  C   UNL     1       1.381   8.582  20.173  0.00  0.00    +0.000 A 
ENDBRANCH  20  21
ENDBRANCH  19  20
ENDBRANCH   9  19
TORSDOF 7
ENDMDL
MODEL 8
REMARK VINA RESULT:      -7.9      0.994      1.203
REMARK  Name = 
REMARK  7 active torsions:
REMARK  status: ('A' for Active; 'I' for Inactive)
REMARK    1  A    between atoms: C_2  and  C_3
REMARK    2  A    between atoms: C_3  and  S_4
REMARK    3  A    between atoms: S_4  and  C_5
REMARK    4  A    between atoms: N_13  and  C_14
REMARK    5  A    between atoms: C_14  and  C_15
REMARK    6  A    between atoms: C_15  and  C_16
REMARK    7  A    between atoms: N_22  and  C_23
REMARK                            x       y       z     vdW  Elec       q    Type
REMARK                         _______ _______ _______ _____ _____    ______ ____
ROOT
ATOM      1  C   UNL     1       4.604   5.015  18.252  0.00  0.00    +0.000 A 
ATOM      2  N   UNL     1       4.571   3.736  17.970  0.00  0.00    +0.000 NA
ATOM      3  C   UNL     1       3.380   3.291  18.475  0.00  0.00    +0.000 A 
ATOM      4  C   UNL     1       2.845   1.994  18.441  0.00  0.00    +0.000 A 
ATOM      5  C   UNL     1       1.556   1.774  18.935  0.00  0.00    +0.000 A 
ATOM      6  C   UNL     1       0.809   2.830  19.444  0.00  0.00    +0.000 A 
ATOM      7  C   UNL     1       1.332   4.127  19.495  0.00  0.00    +0.000 A 
ATOM      8  C   UNL     1       2.636   4.341  19.024  0.00  0.00    +0.000 A 
ATOM      9  N   UNL     1       3.474   5.441  18.923  0.00  0.00    +0.000 N 
ENDROOT
BRANCH   1  10
ATOM     10  S   UNL     1       5.836   6.088  17.670  0.00  0.00    +0.000 S 
BRANCH  10  11
ATOM     11  C   UNL     1       5.364   6.184  15.921  0.00  0.00    +0.000 C 
BRANCH  11  13
ATOM     12  O   UNL     1       7.482   5.334  15.134  0.00  0.00    +0.000 OA
ATOM     13  C   UNL     1       6.253   5.292  15.071  0.00  0.00    +0.000 C 
ATOM     14  N   UNL     1       5.562   4.445  14.224  0.00  0.00    +0.000 N 
ATOM     15  H   UNL     1       4.562   4.603  14.102  0.00  0.00    +0.000 HD
BRANCH  14  16
ATOM     16  C   UNL     1       6.216   3.521  13.356  0.00  0.00    +0.000 C 
ATOM     17  C   UNL     1       5.599   3.142  12.037  0.00  0.00    +0.000 C 
ATOM     18  C   UNL     1       6.853   3.964  12.069  0.00  0.00    +0.000 C 
ENDBRANCH  14  16
ENDBRANCH  11  13
ENDBRANCH  10  11
ENDBRANCH   1  10
BRANCH   9  19
ATOM     19  C   UNL     1       3.205   6.826  19.283  0.00  0.00    +0.000 C 
BRANCH  19  20
ATOM     20  C   UNL     1       2.486   7.687  18.247  0.00  0.00    +0.000 C 
BRANCH  20  21
ATOM     21  C   UNL     1       1.537   8.687  18.859  0.00  0.00    +0.000 A 
ATOM     22  C   UNL     1       0.839   9.591  18.043  0.00  0.00    +0.000 A 
ATOM     23  C   UNL     1      -0.087  10.474  18.595  0.00  0.00    +0.000 A 
ATOM     24  C   UNL     1      -0.330  10.458  19.966  0.00  0.00    +0.000 A 
ATOM     25  C   UNL     1       0.354   9.560  20.785  0.00  0.00    +0.000 A 
ATOM     26  C   UNL     1       1.285   8.678  20.236  0.00  0.00    +0.000 A 
ENDBRANCH  20  21
ENDBRANCH  19  20
ENDBRANCH   9  19
TORSDOF 7
ENDMDL
MODEL 9
REMARK VINA RESULT:      -7.9      1.415      4.105
REMARK  Name = 
REMARK  7 active torsions:
REMARK  status: ('A' for Active; 'I' for Inactive)
REMARK    1  A    between atoms: C_2  and  C_3
REMARK    2  A    between atoms: C_3  and  S_4
REMARK    3  A    between atoms: S_4  and  C_5
REMARK    4  A    between atoms: N_13  and  C_14
REMARK    5  A    between atoms: C_14  and  C_15
REMARK    6  A    between atoms: C_15  and  C_16
REMARK    7  A    between atoms: N_22  and  C_23
REMARK                            x       y       z     vdW  Elec       q    Type
REMARK                         _______ _______ _______ _____ _____    ______ ____
ROOT
ATOM      1  C   UNL     1       5.384   6.031  17.394  0.00  0.00    +0.000 A 
ATOM      2  N   UNL     1       4.776   7.075  16.885  0.00  0.00    +0.000 NA
ATOM      3  C   UNL     1       3.710   7.302  17.712  0.00  0.00    +0.000 A 
ATOM      4  C   UNL     1       2.732   8.305  17.624  0.00  0.00    +0.000 A 
ATOM      5  C   UNL     1       1.777   8.418  18.637  0.00  0.00    +0.000 A 
ATOM      6  C   UNL     1       1.801   7.553  19.724  0.00  0.00    +0.000 A 
ATOM      7  C   UNL     1       2.761   6.540  19.822  0.00  0.00    +0.000 A 
ATOM      8  C   UNL     1       3.703   6.410  18.791  0.00  0.00    +0.000 A 
ATOM      9  N   UNL     1       4.764   5.556  18.533  0.00  0.00    +0.000 N 
ENDROOT
BRANCH   1  10
ATOM     10  S   UNL     1       6.908   5.439  16.813  0.00  0.00    +0.000 S 
BRANCH  10  11
ATOM     11  C   UNL     1       6.352   3.946  15.945  0.00  0.00    +0.000 C 
BRANCH  11  13
ATOM     12  O   UNL     1       5.535   5.346  14.156  0.00  0.00    +0.000 OA
ATOM     13  C   UNL     1       6.001   4.259  14.500  0.00  0.00    +0.000 C 
ATOM     14  N   UNL     1       6.242   3.220  13.620  0.00  0.00    +0.000 N 
ATOM     15  H   UNL     1       6.452   2.303  14.010  0.00  0.00    +0.000 HD
BRANCH  14  16
ATOM     16  C   UNL     1       5.991   3.323  12.219  0.00  0.00    +0.000 C 
ATOM     17  C   UNL     1       5.578   2.113  11.425  0.00  0.00    +0.000 C 
ATOM     18  C   UNL     1       4.600   3.226  11.658  0.00  0.00    +0.000 C 
ENDBRANCH  14  16
ENDBRANCH  11  13
ENDBRANCH  10  11
ENDBRANCH   1  10
BRANCH   9  19
ATOM     19  C   UNL     1       5.271   4.463  19.351  0.00  0.00    +0.000 C 
BRANCH  19  20
ATOM     20  C   UNL     1       4.648   3.086  19.135  0.00  0.00    +0.000 C 
BRANCH  20  21
ATOM     21  C   UNL     1       3.179   3.037  19.474  0.00  0.00    +0.000 A 
ATOM     22  C   UNL     1       2.221   2.926  18.455  0.00  0.00    +0.000 A 
ATOM     23  C   UNL     1       0.867   2.816  18.765  0.00  0.00    +0.000 A 
ATOM     24  C   UNL     1       0.458   2.809  20.096  0.00  0.00    +0.000 A 
ATOM     25  C   UNL     1       1.401   2.913  21.117  0.00  0.00    +0.000 A 
ATOM     26  C   UNL     1       2.758   3.028  20.809  0.00  0.00    +0.000 A 
ENDBRANCH  20  21
ENDBRANCH  19  20
ENDBRANCH   9  19
TORSDOF 7
ENDMDL
