MODEL 1
REMARK VINA RESULT:      -7.4      0.000      0.000
REMARK  Name = 
REMARK  5 active torsions:
REMARK  status: ('A' for Active; 'I' for Inactive)
REMARK    1  A    between atoms: C_1  and  C_2
REMARK    2  A    between atoms: C_4  and  O_5
REMARK    3  A    between atoms: C_10  and  C_11
REMARK    4  A    between atoms: C_10  and  C_12
REMARK    5  A    between atoms: C_13  and  C_14
REMARK                            x       y       z     vdW  Elec       q    Type
REMARK                         _______ _______ _______ _____ _____    ______ ____
ROOT
ATOM      1  C   UNL     1       1.746   7.509  20.944  0.00  0.00    +0.000 C 
ATOM      2  C   UNL     1       2.048   6.401  19.995  0.00  0.00    +0.000 C 
ATOM      3  C   UNL     1       2.071   6.726  18.675  0.00  0.00    +0.000 C 
ATOM      4  C   UNL     1       2.924   5.951  17.678  0.00  0.00    +0.000 C 
ATOM      5  O   UNL     1       1.864   4.932  17.935  0.00  0.00    +0.000 OA
ATOM      6  C   UNL     1       2.336   4.126  19.034  0.00  0.00    +0.000 C 
ATOM      7  C   UNL     1       3.506   3.540  18.278  0.00  0.00    +0.000 C 
ATOM      8  C   UNL     1       3.882   4.772  17.439  0.00  0.00    +0.000 C 
ATOM      9  C   UNL     1       4.922   4.872  16.564  0.00  0.00    +0.000 C 
ATOM     10  C   UNL     1       5.707   3.724  16.012  0.00  0.00    +0.000 C 
ATOM     11  C   UNL     1       5.450   6.217  16.085  0.00  0.00    +0.000 C 
ATOM     12  C   UNL     1       1.151   3.318  19.569  0.00  0.00    +0.000 C 
ATOM     13  C   UNL     1       0.589   2.211  18.704  0.00  0.00    +0.000 C 
ATOM     14  C   UNL     1       1.597   2.918  20.959  0.00  0.00    +0.000 C 
ATOM     15  C   UNL     1       2.364   4.124  21.493  0.00  0.00    +0.000 C 
ATOM     16  C   UNL     1       2.699   5.029  20.286  0.00  0.00    +0.000 C 
ENDROOT
BRANCH   4  17
ATOM     17  O   UNL     1       4.066   6.461  18.503  0.00  0.00    +0.000 OA
ATOM     18  H   UNL     1       4.676   6.950  17.924  0.00  0.00    +0.000 HD
ENDBRANCH   4  17
TORSDOF 1
ENDMDL
MODEL 2
REMARK VINA RESULT:      -7.4      1.635      4.435
REMARK  Name = 
REMARK  5 active torsions:
REMARK  status: ('A' for Active; 'I' for Inactive)
REMARK    1  A    between atoms: C_1  and  C_2
REMARK    2  A    between atoms: C_4  and  O_5
REMARK    3  A    between atoms: C_10  and  C_11
REMARK    4  A    between atoms: C_10  and  C_12
REMARK    5  A    between atoms: C_13  and  C_14
REMARK                            x       y       z     vdW  Elec       q    Type
REMARK                         _______ _______ _______ _____ _____    ______ ____
ROOT
ATOM      1  C   UNL     1       2.408   8.328  17.806  0.00  0.00    +0.000 C 
ATOM      2  C   UNL     1       3.189   7.105  18.141  0.00  0.00    +0.000 C 
ATOM      3  C   UNL     1       2.819   6.442  19.269  0.00  0.00    +0.000 C 
ATOM      4  C   UNL     1       3.045   4.943  19.424  0.00  0.00    +0.000 C 
ATOM      5  O   UNL     1       4.455   5.416  19.547  0.00  0.00    +0.000 OA
ATOM      6  C   UNL     1       5.003   5.407  18.213  0.00  0.00    +0.000 C 
ATOM      7  C   UNL     1       4.927   3.907  18.047  0.00  0.00    +0.000 C 
ATOM      8  C   UNL     1       3.619   3.653  18.814  0.00  0.00    +0.000 C 
ATOM      9  C   UNL     1       2.994   2.455  18.978  0.00  0.00    +0.000 C 
ATOM     10  C   UNL     1       3.604   1.113  18.722  0.00  0.00    +0.000 C 
ATOM     11  C   UNL     1       1.534   2.354  19.400  0.00  0.00    +0.000 C 
ATOM     12  C   UNL     1       6.302   6.217  18.232  0.00  0.00    +0.000 C 
ATOM     13  C   UNL     1       7.494   5.646  18.968  0.00  0.00    +0.000 C 
ATOM     14  C   UNL     1       6.521   6.565  16.775  0.00  0.00    +0.000 C 
ATOM     15  C   UNL     1       5.127   6.840  16.218  0.00  0.00    +0.000 C 
ATOM     16  C   UNL     1       4.106   6.263  17.225  0.00  0.00    +0.000 C 
ENDROOT
BRANCH   4  17
ATOM     17  O   UNL     1       2.104   4.845  18.262  0.00  0.00    +0.000 OA
ATOM     18  H   UNL     1       2.186   5.651  17.725  0.00  0.00    +0.000 HD
ENDBRANCH   4  17
TORSDOF 1
ENDMDL
MODEL 3
REMARK VINA RESULT:      -7.2      2.404      4.003
REMARK  Name = 
REMARK  5 active torsions:
REMARK  status: ('A' for Active; 'I' for Inactive)
REMARK    1  A    between atoms: C_1  and  C_2
REMARK    2  A    between atoms: C_4  and  O_5
REMARK    3  A    between atoms: C_10  and  C_11
REMARK    4  A    between atoms: C_10  and  C_12
REMARK    5  A    between atoms: C_13  and  C_14
REMARK                            x       y       z     vdW  Elec       q    Type
REMARK                         _______ _______ _______ _____ _____    ______ ____
ROOT
ATOM      1  C   UNL     1       8.053   5.758  19.523  0.00  0.00    +0.000 C 
ATOM      2  C   UNL     1       6.997   5.589  18.486  0.00  0.00    +0.000 C 
ATOM      3  C   UNL     1       7.129   6.340  17.360  0.00  0.00    +0.000 C 
ATOM      4  C   UNL     1       6.564   5.878  16.022  0.00  0.00    +0.000 C 
ATOM      5  O   UNL     1       5.290   6.222  16.720  0.00  0.00    +0.000 OA
ATOM      6  C   UNL     1       4.849   5.014  17.374  0.00  0.00    +0.000 C 
ATOM      7  C   UNL     1       4.599   4.252  16.094  0.00  0.00    +0.000 C 
ATOM      8  C   UNL     1       5.761   4.814  15.257  0.00  0.00    +0.000 C 
ATOM      9  C   UNL     1       6.090   4.460  13.984  0.00  0.00    +0.000 C 
ATOM     10  C   UNL     1       5.215   3.698  13.040  0.00  0.00    +0.000 C 
ATOM     11  C   UNL     1       7.457   4.765  13.386  0.00  0.00    +0.000 C 
ATOM     12  C   UNL     1       3.765   5.396  18.386  0.00  0.00    +0.000 C 
ATOM     13  C   UNL     1       2.427   5.869  17.861  0.00  0.00    +0.000 C 
ATOM     14  C   UNL     1       3.732   4.212  19.329  0.00  0.00    +0.000 C 
ATOM     15  C   UNL     1       5.188   3.777  19.472  0.00  0.00    +0.000 C 
ATOM     16  C   UNL     1       5.981   4.435  18.320  0.00  0.00    +0.000 C 
ENDROOT
BRANCH   4  17
ATOM     17  O   UNL     1       7.539   4.752  16.182  0.00  0.00    +0.000 OA
ATOM     18  H   UNL     1       7.047   3.913  16.198  0.00  0.00    +0.000 HD
ENDBRANCH   4  17
TORSDOF 1
ENDMDL
MODEL 4
REMARK VINA RESULT:      -6.6      1.933      4.960
REMARK  Name = 
REMARK  5 active torsions:
REMARK  status: ('A' for Active; 'I' for Inactive)
REMARK    1  A    between atoms: C_1  and  C_2
REMARK    2  A    between atoms: C_4  and  O_5
REMARK    3  A    between atoms: C_10  and  C_11
REMARK    4  A    between atoms: C_10  and  C_12
REMARK    5  A    between atoms: C_13  and  C_14
REMARK                            x       y       z     vdW  Elec       q    Type
REMARK                         _______ _______ _______ _____ _____    ______ ____
ROOT
ATOM      1  C   UNL     1       4.662   6.867  15.309  0.00  0.00    +0.000 C 
ATOM      2  C   UNL     1       4.806   6.237  16.650  0.00  0.00    +0.000 C 
ATOM      3  C   UNL     1       3.972   6.691  17.624  0.00  0.00    +0.000 C 
ATOM      4  C   UNL     1       3.550   5.804  18.789  0.00  0.00    +0.000 C 
ATOM      5  O   UNL     1       4.970   6.054  19.175  0.00  0.00    +0.000 OA
ATOM      6  C   UNL     1       5.742   4.987  18.585  0.00  0.00    +0.000 C 
ATOM      7  C   UNL     1       5.119   3.893  19.419  0.00  0.00    +0.000 C 
ATOM      8  C   UNL     1       3.685   4.443  19.493  0.00  0.00    +0.000 C 
ATOM      9  C   UNL     1       2.618   3.852  20.099  0.00  0.00    +0.000 C 
ATOM     10  C   UNL     1       2.690   2.719  21.074  0.00  0.00    +0.000 C 
ATOM     11  C   UNL     1       1.184   4.261  19.793  0.00  0.00    +0.000 C 
ATOM     12  C   UNL     1       7.218   5.390  18.638  0.00  0.00    +0.000 C 
ATOM     13  C   UNL     1       7.900   5.441  19.988  0.00  0.00    +0.000 C 
ATOM     14  C   UNL     1       7.863   4.500  17.597  0.00  0.00    +0.000 C 
ATOM     15  C   UNL     1       6.846   4.411  16.464  0.00  0.00    +0.000 C 
ATOM     16  C   UNL     1       5.490   4.901  17.022  0.00  0.00    +0.000 C 
ENDROOT
BRANCH   4  17
ATOM     17  O   UNL     1       2.919   4.970  17.717  0.00  0.00    +0.000 OA
ATOM     18  H   UNL     1       3.607   4.702  17.084  0.00  0.00    +0.000 HD
ENDBRANCH   4  17
TORSDOF 1
ENDMDL
MODEL 5
REMARK VINA RESULT:      -6.5      1.671      2.008
REMARK  Name = 
REMARK  5 active torsions:
REMARK  status: ('A' for Active; 'I' for Inactive)
REMARK    1  A    between atoms: C_1  and  C_2
REMARK    2  A    between atoms: C_4  and  O_5
REMARK    3  A    between atoms: C_10  and  C_11
REMARK    4  A    between atoms: C_10  and  C_12
REMARK    5  A    between atoms: C_13  and  C_14
REMARK                            x       y       z     vdW  Elec       q    Type
REMARK                         _______ _______ _______ _____ _____    ______ ____
ROOT
ATOM      1  C   UNL     1       1.654   8.683  18.488  0.00  0.00    +0.000 C 
ATOM      2  C   UNL     1       2.462   7.443  18.317  0.00  0.00    +0.000 C 
ATOM      3  C   UNL     1       3.226   7.370  17.194  0.00  0.00    +0.000 C 
ATOM      4  C   UNL     1       4.508   6.548  17.154  0.00  0.00    +0.000 C 
ATOM      5  O   UNL     1       3.509   5.440  17.167  0.00  0.00    +0.000 OA
ATOM      6  C   UNL     1       3.289   5.110  18.554  0.00  0.00    +0.000 C 
ATOM      7  C   UNL     1       4.691   4.604  18.797  0.00  0.00    +0.000 C 
ATOM      8  C   UNL     1       5.455   5.593  17.900  0.00  0.00    +0.000 C 
ATOM      9  C   UNL     1       6.805   5.663  17.735  0.00  0.00    +0.000 C 
ATOM     10  C   UNL     1       7.786   4.608  18.137  0.00  0.00    +0.000 C 
ATOM     11  C   UNL     1       7.486   6.894  17.153  0.00  0.00    +0.000 C 
ATOM     12  C   UNL     1       2.025   4.250  18.639  0.00  0.00    +0.000 C 
ATOM     13  C   UNL     1       2.074   2.845  18.080  0.00  0.00    +0.000 C 
ATOM     14  C   UNL     1       1.609   4.378  20.089  0.00  0.00    +0.000 C 
ATOM     15  C   UNL     1       1.914   5.826  20.464  0.00  0.00    +0.000 C 
ATOM     16  C   UNL     1       2.858   6.393  19.381  0.00  0.00    +0.000 C 
ENDROOT
BRANCH   4  17
ATOM     17  O   UNL     1       4.969   7.514  18.203  0.00  0.00    +0.000 OA
ATOM     18  H   UNL     1       4.308   8.223  18.286  0.00  0.00    +0.000 HD
ENDBRANCH   4  17
TORSDOF 1
ENDMDL
MODEL 6
REMARK VINA RESULT:      -6.4      1.775      4.591
REMARK  Name = 
REMARK  5 active torsions:
REMARK  status: ('A' for Active; 'I' for Inactive)
REMARK    1  A    between atoms: C_1  and  C_2
REMARK    2  A    between atoms: C_4  and  O_5
REMARK    3  A    between atoms: C_10  and  C_11
REMARK    4  A    between atoms: C_10  and  C_12
REMARK    5  A    between atoms: C_13  and  C_14
REMARK                            x       y       z     vdW  Elec       q    Type
REMARK                         _______ _______ _______ _____ _____    ______ ____
ROOT
ATOM      1  C   UNL     1       4.815   2.547  20.102  0.00  0.00    +0.000 C 
ATOM      2  C   UNL     1       4.546   3.645  19.132  0.00  0.00    +0.000 C 
ATOM      3  C   UNL     1       3.239   3.943  18.904  0.00  0.00    +0.000 C 
ATOM      4  C   UNL     1       2.802   5.340  18.481  0.00  0.00    +0.000 C 
ATOM      5  O   UNL     1       3.453   4.895  17.214  0.00  0.00    +0.000 OA
ATOM      6  C   UNL     1       4.834   5.305  17.303  0.00  0.00    +0.000 C 
ATOM      7  C   UNL     1       4.535   6.786  17.290  0.00  0.00    +0.000 C 
ATOM      8  C   UNL     1       3.228   6.768  18.101  0.00  0.00    +0.000 C 
ATOM      9  C   UNL     1       2.485   7.849  18.467  0.00  0.00    +0.000 C 
ATOM     10  C   UNL     1       2.612   9.225  17.894  0.00  0.00    +0.000 C 
ATOM     11  C   UNL     1       1.446   7.779  19.578  0.00  0.00    +0.000 C 
ATOM     12  C   UNL     1       5.616   4.564  16.216  0.00  0.00    +0.000 C 
ATOM     13  C   UNL     1       5.365   4.936  14.771  0.00  0.00    +0.000 C 
ATOM     14  C   UNL     1       7.051   4.658  16.690  0.00  0.00    +0.000 C 
ATOM     15  C   UNL     1       6.979   4.513  18.208  0.00  0.00    +0.000 C 
ATOM     16  C   UNL     1       5.509   4.743  18.623  0.00  0.00    +0.000 C 
ENDROOT
BRANCH   4  17
ATOM     17  O   UNL     1       3.346   5.740  19.818  0.00  0.00    +0.000 OA
ATOM     18  H   UNL     1       3.390   4.952  20.386  0.00  0.00    +0.000 HD
ENDBRANCH   4  17
TORSDOF 1
ENDMDL
MODEL 7
REMARK VINA RESULT:      -6.4      1.634      3.241
REMARK  Name = 
REMARK  5 active torsions:
REMARK  status: ('A' for Active; 'I' for Inactive)
REMARK    1  A    between atoms: C_1  and  C_2
REMARK    2  A    between atoms: C_4  and  O_5
REMARK    3  A    between atoms: C_10  and  C_11
REMARK    4  A    between atoms: C_10  and  C_12
REMARK    5  A    between atoms: C_13  and  C_14
REMARK                            x       y       z     vdW  Elec       q    Type
REMARK                         _______ _______ _______ _____ _____    ______ ____
ROOT
ATOM      1  C   UNL     1       4.681   1.445  20.340  0.00  0.00    +0.000 C 
ATOM      2  C   UNL     1       4.373   2.799  19.801  0.00  0.00    +0.000 C 
ATOM      3  C   UNL     1       5.421   3.659  19.693  0.00  0.00    +0.000 C 
ATOM      4  C   UNL     1       5.436   4.771  18.650  0.00  0.00    +0.000 C 
ATOM      5  O   UNL     1       4.413   5.326  19.584  0.00  0.00    +0.000 OA
ATOM      6  C   UNL     1       3.136   4.845  19.117  0.00  0.00    +0.000 C 
ATOM      7  C   UNL     1       3.175   5.604  17.811  0.00  0.00    +0.000 C 
ATOM      8  C   UNL     1       4.682   5.496  17.524  0.00  0.00    +0.000 C 
ATOM      9  C   UNL     1       5.335   5.971  16.427  0.00  0.00    +0.000 C 
ATOM     10  C   UNL     1       4.784   6.955  15.445  0.00  0.00    +0.000 C 
ATOM     11  C   UNL     1       6.726   5.487  16.040  0.00  0.00    +0.000 C 
ATOM     12  C   UNL     1       2.110   5.076  20.229  0.00  0.00    +0.000 C 
ATOM     13  C   UNL     1       1.709   6.499  20.551  0.00  0.00    +0.000 C 
ATOM     14  C   UNL     1       0.984   4.130  19.872  0.00  0.00    +0.000 C 
ATOM     15  C   UNL     1       1.671   2.880  19.329  0.00  0.00    +0.000 C 
ATOM     16  C   UNL     1       3.133   3.263  19.003  0.00  0.00    +0.000 C 
ENDROOT
BRANCH   4  17
ATOM     17  O   UNL     1       5.412   3.635  17.674  0.00  0.00    +0.000 OA
ATOM     18  H   UNL     1       6.096   3.787  17.000  0.00  0.00    +0.000 HD
ENDBRANCH   4  17
TORSDOF 1
ENDMDL
MODEL 8
REMARK VINA RESULT:      -6.2      1.337      4.072
REMARK  Name = 
REMARK  5 active torsions:
REMARK  status: ('A' for Active; 'I' for Inactive)
REMARK    1  A    between atoms: C_1  and  C_2
REMARK    2  A    between atoms: C_4  and  O_5
REMARK    3  A    between atoms: C_10  and  C_11
REMARK    4  A    between atoms: C_10  and  C_12
REMARK    5  A    between atoms: C_13  and  C_14
REMARK                            x       y       z     vdW  Elec       q    Type
REMARK                         _______ _______ _______ _____ _____    ______ ____
ROOT
ATOM      1  C   UNL     1       4.255   4.387  16.437  0.00  0.00    +0.000 C 
ATOM      2  C   UNL     1       3.598   4.646  17.748  0.00  0.00    +0.000 C 
ATOM      3  C   UNL     1       4.094   5.680  18.479  0.00  0.00    +0.000 C 
ATOM      4  C   UNL     1       3.223   6.453  19.462  0.00  0.00    +0.000 C 
ATOM      5  O   UNL     1       3.369   5.175  20.218  0.00  0.00    +0.000 OA
ATOM      6  C   UNL     1       2.260   4.341  19.822  0.00  0.00    +0.000 C 
ATOM      7  C   UNL     1       1.200   5.232  20.425  0.00  0.00    +0.000 C 
ATOM      8  C   UNL     1       1.846   6.596  20.133  0.00  0.00    +0.000 C 
ATOM      9  C   UNL     1       1.321   7.821  20.414  0.00  0.00    +0.000 C 
ATOM     10  C   UNL     1       0.173   8.083  21.336  0.00  0.00    +0.000 C 
ATOM     11  C   UNL     1       1.832   9.093  19.750  0.00  0.00    +0.000 C 
ATOM     12  C   UNL     1       2.559   2.911  20.278  0.00  0.00    +0.000 C 
ATOM     13  C   UNL     1       2.545   2.613  21.761  0.00  0.00    +0.000 C 
ATOM     14  C   UNL     1       1.642   2.068  19.418  0.00  0.00    +0.000 C 
ATOM     15  C   UNL     1       1.639   2.749  18.053  0.00  0.00    +0.000 C 
ATOM     16  C   UNL     1       2.213   4.171  18.246  0.00  0.00    +0.000 C 
ENDROOT
BRANCH   4  17
ATOM     17  O   UNL     1       2.449   6.825  18.234  0.00  0.00    +0.000 OA
ATOM     18  H   UNL     1       1.523   6.984  18.485  0.00  0.00    +0.000 HD
ENDBRANCH   4  17
TORSDOF 1
ENDMDL
MODEL 9
REMARK VINA RESULT:      -6.2      1.566      5.004
REMARK  Name = 
REMARK  5 active torsions:
REMARK  status: ('A' for Active; 'I' for Inactive)
REMARK    1  A    between atoms: C_1  and  C_2
REMARK    2  A    between atoms: C_4  and  O_5
REMARK    3  A    between atoms: C_10  and  C_11
REMARK    4  A    between atoms: C_10  and  C_12
REMARK    5  A    between atoms: C_13  and  C_14
REMARK                            x       y       z     vdW  Elec       q    Type
REMARK                         _______ _______ _______ _____ _____    ______ ____
ROOT
ATOM      1  C   UNL     1       5.954   3.626  15.315  0.00  0.00    +0.000 C 
ATOM      2  C   UNL     1       5.050   4.178  16.362  0.00  0.00    +0.000 C 
ATOM      3  C   UNL     1       3.830   3.589  16.479  0.00  0.00    +0.000 C 
ATOM      4  C   UNL     1       3.074   3.576  17.802  0.00  0.00    +0.000 C 
ATOM      5  O   UNL     1       2.915   5.016  17.445  0.00  0.00    +0.000 OA
ATOM      6  C   UNL     1       4.034   5.706  18.039  0.00  0.00    +0.000 C 
ATOM      7  C   UNL     1       3.617   5.433  19.466  0.00  0.00    +0.000 C 
ATOM      8  C   UNL     1       3.036   4.022  19.273  0.00  0.00    +0.000 C 
ATOM      9  C   UNL     1       2.526   3.215  20.244  0.00  0.00    +0.000 C 
ATOM     10  C   UNL     1       2.140   3.649  21.622  0.00  0.00    +0.000 C 
ATOM     11  C   UNL     1       2.341   1.717  20.037  0.00  0.00    +0.000 C 
ATOM     12  C   UNL     1       4.118   7.098  17.408  0.00  0.00    +0.000 C 
ATOM     13  C   UNL     1       3.035   8.102  17.736  0.00  0.00    +0.000 C 
ATOM     14  C   UNL     1       5.540   7.531  17.698  0.00  0.00    +0.000 C 
ATOM     15  C   UNL     1       6.379   6.264  17.550  0.00  0.00    +0.000 C 
ATOM     16  C   UNL     1       5.408   5.062  17.580  0.00  0.00    +0.000 C 
ENDROOT
BRANCH   4  17
ATOM     17  O   UNL     1       4.244   2.769  18.278  0.00  0.00    +0.000 OA
ATOM     18  H   UNL     1       4.958   3.377  18.535  0.00  0.00    +0.000 HD
ENDBRANCH   4  17
TORSDOF 1
ENDMDL
