MODEL 1
REMARK VINA RESULT:      -7.2      0.000      0.000
REMARK  Name = 
REMARK  10 active torsions:
REMARK  status: ('A' for Active; 'I' for Inactive)
REMARK    1  A    between atoms: C_1  and  C_2
REMARK    2  A    between atoms: C_2  and  C_3
REMARK    3  A    between atoms: C_2  and  C_4
REMARK    4  A    between atoms: C_6  and  C_7
REMARK    5  A    between atoms: N_9  and  C_10
REMARK    6  A    between atoms: C_10  and  C_11
REMARK    7  A    between atoms: C_11  and  C_12
REMARK    8  A    between atoms: C_12  and  N_13
REMARK    9  A    between atoms: N_13  and  C_14
REMARK   10  A    between atoms: N_13  and  C_15
REMARK                            x       y       z     vdW  Elec       q    Type
REMARK                         _______ _______ _______ _____ _____    ______ ____
ROOT
ATOM      1  C   UNL     1       7.032   5.724  17.163  0.00  0.00    +0.000 A 
ATOM      2  C   UNL     1       6.182   4.987  17.942  0.00  0.00    +0.000 A 
ATOM      3  C   UNL     1       5.389   4.084  17.263  0.00  0.00    +0.000 A 
ATOM      4  N   UNL     1       5.390   3.925  15.917  0.00  0.00    +0.000 NA
ATOM      5  C   UNL     1       6.258   4.681  15.231  0.00  0.00    +0.000 A 
ATOM      6  N   UNL     1       6.319   4.581  13.869  0.00  0.00    +0.000 N 
ATOM      7  C   UNL     1       5.465   3.713  13.089  0.00  0.00    +0.000 C 
ATOM      8  C   UNL     1       6.399   3.178  12.007  0.00  0.00    +0.000 C 
ATOM      9  C   UNL     1       7.380   4.320  11.782  0.00  0.00    +0.000 C 
ATOM     10  C   UNL     1       7.533   4.962  13.164  0.00  0.00    +0.000 C 
ATOM     11  N   UNL     1       7.082   5.563  15.825  0.00  0.00    +0.000 NA
ENDROOT
BRANCH   3  12
ATOM     12  C   UNL     1       4.477   3.203  18.062  0.00  0.00    +0.000 C 
ATOM     13  O   UNL     1       3.483   2.699  17.551  0.00  0.00    +0.000 OA
ATOM     14  N   UNL     1       4.830   3.019  19.380  0.00  0.00    +0.000 N 
ATOM     15  H   UNL     1       5.708   3.425  19.690  0.00  0.00    +0.000 HD
BRANCH  14  16
ATOM     16  C   UNL     1       4.076   2.166  20.277  0.00  0.00    +0.000 C 
BRANCH  16  17
ATOM     17  C   UNL     1       3.153   2.956  21.202  0.00  0.00    +0.000 C 
BRANCH  17  18
ATOM     18  C   UNL     1       1.688   2.497  21.146  0.00  0.00    +0.000 C 
BRANCH  18  19
ATOM     19  N   UNL     1       0.811   3.328  20.301  0.00  0.00    +0.000 NA
ATOM     20  C   UNL     1       1.351   4.676  20.103  0.00  0.00    +0.000 C 
ATOM     21  C   UNL     1       0.617   2.681  19.000  0.00  0.00    +0.000 C 
ENDBRANCH  18  19
ENDBRANCH  17  18
ENDBRANCH  16  17
ENDBRANCH  14  16
ENDBRANCH   3  12
BRANCH   1  23
ATOM     22  C   UNL     1       7.357   8.174  17.583  0.00  0.00    +0.000 C 
ATOM     23  C   UNL     1       7.935   6.772  17.781  0.00  0.00    +0.000 C 
ATOM     24  C   UNL     1       8.160   6.485  19.267  0.00  0.00    +0.000 C 
ENDBRANCH   1  23
TORSDOF 6
ENDMDL
MODEL 2
REMARK VINA RESULT:      -7.1      1.140      1.543
REMARK  Name = 
REMARK  10 active torsions:
REMARK  status: ('A' for Active; 'I' for Inactive)
REMARK    1  A    between atoms: C_1  and  C_2
REMARK    2  A    between atoms: C_2  and  C_3
REMARK    3  A    between atoms: C_2  and  C_4
REMARK    4  A    between atoms: C_6  and  C_7
REMARK    5  A    between atoms: N_9  and  C_10
REMARK    6  A    between atoms: C_10  and  C_11
REMARK    7  A    between atoms: C_11  and  C_12
REMARK    8  A    between atoms: C_12  and  N_13
REMARK    9  A    between atoms: N_13  and  C_14
REMARK   10  A    between atoms: N_13  and  C_15
REMARK                            x       y       z     vdW  Elec       q    Type
REMARK                         _______ _______ _______ _____ _____    ______ ____
ROOT
ATOM      1  C   UNL     1       6.878   5.316  17.418  0.00  0.00    +0.000 A 
ATOM      2  C   UNL     1       5.888   4.709  18.141  0.00  0.00    +0.000 A 
ATOM      3  C   UNL     1       4.974   3.986  17.403  0.00  0.00    +0.000 A 
ATOM      4  N   UNL     1       4.993   3.880  16.052  0.00  0.00    +0.000 NA
ATOM      5  C   UNL     1       6.002   4.498  15.423  0.00  0.00    +0.000 A 
ATOM      6  N   UNL     1       6.091   4.441  14.060  0.00  0.00    +0.000 N 
ATOM      7  C   UNL     1       5.127   3.767  13.220  0.00  0.00    +0.000 C 
ATOM      8  C   UNL     1       5.990   3.118  12.142  0.00  0.00    +0.000 C 
ATOM      9  C   UNL     1       7.162   4.079  11.993  0.00  0.00    +0.000 C 
ATOM     10  C   UNL     1       7.376   4.631  13.405  0.00  0.00    +0.000 C 
ATOM     11  N   UNL     1       6.946   5.200  16.076  0.00  0.00    +0.000 NA
ENDROOT
BRANCH   3  12
ATOM     12  C   UNL     1       3.896   3.248  18.137  0.00  0.00    +0.000 C 
ATOM     13  O   UNL     1       3.089   2.548  17.535  0.00  0.00    +0.000 OA
ATOM     14  N   UNL     1       3.879   3.423  19.503  0.00  0.00    +0.000 N 
ATOM     15  H   UNL     1       4.631   3.968  19.914  0.00  0.00    +0.000 HD
BRANCH  14  16
ATOM     16  C   UNL     1       2.926   2.750  20.364  0.00  0.00    +0.000 C 
BRANCH  16  17
ATOM     17  C   UNL     1       2.030   3.725  21.125  0.00  0.00    +0.000 C 
BRANCH  17  18
ATOM     18  C   UNL     1       1.423   4.822  20.237  0.00  0.00    +0.000 C 
BRANCH  18  19
ATOM     19  N   UNL     1       2.203   6.071  20.177  0.00  0.00    +0.000 NA
ATOM     20  C   UNL     1       2.449   6.504  18.798  0.00  0.00    +0.000 C 
ATOM     21  C   UNL     1       1.501   7.131  20.906  0.00  0.00    +0.000 C 
ENDBRANCH  18  19
ENDBRANCH  17  18
ENDBRANCH  16  17
ENDBRANCH  14  16
ENDBRANCH   3  12
BRANCH   1  23
ATOM     22  C   UNL     1       7.686   7.652  17.837  0.00  0.00    +0.000 C 
ATOM     23  C   UNL     1       7.928   6.166  18.105  0.00  0.00    +0.000 C 
ATOM     24  C   UNL     1       7.952   5.886  19.610  0.00  0.00    +0.000 C 
ENDBRANCH   1  23
TORSDOF 6
ENDMDL
MODEL 3
REMARK VINA RESULT:      -7.0      4.197      6.411
REMARK  Name = 
REMARK  10 active torsions:
REMARK  status: ('A' for Active; 'I' for Inactive)
REMARK    1  A    between atoms: C_1  and  C_2
REMARK    2  A    between atoms: C_2  and  C_3
REMARK    3  A    between atoms: C_2  and  C_4
REMARK    4  A    between atoms: C_6  and  C_7
REMARK    5  A    between atoms: N_9  and  C_10
REMARK    6  A    between atoms: C_10  and  C_11
REMARK    7  A    between atoms: C_11  and  C_12
REMARK    8  A    between atoms: C_12  and  N_13
REMARK    9  A    between atoms: N_13  and  C_14
REMARK   10  A    between atoms: N_13  and  C_15
REMARK                            x       y       z     vdW  Elec       q    Type
REMARK                         _______ _______ _______ _____ _____    ______ ____
ROOT
ATOM      1  C   UNL     1       2.377   3.969  19.488  0.00  0.00    +0.000 A 
ATOM      2  C   UNL     1       1.937   5.164  19.987  0.00  0.00    +0.000 A 
ATOM      3  C   UNL     1       2.547   6.285  19.463  0.00  0.00    +0.000 A 
ATOM      4  N   UNL     1       3.539   6.256  18.541  0.00  0.00    +0.000 NA
ATOM      5  C   UNL     1       3.903   5.044  18.099  0.00  0.00    +0.000 A 
ATOM      6  N   UNL     1       4.900   4.930  17.170  0.00  0.00    +0.000 N 
ATOM      7  C   UNL     1       5.632   6.056  16.635  0.00  0.00    +0.000 C 
ATOM      8  C   UNL     1       5.806   5.697  15.162  0.00  0.00    +0.000 C 
ATOM      9  C   UNL     1       5.891   4.177  15.170  0.00  0.00    +0.000 C 
ATOM     10  C   UNL     1       4.967   3.755  16.314  0.00  0.00    +0.000 C 
ATOM     11  N   UNL     1       3.337   3.908  18.543  0.00  0.00    +0.000 NA
ENDROOT
BRANCH   3  12
ATOM     12  C   UNL     1       2.072   7.630  19.924  0.00  0.00    +0.000 C 
ATOM     13  O   UNL     1       1.933   8.555  19.130  0.00  0.00    +0.000 OA
ATOM     14  N   UNL     1       1.822   7.743  21.274  0.00  0.00    +0.000 N 
ATOM     15  H   UNL     1       1.903   6.901  21.836  0.00  0.00    +0.000 HD
BRANCH  14  16
ATOM     16  C   UNL     1       1.322   8.963  21.874  0.00  0.00    +0.000 C 
BRANCH  16  17
ATOM     17  C   UNL     1      -0.188   9.124  21.708  0.00  0.00    +0.000 C 
BRANCH  17  18
ATOM     18  C   UNL     1      -0.610  10.533  21.264  0.00  0.00    +0.000 C 
BRANCH  18  19
ATOM     19  N   UNL     1      -0.301  11.604  22.228  0.00  0.00    +0.000 NA
ATOM     20  C   UNL     1       0.189  12.817  21.568  0.00  0.00    +0.000 C 
ATOM     21  C   UNL     1      -1.494  11.922  23.017  0.00  0.00    +0.000 C 
ENDBRANCH  18  19
ENDBRANCH  17  18
ENDBRANCH  16  17
ENDBRANCH  14  16
ENDBRANCH   3  12
BRANCH   1  23
ATOM     22  C   UNL     1       1.372   2.793  21.461  0.00  0.00    +0.000 C 
ATOM     23  C   UNL     1       1.810   2.660  20.002  0.00  0.00    +0.000 C 
ATOM     24  C   UNL     1       0.644   2.194  19.127  0.00  0.00    +0.000 C 
ENDBRANCH   1  23
TORSDOF 6
ENDMDL
MODEL 4
REMARK VINA RESULT:      -7.0      3.173      7.588
REMARK  Name = 
REMARK  10 active torsions:
REMARK  status: ('A' for Active; 'I' for Inactive)
REMARK    1  A    between atoms: C_1  and  C_2
REMARK    2  A    between atoms: C_2  and  C_3
REMARK    3  A    between atoms: C_2  and  C_4
REMARK    4  A    between atoms: C_6  and  C_7
REMARK    5  A    between atoms: N_9  and  C_10
REMARK    6  A    between atoms: C_10  and  C_11
REMARK    7  A    between atoms: C_11  and  C_12
REMARK    8  A    between atoms: C_12  and  N_13
REMARK    9  A    between atoms: N_13  and  C_14
REMARK   10  A    between atoms: N_13  and  C_15
REMARK                            x       y       z     vdW  Elec       q    Type
REMARK                         _______ _______ _______ _____ _____    ______ ____
ROOT
ATOM      1  C   UNL     1       6.160   4.664  15.558  0.00  0.00    +0.000 A 
ATOM      2  C   UNL     1       7.080   5.412  16.241  0.00  0.00    +0.000 A 
ATOM      3  C   UNL     1       6.649   5.922  17.448  0.00  0.00    +0.000 A 
ATOM      4  N   UNL     1       5.401   5.752  17.950  0.00  0.00    +0.000 NA
ATOM      5  C   UNL     1       4.567   4.999  17.221  0.00  0.00    +0.000 A 
ATOM      6  N   UNL     1       3.289   4.781  17.657  0.00  0.00    +0.000 N 
ATOM      7  C   UNL     1       2.749   5.347  18.872  0.00  0.00    +0.000 C 
ATOM      8  C   UNL     1       1.896   4.217  19.440  0.00  0.00    +0.000 C 
ATOM      9  C   UNL     1       1.401   3.483  18.202  0.00  0.00    +0.000 C 
ATOM     10  C   UNL     1       2.554   3.610  17.203  0.00  0.00    +0.000 C 
ATOM     11  N   UNL     1       4.923   4.445  16.047  0.00  0.00    +0.000 NA
ENDROOT
BRANCH   3  12
ATOM     12  C   UNL     1       7.625   6.703  18.276  0.00  0.00    +0.000 C 
ATOM     13  O   UNL     1       8.204   6.182  19.223  0.00  0.00    +0.000 OA
ATOM     14  N   UNL     1       7.805   8.016  17.903  0.00  0.00    +0.000 N 
ATOM     15  H   UNL     1       7.330   8.333  17.063  0.00  0.00    +0.000 HD
BRANCH  14  16
ATOM     16  C   UNL     1       8.742   8.895  18.575  0.00  0.00    +0.000 C 
BRANCH  16  17
ATOM     17  C   UNL     1       8.710  10.320  18.023  0.00  0.00    +0.000 C 
BRANCH  17  18
ATOM     18  C   UNL     1       9.310  11.362  18.980  0.00  0.00    +0.000 C 
BRANCH  18  19
ATOM     19  N   UNL     1      10.778  11.315  19.103  0.00  0.00    +0.000 NA
ATOM     20  C   UNL     1      11.449  11.878  17.929  0.00  0.00    +0.000 C 
ATOM     21  C   UNL     1      11.198  12.042  20.305  0.00  0.00    +0.000 C 
ENDBRANCH  18  19
ENDBRANCH  17  18
ENDBRANCH  16  17
ENDBRANCH  14  16
ENDBRANCH   3  12
BRANCH   1  23
ATOM     22  C   UNL     1       5.228   3.828  13.386  0.00  0.00    +0.000 C 
ATOM     23  C   UNL     1       6.497   4.072  14.204  0.00  0.00    +0.000 C 
ATOM     24  C   UNL     1       7.466   4.979  13.442  0.00  0.00    +0.000 C 
ENDBRANCH   1  23
TORSDOF 6
ENDMDL
MODEL 5
REMARK VINA RESULT:      -7.0      1.445      1.912
REMARK  Name = 
REMARK  10 active torsions:
REMARK  status: ('A' for Active; 'I' for Inactive)
REMARK    1  A    between atoms: C_1  and  C_2
REMARK    2  A    between atoms: C_2  and  C_3
REMARK    3  A    between atoms: C_2  and  C_4
REMARK    4  A    between atoms: C_6  and  C_7
REMARK    5  A    between atoms: N_9  and  C_10
REMARK    6  A    between atoms: C_10  and  C_11
REMARK    7  A    between atoms: C_11  and  C_12
REMARK    8  A    between atoms: C_12  and  N_13
REMARK    9  A    between atoms: N_13  and  C_14
REMARK   10  A    between atoms: N_13  and  C_15
REMARK                            x       y       z     vdW  Elec       q    Type
REMARK                         _______ _______ _______ _____ _____    ______ ____
ROOT
ATOM      1  C   UNL     1       6.665   5.098  17.347  0.00  0.00    +0.000 A 
ATOM      2  C   UNL     1       5.642   4.496  18.028  0.00  0.00    +0.000 A 
ATOM      3  C   UNL     1       4.738   3.805  17.248  0.00  0.00    +0.000 A 
ATOM      4  N   UNL     1       4.795   3.725  15.897  0.00  0.00    +0.000 NA
ATOM      5  C   UNL     1       5.834   4.336  15.311  0.00  0.00    +0.000 A 
ATOM      6  N   UNL     1       5.963   4.304  13.950  0.00  0.00    +0.000 N 
ATOM      7  C   UNL     1       5.013   3.664  13.069  0.00  0.00    +0.000 C 
ATOM      8  C   UNL     1       5.896   3.021  12.004  0.00  0.00    +0.000 C 
ATOM      9  C   UNL     1       7.089   3.962  11.909  0.00  0.00    +0.000 C 
ATOM     10  C   UNL     1       7.271   4.482  13.338  0.00  0.00    +0.000 C 
ATOM     11  N   UNL     1       6.771   5.007  16.006  0.00  0.00    +0.000 NA
ENDROOT
BRANCH   3  12
ATOM     12  C   UNL     1       3.624   3.073  17.936  0.00  0.00    +0.000 C 
ATOM     13  O   UNL     1       3.573   1.848  17.922  0.00  0.00    +0.000 OA
ATOM     14  N   UNL     1       2.686   3.866  18.558  0.00  0.00    +0.000 N 
ATOM     15  H   UNL     1       2.854   4.868  18.570  0.00  0.00    +0.000 HD
BRANCH  14  16
ATOM     16  C   UNL     1       1.568   3.316  19.299  0.00  0.00    +0.000 C 
BRANCH  16  17
ATOM     17  C   UNL     1       1.118   4.222  20.443  0.00  0.00    +0.000 C 
BRANCH  17  18
ATOM     18  C   UNL     1       2.060   5.409  20.693  0.00  0.00    +0.000 C 
BRANCH  18  19
ATOM     19  N   UNL     1       1.641   6.674  20.063  0.00  0.00    +0.000 NA
ATOM     20  C   UNL     1       1.383   7.725  21.052  0.00  0.00    +0.000 C 
ATOM     21  C   UNL     1       2.671   7.126  19.124  0.00  0.00    +0.000 C 
ENDBRANCH  18  19
ENDBRANCH  17  18
ENDBRANCH  16  17
ENDBRANCH  14  16
ENDBRANCH   3  12
BRANCH   1  23
ATOM     22  C   UNL     1       7.593   7.396  17.722  0.00  0.00    +0.000 C 
ATOM     23  C   UNL     1       7.708   5.914  18.082  0.00  0.00    +0.000 C 
ATOM     24  C   UNL     1       7.586   5.715  19.595  0.00  0.00    +0.000 C 
ENDBRANCH   1  23
TORSDOF 6
ENDMDL
MODEL 6
REMARK VINA RESULT:      -7.0      4.425      6.694
REMARK  Name = 
REMARK  10 active torsions:
REMARK  status: ('A' for Active; 'I' for Inactive)
REMARK    1  A    between atoms: C_1  and  C_2
REMARK    2  A    between atoms: C_2  and  C_3
REMARK    3  A    between atoms: C_2  and  C_4
REMARK    4  A    between atoms: C_6  and  C_7
REMARK    5  A    between atoms: N_9  and  C_10
REMARK    6  A    between atoms: C_10  and  C_11
REMARK    7  A    between atoms: C_11  and  C_12
REMARK    8  A    between atoms: C_12  and  N_13
REMARK    9  A    between atoms: N_13  and  C_14
REMARK   10  A    between atoms: N_13  and  C_15
REMARK                            x       y       z     vdW  Elec       q    Type
REMARK                         _______ _______ _______ _____ _____    ______ ____
ROOT
ATOM      1  C   UNL     1       1.875   4.383  19.820  0.00  0.00    +0.000 A 
ATOM      2  C   UNL     1       1.480   5.575  20.364  0.00  0.00    +0.000 A 
ATOM      3  C   UNL     1       2.129   6.691  19.878  0.00  0.00    +0.000 A 
ATOM      4  N   UNL     1       3.118   6.660  18.951  0.00  0.00    +0.000 NA
ATOM      5  C   UNL     1       3.436   5.453  18.465  0.00  0.00    +0.000 A 
ATOM      6  N   UNL     1       4.425   5.336  17.528  0.00  0.00    +0.000 N 
ATOM      7  C   UNL     1       5.196   6.453  17.031  0.00  0.00    +0.000 C 
ATOM      8  C   UNL     1       5.354   6.142  15.546  0.00  0.00    +0.000 C 
ATOM      9  C   UNL     1       5.384   4.621  15.498  0.00  0.00    +0.000 C 
ATOM     10  C   UNL     1       4.447   4.191  16.630  0.00  0.00    +0.000 C 
ATOM     11  N   UNL     1       2.830   4.322  18.869  0.00  0.00    +0.000 NA
ENDROOT
BRANCH   3  12
ATOM     12  C   UNL     1       1.705   8.035  20.389  0.00  0.00    +0.000 C 
ATOM     13  O   UNL     1       1.401   8.936  19.615  0.00  0.00    +0.000 OA
ATOM     14  N   UNL     1       1.695   8.175  21.759  0.00  0.00    +0.000 N 
ATOM     15  H   UNL     1       1.898   7.349  22.315  0.00  0.00    +0.000 HD
BRANCH  14  16
ATOM     16  C   UNL     1       1.274   9.397  22.415  0.00  0.00    +0.000 C 
BRANCH  16  17
ATOM     17  C   UNL     1      -0.246   9.524  22.501  0.00  0.00    +0.000 C 
BRANCH  17  18
ATOM     18  C   UNL     1      -0.747  10.974  22.417  0.00  0.00    +0.000 C 
BRANCH  18  19
ATOM     19  N   UNL     1      -0.572  11.613  21.101  0.00  0.00    +0.000 NA
ATOM     20  C   UNL     1      -1.846  12.059  20.530  0.00  0.00    +0.000 C 
ATOM     21  C   UNL     1       0.339  12.755  21.220  0.00  0.00    +0.000 C 
ENDBRANCH  18  19
ENDBRANCH  17  18
ENDBRANCH  16  17
ENDBRANCH  14  16
ENDBRANCH   3  12
BRANCH   1  23
ATOM     22  C   UNL     1       1.543   1.956  19.288  0.00  0.00    +0.000 C 
ATOM     23  C   UNL     1       1.263   3.079  20.288  0.00  0.00    +0.000 C 
ATOM     24  C   UNL     1       1.781   2.706  21.679  0.00  0.00    +0.000 C 
ENDBRANCH   1  23
TORSDOF 6
ENDMDL
MODEL 7
REMARK VINA RESULT:      -7.0      4.515      6.774
REMARK  Name = 
REMARK  10 active torsions:
REMARK  status: ('A' for Active; 'I' for Inactive)
REMARK    1  A    between atoms: C_1  and  C_2
REMARK    2  A    between atoms: C_2  and  C_3
REMARK    3  A    between atoms: C_2  and  C_4
REMARK    4  A    between atoms: C_6  and  C_7
REMARK    5  A    between atoms: N_9  and  C_10
REMARK    6  A    between atoms: C_10  and  C_11
REMARK    7  A    between atoms: C_11  and  C_12
REMARK    8  A    between atoms: C_12  and  N_13
REMARK    9  A    between atoms: N_13  and  C_14
REMARK   10  A    between atoms: N_13  and  C_15
REMARK                            x       y       z     vdW  Elec       q    Type
REMARK                         _______ _______ _______ _____ _____    ______ ____
ROOT
ATOM      1  C   UNL     1       1.913   4.468  19.980  0.00  0.00    +0.000 A 
ATOM      2  C   UNL     1       1.464   5.653  20.495  0.00  0.00    +0.000 A 
ATOM      3  C   UNL     1       2.054   6.786  19.974  0.00  0.00    +0.000 A 
ATOM      4  N   UNL     1       3.037   6.778  19.040  0.00  0.00    +0.000 NA
ATOM      5  C   UNL     1       3.411   5.574  18.584  0.00  0.00    +0.000 A 
ATOM      6  N   UNL     1       4.398   5.480  17.643  0.00  0.00    +0.000 N 
ATOM      7  C   UNL     1       5.110   6.620  17.110  0.00  0.00    +0.000 C 
ATOM      8  C   UNL     1       5.273   6.276  15.633  0.00  0.00    +0.000 C 
ATOM      9  C   UNL     1       5.377   4.757  15.626  0.00  0.00    +0.000 C 
ATOM     10  C   UNL     1       4.470   4.313  16.777  0.00  0.00    +0.000 C 
ATOM     11  N   UNL     1       2.863   4.427  19.024  0.00  0.00    +0.000 NA
ENDROOT
BRANCH   3  12
ATOM     12  C   UNL     1       1.568   8.121  20.452  0.00  0.00    +0.000 C 
ATOM     13  O   UNL     1       1.419   8.345  21.648  0.00  0.00    +0.000 OA
ATOM     14  N   UNL     1       1.301   9.045  19.466  0.00  0.00    +0.000 N 
ATOM     15  H   UNL     1       1.521   8.785  18.509  0.00  0.00    +0.000 HD
BRANCH  14  16
ATOM     16  C   UNL     1       0.861  10.395  19.761  0.00  0.00    +0.000 C 
BRANCH  16  17
ATOM     17  C   UNL     1      -0.652  10.561  19.631  0.00  0.00    +0.000 C 
BRANCH  17  18
ATOM     18  C   UNL     1      -1.122  10.797  18.188  0.00  0.00    +0.000 C 
BRANCH  18  19
ATOM     19  N   UNL     1      -2.501  10.359  17.907  0.00  0.00    +0.000 NA
ATOM     20  C   UNL     1      -3.481  11.414  18.177  0.00  0.00    +0.000 C 
ATOM     21  C   UNL     1      -2.612   9.932  16.509  0.00  0.00    +0.000 C 
ENDBRANCH  18  19
ENDBRANCH  17  18
ENDBRANCH  16  17
ENDBRANCH  14  16
ENDBRANCH   3  12
BRANCH   1  23
ATOM     22  C   UNL     1       1.407   2.084  19.391  0.00  0.00    +0.000 C 
ATOM     23  C   UNL     1       1.369   3.148  20.489  0.00  0.00    +0.000 C 
ATOM     24  C   UNL     1       2.146   2.681  21.722  0.00  0.00    +0.000 C 
ENDBRANCH   1  23
TORSDOF 6
ENDMDL
MODEL 8
REMARK VINA RESULT:      -7.0      4.629      6.421
REMARK  Name = 
REMARK  10 active torsions:
REMARK  status: ('A' for Active; 'I' for Inactive)
REMARK    1  A    between atoms: C_1  and  C_2
REMARK    2  A    between atoms: C_2  and  C_3
REMARK    3  A    between atoms: C_2  and  C_4
REMARK    4  A    between atoms: C_6  and  C_7
REMARK    5  A    between atoms: N_9  and  C_10
REMARK    6  A    between atoms: C_10  and  C_11
REMARK    7  A    between atoms: C_11  and  C_12
REMARK    8  A    between atoms: C_12  and  N_13
REMARK    9  A    between atoms: N_13  and  C_14
REMARK   10  A    between atoms: N_13  and  C_15
REMARK                            x       y       z     vdW  Elec       q    Type
REMARK                         _______ _______ _______ _____ _____    ______ ____
ROOT
ATOM      1  C   UNL     1       2.800   5.111  19.600  0.00  0.00    +0.000 A 
ATOM      2  C   UNL     1       2.231   6.355  19.593  0.00  0.00    +0.000 A 
ATOM      3  C   UNL     1       2.659   7.196  18.587  0.00  0.00    +0.000 A 
ATOM      4  N   UNL     1       3.599   6.872  17.666  0.00  0.00    +0.000 NA
ATOM      5  C   UNL     1       4.098   5.631  17.740  0.00  0.00    +0.000 A 
ATOM      6  N   UNL     1       5.053   5.228  16.848  0.00  0.00    +0.000 N 
ATOM      7  C   UNL     1       5.601   6.081  15.818  0.00  0.00    +0.000 C 
ATOM      8  C   UNL     1       5.748   5.144  14.623  0.00  0.00    +0.000 C 
ATOM      9  C   UNL     1       6.035   3.791  15.260  0.00  0.00    +0.000 C 
ATOM     10  C   UNL     1       5.233   3.812  16.564  0.00  0.00    +0.000 C 
ATOM     11  N   UNL     1       3.711   4.745  18.676  0.00  0.00    +0.000 NA
ENDROOT
BRANCH   3  12
ATOM     12  C   UNL     1       2.034   8.555  18.487  0.00  0.00    +0.000 C 
ATOM     13  O   UNL     1       2.208   9.256  17.496  0.00  0.00    +0.000 OA
ATOM     14  N   UNL     1       1.278   8.944  19.570  0.00  0.00    +0.000 N 
ATOM     15  H   UNL     1       1.139   8.264  20.312  0.00  0.00    +0.000 HD
BRANCH  14  16
ATOM     16  C   UNL     1       0.575  10.211  19.615  0.00  0.00    +0.000 C 
BRANCH  16  17
ATOM     17  C   UNL     1       0.977  11.064  20.817  0.00  0.00    +0.000 C 
BRANCH  17  18
ATOM     18  C   UNL     1      -0.135  12.009  21.298  0.00  0.00    +0.000 C 
BRANCH  18  19
ATOM     19  N   UNL     1      -0.442  11.920  22.737  0.00  0.00    +0.000 NA
ATOM     20  C   UNL     1      -1.413  12.933  23.159  0.00  0.00    +0.000 C 
ATOM     21  C   UNL     1      -0.956  10.584  23.054  0.00  0.00    +0.000 C 
ENDBRANCH  18  19
ENDBRANCH  17  18
ENDBRANCH  16  17
ENDBRANCH  14  16
ENDBRANCH   3  12
BRANCH   1  23
ATOM     22  C   UNL     1       0.958   3.731  20.594  0.00  0.00    +0.000 C 
ATOM     23  C   UNL     1       2.440   4.101  20.671  0.00  0.00    +0.000 C 
ATOM     24  C   UNL     1       3.315   2.851  20.554  0.00  0.00    +0.000 C 
ENDBRANCH   1  23
TORSDOF 6
ENDMDL
MODEL 9
REMARK VINA RESULT:      -7.0      1.146      1.531
REMARK  Name = 
REMARK  10 active torsions:
REMARK  status: ('A' for Active; 'I' for Inactive)
REMARK    1  A    between atoms: C_1  and  C_2
REMARK    2  A    between atoms: C_2  and  C_3
REMARK    3  A    between atoms: C_2  and  C_4
REMARK    4  A    between atoms: C_6  and  C_7
REMARK    5  A    between atoms: N_9  and  C_10
REMARK    6  A    between atoms: C_10  and  C_11
REMARK    7  A    between atoms: C_11  and  C_12
REMARK    8  A    between atoms: C_12  and  N_13
REMARK    9  A    between atoms: N_13  and  C_14
REMARK   10  A    between atoms: N_13  and  C_15
REMARK                            x       y       z     vdW  Elec       q    Type
REMARK                         _______ _______ _______ _____ _____    ______ ____
ROOT
ATOM      1  C   UNL     1       7.063   5.818  17.275  0.00  0.00    +0.000 A 
ATOM      2  C   UNL     1       6.263   5.074  18.099  0.00  0.00    +0.000 A 
ATOM      3  C   UNL     1       5.463   4.144  17.466  0.00  0.00    +0.000 A 
ATOM      4  N   UNL     1       5.413   3.965  16.124  0.00  0.00    +0.000 NA
ATOM      5  C   UNL     1       6.236   4.729  15.392  0.00  0.00    +0.000 A 
ATOM      6  N   UNL     1       6.243   4.610  14.030  0.00  0.00    +0.000 N 
ATOM      7  C   UNL     1       5.378   3.712  13.298  0.00  0.00    +0.000 C 
ATOM      8  C   UNL     1       6.279   3.182  12.187  0.00  0.00    +0.000 C 
ATOM      9  C   UNL     1       7.224   4.341  11.906  0.00  0.00    +0.000 C 
ATOM     10  C   UNL     1       7.418   5.007  13.270  0.00  0.00    +0.000 C 
ATOM     11  N   UNL     1       7.063   5.638  15.939  0.00  0.00    +0.000 NA
ENDROOT
BRANCH   3  12
ATOM     12  C   UNL     1       4.604   3.256  18.314  0.00  0.00    +0.000 C 
ATOM     13  O   UNL     1       4.932   2.972  19.461  0.00  0.00    +0.000 OA
ATOM     14  N   UNL     1       3.455   2.790  17.714  0.00  0.00    +0.000 N 
ATOM     15  H   UNL     1       3.240   3.137  16.785  0.00  0.00    +0.000 HD
BRANCH  14  16
ATOM     16  C   UNL     1       2.498   1.952  18.409  0.00  0.00    +0.000 C 
BRANCH  16  17
ATOM     17  C   UNL     1       1.613   2.744  19.371  0.00  0.00    +0.000 C 
BRANCH  17  18
ATOM     18  C   UNL     1       1.401   4.205  18.948  0.00  0.00    +0.000 C 
BRANCH  18  19
ATOM     19  N   UNL     1       1.744   5.203  19.978  0.00  0.00    +0.000 NA
ATOM     20  C   UNL     1       2.273   4.581  21.195  0.00  0.00    +0.000 C 
ATOM     21  C   UNL     1       2.726   6.150  19.444  0.00  0.00    +0.000 C 
ENDBRANCH  18  19
ENDBRANCH  17  18
ENDBRANCH  16  17
ENDBRANCH  14  16
ENDBRANCH   3  12
BRANCH   1  23
ATOM     22  C   UNL     1       7.350   8.281  17.645  0.00  0.00    +0.000 C 
ATOM     23  C   UNL     1       7.966   6.895  17.841  0.00  0.00    +0.000 C 
ATOM     24  C   UNL     1       8.256   6.636  19.322  0.00  0.00    +0.000 C 
ENDBRANCH   1  23
TORSDOF 6
ENDMDL
