MODEL 1
REMARK VINA RESULT:      -7.6      0.000      0.000
REMARK  Name = 
REMARK  9 active torsions:
REMARK  status: ('A' for Active; 'I' for Inactive)
REMARK    1  A    between atoms: N_4  and  C_5
REMARK    2  A    between atoms: C_5  and  C_6
REMARK    3  A    between atoms: C_6  and  C_7
REMARK    4  A    between atoms: C_7  and  C_8
REMARK    5  A    between atoms: C_8  and  C_9
REMARK    6  A    between atoms: C_9  and  C_10
REMARK    7  A    between atoms: C_10  and  N_11
REMARK    8  A    between atoms: N_11  and  S_12
REMARK    9  A    between atoms: S_12  and  C_15
REMARK                            x       y       z     vdW  Elec       q    Type
REMARK                         _______ _______ _______ _____ _____    ______ ____
ROOT
ATOM      1  N   UNL     1       7.235   6.614  16.729  0.00  0.00    +0.000 NA
ATOM      2  H   UNL     1       8.037   6.298  16.138  0.00  0.00    +0.000 HD
ENDROOT
BRANCH   1   3
ATOM      3  S   UNL     1       6.318   5.174  17.189  0.00  0.00    +0.000 S 
ATOM      4  O   UNL     1       6.485   4.219  16.000  0.00  0.00    +0.000 OA
ATOM      5  O   UNL     1       7.127   4.468  18.291  0.00  0.00    +0.000 OA
BRANCH   3   6
ATOM      6  C   UNL     1       4.585   5.487  17.558  0.00  0.00    +0.000 A 
ATOM      7  C   UNL     1       4.197   6.826  17.677  0.00  0.00    +0.000 A 
ATOM      8  C   UNL     1       2.882   7.163  17.974  0.00  0.00    +0.000 A 
ATOM      9  C   UNL     1       1.922   6.165  18.149  0.00  0.00    +0.000 A 
ATOM     10  C   UNL     1       2.280   4.818  18.029  0.00  0.00    +0.000 A 
ATOM     11  C   UNL     1       1.315   3.815  18.212  0.00  0.00    +0.000 A 
ATOM     12  N   UNL     1       1.661   2.506  18.108  0.00  0.00    +0.000 NA
ATOM     13  C   UNL     1       2.932   2.125  17.830  0.00  0.00    +0.000 A 
ATOM     14  C   UNL     1       3.931   3.083  17.638  0.00  0.00    +0.000 A 
ATOM     15  C   UNL     1       3.619   4.456  17.732  0.00  0.00    +0.000 A 
ENDBRANCH   3   6
ENDBRANCH   1   3
BRANCH   1  16
ATOM     16  C   UNL     1       7.755   7.278  17.916  0.00  0.00    +0.000 C 
BRANCH  16  17
ATOM     17  C   UNL     1       7.958   8.766  17.621  0.00  0.00    +0.000 C 
BRANCH  17  18
ATOM     18  C   UNL     1       8.811   9.434  18.703  0.00  0.00    +0.000 C 
BRANCH  18  19
ATOM     19  C   UNL     1       9.208  10.850  18.277  0.00  0.00    +0.000 C 
BRANCH  19  20
ATOM     20  C   UNL     1       9.986  11.566  19.374  0.00  0.00    +0.000 C 
BRANCH  20  21
ATOM     21  C   UNL     1       9.452  11.151  20.748  0.00  0.00    +0.000 C 
BRANCH  21  25
ATOM     22  N   UNL     1       8.370  11.015  23.349  0.00  0.00    +0.000 NA
ATOM     23  C   UNL     1       8.521  12.173  22.841  0.00  0.00    +0.000 C 
ATOM     24  N   UNL     1       8.118  13.336  23.572  0.00  0.00    +0.000 N 
ATOM     25  N   UNL     1       9.074  12.317  21.530  0.00  0.00    +0.000 N 
ATOM     26  H   UNL     1       7.966  10.883  24.292  0.00  0.00    +0.000 HD
ATOM     27  H   UNL     1       7.679  13.230  24.500  0.00  0.00    +0.000 HD
ATOM     28  H   UNL     1       8.227  14.282  23.187  0.00  0.00    +0.000 HD
ATOM     29  H   UNL     1       9.187  13.255  21.131  0.00  0.00    +0.000 HD
ENDBRANCH  21  25
ENDBRANCH  20  21
ENDBRANCH  19  20
ENDBRANCH  18  19
ENDBRANCH  17  18
ENDBRANCH  16  17
ENDBRANCH   1  16
TORSDOF 9
ENDMDL
MODEL 2
REMARK VINA RESULT:      -7.6      2.512      3.121
REMARK  Name = 
REMARK  9 active torsions:
REMARK  status: ('A' for Active; 'I' for Inactive)
REMARK    1  A    between atoms: N_4  and  C_5
REMARK    2  A    between atoms: C_5  and  C_6
REMARK    3  A    between atoms: C_6  and  C_7
REMARK    4  A    between atoms: C_7  and  C_8
REMARK    5  A    between atoms: C_8  and  C_9
REMARK    6  A    between atoms: C_9  and  C_10
REMARK    7  A    between atoms: C_10  and  N_11
REMARK    8  A    between atoms: N_11  and  S_12
REMARK    9  A    between atoms: S_12  and  C_15
REMARK                            x       y       z     vdW  Elec       q    Type
REMARK                         _______ _______ _______ _____ _____    ______ ____
ROOT
ATOM      1  N   UNL     1       6.961   4.912  17.594  0.00  0.00    +0.000 NA
ATOM      2  H   UNL     1       6.940   3.938  17.973  0.00  0.00    +0.000 HD
ENDROOT
BRANCH   1   3
ATOM      3  S   UNL     1       5.444   5.175  16.726  0.00  0.00    +0.000 S 
ATOM      4  O   UNL     1       5.844   6.014  15.504  0.00  0.00    +0.000 OA
ATOM      5  O   UNL     1       5.062   3.829  16.085  0.00  0.00    +0.000 OA
BRANCH   3   6
ATOM      6  C   UNL     1       4.163   5.979  17.700  0.00  0.00    +0.000 A 
ATOM      7  C   UNL     1       3.821   7.285  17.337  0.00  0.00    +0.000 A 
ATOM      8  C   UNL     1       2.852   7.990  18.041  0.00  0.00    +0.000 A 
ATOM      9  C   UNL     1       2.196   7.398  19.122  0.00  0.00    +0.000 A 
ATOM     10  C   UNL     1       2.514   6.089  19.504  0.00  0.00    +0.000 A 
ATOM     11  C   UNL     1       1.858   5.496  20.594  0.00  0.00    +0.000 A 
ATOM     12  N   UNL     1       2.172   4.231  20.975  0.00  0.00    +0.000 NA
ATOM     13  C   UNL     1       3.117   3.506  20.327  0.00  0.00    +0.000 A 
ATOM     14  C   UNL     1       3.798   4.048  19.234  0.00  0.00    +0.000 A 
ATOM     15  C   UNL     1       3.505   5.358  18.799  0.00  0.00    +0.000 A 
ENDBRANCH   3   6
ENDBRANCH   1   3
BRANCH   1  16
ATOM     16  C   UNL     1       7.073   5.848  18.704  0.00  0.00    +0.000 C 
BRANCH  16  17
ATOM     17  C   UNL     1       8.045   6.970  18.330  0.00  0.00    +0.000 C 
BRANCH  17  18
ATOM     18  C   UNL     1       7.298   8.197  17.800  0.00  0.00    +0.000 C 
BRANCH  18  19
ATOM     19  C   UNL     1       8.247   9.392  17.672  0.00  0.00    +0.000 C 
BRANCH  19  20
ATOM     20  C   UNL     1       9.027   9.628  18.959  0.00  0.00    +0.000 C 
BRANCH  20  21
ATOM     21  C   UNL     1       9.385  11.112  19.086  0.00  0.00    +0.000 C 
BRANCH  21  25
ATOM     22  N   UNL     1       9.926  13.125  17.186  0.00  0.00    +0.000 NA
ATOM     23  C   UNL     1      10.905  12.406  17.567  0.00  0.00    +0.000 C 
ATOM     24  N   UNL     1      12.208  12.614  17.011  0.00  0.00    +0.000 N 
ATOM     25  N   UNL     1      10.706  11.374  18.536  0.00  0.00    +0.000 N 
ATOM     26  H   UNL     1      10.042  13.873  16.481  0.00  0.00    +0.000 HD
ATOM     27  H   UNL     1      12.343  13.330  16.280  0.00  0.00    +0.000 HD
ATOM     28  H   UNL     1      13.015  12.049  17.298  0.00  0.00    +0.000 HD
ATOM     29  H   UNL     1      11.502  10.799  18.832  0.00  0.00    +0.000 HD
ENDBRANCH  21  25
ENDBRANCH  20  21
ENDBRANCH  19  20
ENDBRANCH  18  19
ENDBRANCH  17  18
ENDBRANCH  16  17
ENDBRANCH   1  16
TORSDOF 9
ENDMDL
MODEL 3
REMARK VINA RESULT:      -7.4      2.505      2.996
REMARK  Name = 
REMARK  9 active torsions:
REMARK  status: ('A' for Active; 'I' for Inactive)
REMARK    1  A    between atoms: N_4  and  C_5
REMARK    2  A    between atoms: C_5  and  C_6
REMARK    3  A    between atoms: C_6  and  C_7
REMARK    4  A    between atoms: C_7  and  C_8
REMARK    5  A    between atoms: C_8  and  C_9
REMARK    6  A    between atoms: C_9  and  C_10
REMARK    7  A    between atoms: C_10  and  N_11
REMARK    8  A    between atoms: N_11  and  S_12
REMARK    9  A    between atoms: S_12  and  C_15
REMARK                            x       y       z     vdW  Elec       q    Type
REMARK                         _______ _______ _______ _____ _____    ______ ____
ROOT
ATOM      1  N   UNL     1       7.833   7.058  16.595  0.00  0.00    +0.000 NA
ATOM      2  H   UNL     1       8.801   6.737  16.365  0.00  0.00    +0.000 HD
ENDROOT
BRANCH   1   3
ATOM      3  S   UNL     1       6.773   5.646  16.505  0.00  0.00    +0.000 S 
ATOM      4  O   UNL     1       6.790   5.250  15.022  0.00  0.00    +0.000 OA
ATOM      5  O   UNL     1       7.532   4.480  17.162  0.00  0.00    +0.000 OA
BRANCH   3   6
ATOM      6  C   UNL     1       5.101   5.937  17.101  0.00  0.00    +0.000 A 
ATOM      7  C   UNL     1       4.679   7.269  17.173  0.00  0.00    +0.000 A 
ATOM      8  C   UNL     1       3.409   7.590  17.635  0.00  0.00    +0.000 A 
ATOM      9  C   UNL     1       2.526   6.582  18.027  0.00  0.00    +0.000 A 
ATOM     10  C   UNL     1       2.918   5.240  17.959  0.00  0.00    +0.000 A 
ATOM     11  C   UNL     1       2.033   4.227  18.359  0.00  0.00    +0.000 A 
ATOM     12  N   UNL     1       2.414   2.926  18.306  0.00  0.00    +0.000 NA
ATOM     13  C   UNL     1       3.646   2.561  17.873  0.00  0.00    +0.000 A 
ATOM     14  C   UNL     1       4.566   3.529  17.462  0.00  0.00    +0.000 A 
ATOM     15  C   UNL     1       4.214   4.895  17.496  0.00  0.00    +0.000 A 
ENDBRANCH   3   6
ENDBRANCH   1   3
BRANCH   1  16
ATOM     16  C   UNL     1       7.824   7.607  17.944  0.00  0.00    +0.000 C 
BRANCH  16  17
ATOM     17  C   UNL     1       8.022   9.123  17.880  0.00  0.00    +0.000 C 
BRANCH  17  18
ATOM     18  C   UNL     1       8.918   9.614  19.020  0.00  0.00    +0.000 C 
BRANCH  18  19
ATOM     19  C   UNL     1       9.866  10.710  18.528  0.00  0.00    +0.000 C 
BRANCH  19  20
ATOM     20  C   UNL     1       9.128  12.021  18.286  0.00  0.00    +0.000 C 
BRANCH  20  21
ATOM     21  C   UNL     1      10.073  13.202  18.524  0.00  0.00    +0.000 C 
BRANCH  21  25
ATOM     22  N   UNL     1      10.578  15.975  18.410  0.00  0.00    +0.000 NA
ATOM     23  C   UNL     1      10.550  15.342  17.305  0.00  0.00    +0.000 C 
ATOM     24  N   UNL     1      10.737  16.043  16.072  0.00  0.00    +0.000 N 
ATOM     25  N   UNL     1      10.310  13.933  17.289  0.00  0.00    +0.000 N 
ATOM     26  H   UNL     1      10.743  16.995  18.449  0.00  0.00    +0.000 HD
ATOM     27  H   UNL     1      10.867  17.068  16.080  0.00  0.00    +0.000 HD
ATOM     28  H   UNL     1      10.718  15.560  15.166  0.00  0.00    +0.000 HD
ATOM     29  H   UNL     1      10.285  13.435  16.393  0.00  0.00    +0.000 HD
ENDBRANCH  21  25
ENDBRANCH  20  21
ENDBRANCH  19  20
ENDBRANCH  18  19
ENDBRANCH  17  18
ENDBRANCH  16  17
ENDBRANCH   1  16
TORSDOF 9
ENDMDL
MODEL 4
REMARK VINA RESULT:      -7.4      4.637      6.678
REMARK  Name = 
REMARK  9 active torsions:
REMARK  status: ('A' for Active; 'I' for Inactive)
REMARK    1  A    between atoms: N_4  and  C_5
REMARK    2  A    between atoms: C_5  and  C_6
REMARK    3  A    between atoms: C_6  and  C_7
REMARK    4  A    between atoms: C_7  and  C_8
REMARK    5  A    between atoms: C_8  and  C_9
REMARK    6  A    between atoms: C_9  and  C_10
REMARK    7  A    between atoms: C_10  and  N_11
REMARK    8  A    between atoms: N_11  and  S_12
REMARK    9  A    between atoms: S_12  and  C_15
REMARK                            x       y       z     vdW  Elec       q    Type
REMARK                         _______ _______ _______ _____ _____    ______ ____
ROOT
ATOM      1  N   UNL     1       2.834   2.652  19.598  0.00  0.00    +0.000 NA
ATOM      2  H   UNL     1       3.134   1.712  19.943  0.00  0.00    +0.000 HD
ENDROOT
BRANCH   1   3
ATOM      3  S   UNL     1       3.529   2.870  17.987  0.00  0.00    +0.000 S 
ATOM      4  O   UNL     1       3.912   1.451  17.542  0.00  0.00    +0.000 OA
ATOM      5  O   UNL     1       2.361   3.204  17.042  0.00  0.00    +0.000 OA
BRANCH   3   6
ATOM      6  C   UNL     1       4.935   3.991  17.933  0.00  0.00    +0.000 A 
ATOM      7  C   UNL     1       5.340   4.554  19.147  0.00  0.00    +0.000 A 
ATOM      8  C   UNL     1       6.407   5.442  19.200  0.00  0.00    +0.000 A 
ATOM      9  C   UNL     1       7.102   5.779  18.037  0.00  0.00    +0.000 A 
ATOM     10  C   UNL     1       6.723   5.225  16.809  0.00  0.00    +0.000 A 
ATOM     11  C   UNL     1       7.418   5.569  15.638  0.00  0.00    +0.000 A 
ATOM     12  N   UNL     1       7.046   5.043  14.443  0.00  0.00    +0.000 NA
ATOM     13  C   UNL     1       6.005   4.180  14.337  0.00  0.00    +0.000 A 
ATOM     14  C   UNL     1       5.281   3.804  15.471  0.00  0.00    +0.000 A 
ATOM     15  C   UNL     1       5.631   4.321  16.736  0.00  0.00    +0.000 A 
ENDBRANCH   3   6
ENDBRANCH   1   3
BRANCH   1  16
ATOM     16  C   UNL     1       1.381   2.689  19.527  0.00  0.00    +0.000 C 
BRANCH  16  17
ATOM     17  C   UNL     1       0.860   3.880  20.334  0.00  0.00    +0.000 C 
BRANCH  17  18
ATOM     18  C   UNL     1       2.009   4.774  20.808  0.00  0.00    +0.000 C 
BRANCH  18  19
ATOM     19  C   UNL     1       1.833   6.202  20.284  0.00  0.00    +0.000 C 
BRANCH  19  20
ATOM     20  C   UNL     1       2.177   6.301  18.803  0.00  0.00    +0.000 C 
BRANCH  20  21
ATOM     21  C   UNL     1       2.528   7.749  18.447  0.00  0.00    +0.000 C 
BRANCH  21  25
ATOM     22  N   UNL     1       1.847  10.299  17.454  0.00  0.00    +0.000 NA
ATOM     23  C   UNL     1       1.356   9.962  18.580  0.00  0.00    +0.000 C 
ATOM     24  N   UNL     1       0.523  10.875  19.301  0.00  0.00    +0.000 N 
ATOM     25  N   UNL     1       1.650   8.680  19.138  0.00  0.00    +0.000 N 
ATOM     26  H   UNL     1       1.656  11.223  17.032  0.00  0.00    +0.000 HD
ATOM     27  H   UNL     1       0.345  11.818  18.919  0.00  0.00    +0.000 HD
ATOM     28  H   UNL     1       0.114  10.632  20.211  0.00  0.00    +0.000 HD
ATOM     29  H   UNL     1       1.251   8.421  20.047  0.00  0.00    +0.000 HD
ENDBRANCH  21  25
ENDBRANCH  20  21
ENDBRANCH  19  20
ENDBRANCH  18  19
ENDBRANCH  17  18
ENDBRANCH  16  17
ENDBRANCH   1  16
TORSDOF 9
ENDMDL
MODEL 5
REMARK VINA RESULT:      -7.3      2.796      3.703
REMARK  Name = 
REMARK  9 active torsions:
REMARK  status: ('A' for Active; 'I' for Inactive)
REMARK    1  A    between atoms: N_4  and  C_5
REMARK    2  A    between atoms: C_5  and  C_6
REMARK    3  A    between atoms: C_6  and  C_7
REMARK    4  A    between atoms: C_7  and  C_8
REMARK    5  A    between atoms: C_8  and  C_9
REMARK    6  A    between atoms: C_9  and  C_10
REMARK    7  A    between atoms: C_10  and  N_11
REMARK    8  A    between atoms: N_11  and  S_12
REMARK    9  A    between atoms: S_12  and  C_15
REMARK                            x       y       z     vdW  Elec       q    Type
REMARK                         _______ _______ _______ _____ _____    ______ ____
ROOT
ATOM      1  N   UNL     1       8.264   6.988  18.760  0.00  0.00    +0.000 NA
ATOM      2  H   UNL     1       8.070   7.513  19.643  0.00  0.00    +0.000 HD
ENDROOT
BRANCH   1   3
ATOM      3  S   UNL     1       7.671   5.339  18.984  0.00  0.00    +0.000 S 
ATOM      4  O   UNL     1       8.909   4.456  18.779  0.00  0.00    +0.000 OA
ATOM      5  O   UNL     1       7.395   5.168  20.489  0.00  0.00    +0.000 OA
BRANCH   3   6
ATOM      6  C   UNL     1       6.329   4.879  17.877  0.00  0.00    +0.000 A 
ATOM      7  C   UNL     1       6.688   4.434  16.601  0.00  0.00    +0.000 A 
ATOM      8  C   UNL     1       5.719   4.071  15.674  0.00  0.00    +0.000 A 
ATOM      9  C   UNL     1       4.365   4.135  16.008  0.00  0.00    +0.000 A 
ATOM     10  C   UNL     1       3.976   4.570  17.280  0.00  0.00    +0.000 A 
ATOM     11  C   UNL     1       2.615   4.641  17.614  0.00  0.00    +0.000 A 
ATOM     12  N   UNL     1       2.234   5.073  18.843  0.00  0.00    +0.000 NA
ATOM     13  C   UNL     1       3.140   5.449  19.779  0.00  0.00    +0.000 A 
ATOM     14  C   UNL     1       4.508   5.396  19.499  0.00  0.00    +0.000 A 
ATOM     15  C   UNL     1       4.953   4.951  18.237  0.00  0.00    +0.000 A 
ENDBRANCH   3   6
ENDBRANCH   1   3
BRANCH   1  16
ATOM     16  C   UNL     1       7.557   7.632  17.662  0.00  0.00    +0.000 C 
BRANCH  16  17
ATOM     17  C   UNL     1       7.902   9.123  17.636  0.00  0.00    +0.000 C 
BRANCH  17  18
ATOM     18  C   UNL     1       8.882   9.485  18.755  0.00  0.00    +0.000 C 
BRANCH  18  19
ATOM     19  C   UNL     1       9.527  10.847  18.487  0.00  0.00    +0.000 C 
BRANCH  19  20
ATOM     20  C   UNL     1      10.433  11.273  19.635  0.00  0.00    +0.000 C 
BRANCH  20  21
ATOM     21  C   UNL     1      11.825  11.621  19.097  0.00  0.00    +0.000 C 
BRANCH  21  25
ATOM     22  N   UNL     1      12.013  14.162  17.886  0.00  0.00    +0.000 NA
ATOM     23  C   UNL     1      11.874  13.157  17.115  0.00  0.00    +0.000 C 
ATOM     24  N   UNL     1      11.789  13.347  15.699  0.00  0.00    +0.000 N 
ATOM     25  N   UNL     1      11.784  11.839  17.660  0.00  0.00    +0.000 N 
ATOM     26  H   UNL     1      12.073  15.126  17.519  0.00  0.00    +0.000 HD
ATOM     27  H   UNL     1      11.811  14.303  15.308  0.00  0.00    +0.000 HD
ATOM     28  H   UNL     1      11.676  12.557  15.053  0.00  0.00    +0.000 HD
ATOM     29  H   UNL     1      11.669  11.039  17.029  0.00  0.00    +0.000 HD
ENDBRANCH  21  25
ENDBRANCH  20  21
ENDBRANCH  19  20
ENDBRANCH  18  19
ENDBRANCH  17  18
ENDBRANCH  16  17
ENDBRANCH   1  16
TORSDOF 9
ENDMDL
MODEL 6
REMARK VINA RESULT:      -7.0      4.152      6.779
REMARK  Name = 
REMARK  9 active torsions:
REMARK  status: ('A' for Active; 'I' for Inactive)
REMARK    1  A    between atoms: N_4  and  C_5
REMARK    2  A    between atoms: C_5  and  C_6
REMARK    3  A    between atoms: C_6  and  C_7
REMARK    4  A    between atoms: C_7  and  C_8
REMARK    5  A    between atoms: C_8  and  C_9
REMARK    6  A    between atoms: C_9  and  C_10
REMARK    7  A    between atoms: C_10  and  N_11
REMARK    8  A    between atoms: N_11  and  S_12
REMARK    9  A    between atoms: S_12  and  C_15
REMARK                            x       y       z     vdW  Elec       q    Type
REMARK                         _______ _______ _______ _____ _____    ______ ____
ROOT
ATOM      1  N   UNL     1       2.809   3.679  19.986  0.00  0.00    +0.000 NA
ATOM      2  H   UNL     1       2.014   3.014  20.120  0.00  0.00    +0.000 HD
ENDROOT
BRANCH   1   3
ATOM      3  S   UNL     1       4.026   2.858  19.002  0.00  0.00    +0.000 S 
ATOM      4  O   UNL     1       5.043   2.324  20.019  0.00  0.00    +0.000 OA
ATOM      5  O   UNL     1       3.376   1.565  18.481  0.00  0.00    +0.000 OA
BRANCH   3   6
ATOM      6  C   UNL     1       4.805   3.906  17.763  0.00  0.00    +0.000 A 
ATOM      7  C   UNL     1       4.334   3.788  16.451  0.00  0.00    +0.000 A 
ATOM      8  C   UNL     1       4.885   4.547  15.426  0.00  0.00    +0.000 A 
ATOM      9  C   UNL     1       5.916   5.450  15.694  0.00  0.00    +0.000 A 
ATOM     10  C   UNL     1       6.402   5.593  16.998  0.00  0.00    +0.000 A 
ATOM     11  C   UNL     1       7.443   6.496  17.266  0.00  0.00    +0.000 A 
ATOM     12  N   UNL     1       7.925   6.630  18.527  0.00  0.00    +0.000 NA
ATOM     13  C   UNL     1       7.429   5.905  19.560  0.00  0.00    +0.000 A 
ATOM     14  C   UNL     1       6.391   4.993  19.349  0.00  0.00    +0.000 A 
ATOM     15  C   UNL     1       5.855   4.822  18.056  0.00  0.00    +0.000 A 
ENDBRANCH   3   6
ENDBRANCH   1   3
BRANCH   1  16
ATOM     16  C   UNL     1       2.322   4.865  19.296  0.00  0.00    +0.000 C 
BRANCH  16  17
ATOM     17  C   UNL     1       2.918   6.116  19.946  0.00  0.00    +0.000 C 
BRANCH  17  18
ATOM     18  C   UNL     1       2.127   7.370  19.565  0.00  0.00    +0.000 C 
BRANCH  18  19
ATOM     19  C   UNL     1       2.382   7.745  18.103  0.00  0.00    +0.000 C 
BRANCH  19  20
ATOM     20  C   UNL     1       2.115   9.223  17.850  0.00  0.00    +0.000 C 
BRANCH  20  21
ATOM     21  C   UNL     1       0.858   9.662  18.607  0.00  0.00    +0.000 C 
BRANCH  21  25
ATOM     22  N   UNL     1      -0.867  11.678  19.565  0.00  0.00    +0.000 NA
ATOM     23  C   UNL     1      -0.864  11.462  18.310  0.00  0.00    +0.000 C 
ATOM     24  N   UNL     1      -1.735  12.205  17.452  0.00  0.00    +0.000 N 
ATOM     25  N   UNL     1      -0.007  10.463  17.754  0.00  0.00    +0.000 N 
ATOM     26  H   UNL     1      -1.482  12.390  19.993  0.00  0.00    +0.000 HD
ATOM     27  H   UNL     1      -2.386  12.897  17.858  0.00  0.00    +0.000 HD
ATOM     28  H   UNL     1      -1.756  12.053  16.437  0.00  0.00    +0.000 HD
ATOM     29  H   UNL     1      -0.016  10.296  16.742  0.00  0.00    +0.000 HD
ENDBRANCH  21  25
ENDBRANCH  20  21
ENDBRANCH  19  20
ENDBRANCH  18  19
ENDBRANCH  17  18
ENDBRANCH  16  17
ENDBRANCH   1  16
TORSDOF 9
ENDMDL
MODEL 7
REMARK VINA RESULT:      -7.0      2.848      3.792
REMARK  Name = 
REMARK  9 active torsions:
REMARK  status: ('A' for Active; 'I' for Inactive)
REMARK    1  A    between atoms: N_4  and  C_5
REMARK    2  A    between atoms: C_5  and  C_6
REMARK    3  A    between atoms: C_6  and  C_7
REMARK    4  A    between atoms: C_7  and  C_8
REMARK    5  A    between atoms: C_8  and  C_9
REMARK    6  A    between atoms: C_9  and  C_10
REMARK    7  A    between atoms: C_10  and  N_11
REMARK    8  A    between atoms: N_11  and  S_12
REMARK    9  A    between atoms: S_12  and  C_15
REMARK                            x       y       z     vdW  Elec       q    Type
REMARK                         _______ _______ _______ _____ _____    ______ ____
ROOT
ATOM      1  N   UNL     1       7.318   7.031  16.629  0.00  0.00    +0.000 NA
ATOM      2  H   UNL     1       8.250   6.629  16.378  0.00  0.00    +0.000 HD
ENDROOT
BRANCH   1   3
ATOM      3  S   UNL     1       6.098   5.807  16.258  0.00  0.00    +0.000 S 
ATOM      4  O   UNL     1       5.291   6.411  15.100  0.00  0.00    +0.000 OA
ATOM      5  O   UNL     1       6.833   4.643  15.570  0.00  0.00    +0.000 OA
BRANCH   3   6
ATOM      6  C   UNL     1       5.046   5.366  17.649  0.00  0.00    +0.000 A 
ATOM      7  C   UNL     1       5.294   4.134  18.262  0.00  0.00    +0.000 A 
ATOM      8  C   UNL     1       4.523   3.703  19.335  0.00  0.00    +0.000 A 
ATOM      9  C   UNL     1       3.489   4.503  19.825  0.00  0.00    +0.000 A 
ATOM     10  C   UNL     1       3.222   5.744  19.235  0.00  0.00    +0.000 A 
ATOM     11  C   UNL     1       2.179   6.545  19.724  0.00  0.00    +0.000 A 
ATOM     12  N   UNL     1       1.909   7.744  19.148  0.00  0.00    +0.000 NA
ATOM     13  C   UNL     1       2.626   8.204  18.092  0.00  0.00    +0.000 A 
ATOM     14  C   UNL     1       3.676   7.447  17.567  0.00  0.00    +0.000 A 
ATOM     15  C   UNL     1       3.996   6.196  18.135  0.00  0.00    +0.000 A 
ENDBRANCH   3   6
ENDBRANCH   1   3
BRANCH   1  16
ATOM     16  C   UNL     1       7.303   7.339  18.052  0.00  0.00    +0.000 C 
BRANCH  16  17
ATOM     17  C   UNL     1       8.600   8.057  18.432  0.00  0.00    +0.000 C 
BRANCH  17  18
ATOM     18  C   UNL     1       8.464   9.573  18.263  0.00  0.00    +0.000 C 
BRANCH  18  19
ATOM     19  C   UNL     1       9.352  10.310  19.270  0.00  0.00    +0.000 C 
BRANCH  19  20
ATOM     20  C   UNL     1       9.251  11.821  19.105  0.00  0.00    +0.000 C 
BRANCH  20  21
ATOM     21  C   UNL     1       9.150  12.177  17.619  0.00  0.00    +0.000 C 
BRANCH  21  25
ATOM     22  N   UNL     1      11.911  12.170  17.042  0.00  0.00    +0.000 NA
ATOM     23  C   UNL     1      11.319  13.298  17.047  0.00  0.00    +0.000 C 
ATOM     24  N   UNL     1      12.060  14.498  16.799  0.00  0.00    +0.000 N 
ATOM     25  N   UNL     1       9.919  13.375  17.321  0.00  0.00    +0.000 N 
ATOM     26  H   UNL     1      12.924  12.088  16.855  0.00  0.00    +0.000 HD
ATOM     27  H   UNL     1      13.080  14.447  16.645  0.00  0.00    +0.000 HD
ATOM     28  H   UNL     1      11.611  15.421  16.798  0.00  0.00    +0.000 HD
ATOM     29  H   UNL     1       9.455  14.290  17.325  0.00  0.00    +0.000 HD
ENDBRANCH  21  25
ENDBRANCH  20  21
ENDBRANCH  19  20
ENDBRANCH  18  19
ENDBRANCH  17  18
ENDBRANCH  16  17
ENDBRANCH   1  16
TORSDOF 9
ENDMDL
MODEL 8
REMARK VINA RESULT:      -7.0      2.627      3.263
REMARK  Name = 
REMARK  9 active torsions:
REMARK  status: ('A' for Active; 'I' for Inactive)
REMARK    1  A    between atoms: N_4  and  C_5
REMARK    2  A    between atoms: C_5  and  C_6
REMARK    3  A    between atoms: C_6  and  C_7
REMARK    4  A    between atoms: C_7  and  C_8
REMARK    5  A    between atoms: C_8  and  C_9
REMARK    6  A    between atoms: C_9  and  C_10
REMARK    7  A    between atoms: C_10  and  N_11
REMARK    8  A    between atoms: N_11  and  S_12
REMARK    9  A    between atoms: S_12  and  C_15
REMARK                            x       y       z     vdW  Elec       q    Type
REMARK                         _______ _______ _______ _____ _____    ______ ____
ROOT
ATOM      1  N   UNL     1       7.918   7.192  18.470  0.00  0.00    +0.000 NA
ATOM      2  H   UNL     1       7.289   7.613  19.191  0.00  0.00    +0.000 HD
ENDROOT
BRANCH   1   3
ATOM      3  S   UNL     1       7.039   5.860  17.713  0.00  0.00    +0.000 S 
ATOM      4  O   UNL     1       7.436   5.933  16.232  0.00  0.00    +0.000 OA
ATOM      5  O   UNL     1       7.724   4.560  18.170  0.00  0.00    +0.000 OA
BRANCH   3   6
ATOM      6  C   UNL     1       5.254   5.932  17.932  0.00  0.00    +0.000 A 
ATOM      7  C   UNL     1       4.607   7.079  17.463  0.00  0.00    +0.000 A 
ATOM      8  C   UNL     1       3.233   7.229  17.601  0.00  0.00    +0.000 A 
ATOM      9  C   UNL     1       2.472   6.227  18.205  0.00  0.00    +0.000 A 
ATOM     10  C   UNL     1       3.092   5.064  18.678  0.00  0.00    +0.000 A 
ATOM     11  C   UNL     1       2.328   4.059  19.291  0.00  0.00    +0.000 A 
ATOM     12  N   UNL     1       2.927   2.936  19.762  0.00  0.00    +0.000 NA
ATOM     13  C   UNL     1       4.266   2.747  19.660  0.00  0.00    +0.000 A 
ATOM     14  C   UNL     1       5.073   3.715  19.057  0.00  0.00    +0.000 A 
ATOM     15  C   UNL     1       4.495   4.898  18.550  0.00  0.00    +0.000 A 
ENDBRANCH   3   6
ENDBRANCH   1   3
BRANCH   1  16
ATOM     16  C   UNL     1       8.245   8.206  17.478  0.00  0.00    +0.000 C 
BRANCH  16  17
ATOM     17  C   UNL     1       8.002   9.597  18.069  0.00  0.00    +0.000 C 
BRANCH  17  18
ATOM     18  C   UNL     1       9.114   9.987  19.046  0.00  0.00    +0.000 C 
BRANCH  18  19
ATOM     19  C   UNL     1      10.013  11.065  18.436  0.00  0.00    +0.000 C 
BRANCH  19  20
ATOM     20  C   UNL     1       9.198  12.228  17.885  0.00  0.00    +0.000 C 
BRANCH  20  21
ATOM     21  C   UNL     1      10.134  13.280  17.282  0.00  0.00    +0.000 C 
BRANCH  21  25
ATOM     22  N   UNL     1      10.994  15.680  16.075  0.00  0.00    +0.000 NA
ATOM     23  C   UNL     1      10.304  15.779  17.141  0.00  0.00    +0.000 C 
ATOM     24  N   UNL     1      10.021  17.067  17.696  0.00  0.00    +0.000 N 
ATOM     25  N   UNL     1       9.825  14.604  17.800  0.00  0.00    +0.000 N 
ATOM     26  H   UNL     1      11.358  16.513  15.583  0.00  0.00    +0.000 HD
ATOM     27  H   UNL     1      10.403  17.914  17.245  0.00  0.00    +0.000 HD
ATOM     28  H   UNL     1       9.468  17.178  18.554  0.00  0.00    +0.000 HD
ATOM     29  H   UNL     1       9.273  14.697  18.659  0.00  0.00    +0.000 HD
ENDBRANCH  21  25
ENDBRANCH  20  21
ENDBRANCH  19  20
ENDBRANCH  18  19
ENDBRANCH  17  18
ENDBRANCH  16  17
ENDBRANCH   1  16
TORSDOF 9
ENDMDL
MODEL 9
REMARK VINA RESULT:      -7.0      2.518      3.168
REMARK  Name = 
REMARK  9 active torsions:
REMARK  status: ('A' for Active; 'I' for Inactive)
REMARK    1  A    between atoms: N_4  and  C_5
REMARK    2  A    between atoms: C_5  and  C_6
REMARK    3  A    between atoms: C_6  and  C_7
REMARK    4  A    between atoms: C_7  and  C_8
REMARK    5  A    between atoms: C_8  and  C_9
REMARK    6  A    between atoms: C_9  and  C_10
REMARK    7  A    between atoms: C_10  and  N_11
REMARK    8  A    between atoms: N_11  and  S_12
REMARK    9  A    between atoms: S_12  and  C_15
REMARK                            x       y       z     vdW  Elec       q    Type
REMARK                         _______ _______ _______ _____ _____    ______ ____
ROOT
ATOM      1  N   UNL     1       8.010   7.219  18.234  0.00  0.00    +0.000 NA
ATOM      2  H   UNL     1       7.883   7.163  19.271  0.00  0.00    +0.000 HD
ENDROOT
BRANCH   1   3
ATOM      3  S   UNL     1       7.077   5.901  17.516  0.00  0.00    +0.000 S 
ATOM      4  O   UNL     1       7.409   5.970  16.019  0.00  0.00    +0.000 OA
ATOM      5  O   UNL     1       7.761   4.590  17.941  0.00  0.00    +0.000 OA
BRANCH   3   6
ATOM      6  C   UNL     1       5.305   6.001  17.814  0.00  0.00    +0.000 A 
ATOM      7  C   UNL     1       4.648   7.139  17.336  0.00  0.00    +0.000 A 
ATOM      8  C   UNL     1       3.283   7.309  17.532  0.00  0.00    +0.000 A 
ATOM      9  C   UNL     1       2.542   6.336  18.204  0.00  0.00    +0.000 A 
ATOM     10  C   UNL     1       3.171   5.183  18.688  0.00  0.00    +0.000 A 
ATOM     11  C   UNL     1       2.427   4.208  19.369  0.00  0.00    +0.000 A 
ATOM     12  N   UNL     1       3.036   3.094  19.849  0.00  0.00    +0.000 NA
ATOM     13  C   UNL     1       4.367   2.887  19.693  0.00  0.00    +0.000 A 
ATOM     14  C   UNL     1       5.155   3.825  19.021  0.00  0.00    +0.000 A 
ATOM     15  C   UNL     1       4.566   4.997  18.501  0.00  0.00    +0.000 A 
ENDBRANCH   3   6
ENDBRANCH   1   3
BRANCH   1  16
ATOM     16  C   UNL     1       7.509   8.503  17.765  0.00  0.00    +0.000 C 
BRANCH  16  17
ATOM     17  C   UNL     1       8.650   9.522  17.748  0.00  0.00    +0.000 C 
BRANCH  17  18
ATOM     18  C   UNL     1       9.173   9.793  19.162  0.00  0.00    +0.000 C 
BRANCH  18  19
ATOM     19  C   UNL     1       9.735  11.213  19.266  0.00  0.00    +0.000 C 
BRANCH  19  20
ATOM     20  C   UNL     1      10.646  11.543  18.091  0.00  0.00    +0.000 C 
BRANCH  20  21
ATOM     21  C   UNL     1      11.443  12.815  18.391  0.00  0.00    +0.000 C 
BRANCH  21  25
ATOM     22  N   UNL     1      10.089  15.279  18.162  0.00  0.00    +0.000 NA
ATOM     23  C   UNL     1      10.789  14.905  17.166  0.00  0.00    +0.000 C 
ATOM     24  N   UNL     1      10.840  15.707  15.982  0.00  0.00    +0.000 N 
ATOM     25  N   UNL     1      11.511  13.672  17.217  0.00  0.00    +0.000 N 
ATOM     26  H   UNL     1       9.551  16.162  18.148  0.00  0.00    +0.000 HD
ATOM     27  H   UNL     1      10.284  16.576  15.929  0.00  0.00    +0.000 HD
ATOM     28  H   UNL     1      11.394  15.431  15.164  0.00  0.00    +0.000 HD
ATOM     29  H   UNL     1      12.068  13.380  16.407  0.00  0.00    +0.000 HD
ENDBRANCH  21  25
ENDBRANCH  20  21
ENDBRANCH  19  20
ENDBRANCH  18  19
ENDBRANCH  17  18
ENDBRANCH  16  17
ENDBRANCH   1  16
TORSDOF 9
ENDMDL
