MODEL 1
REMARK VINA RESULT:      -8.1      0.000      0.000
REMARK  Name = 
REMARK  5 active torsions:
REMARK  status: ('A' for Active; 'I' for Inactive)
REMARK    1  A    between atoms: C_1  and  N_2
REMARK    2  A    between atoms: C_3  and  C_5
REMARK    3  A    between atoms: C_9  and  N_10
REMARK    4  A    between atoms: C_18  and  O_19
REMARK    5  A    between atoms: O_19  and  C_20
REMARK                            x       y       z     vdW  Elec       q    Type
REMARK                         _______ _______ _______ _____ _____    ______ ____
ROOT
ATOM      1  N   UNL     1       1.691   6.950  20.556  0.00  0.00    +0.000 N 
ATOM      2  C   UNL     1       1.517   8.167  19.895  0.00  0.00    +0.000 A 
ATOM      3  N   UNL     1       1.724   8.293  18.588  0.00  0.00    +0.000 NA
ATOM      4  C   UNL     1       1.563   9.517  18.110  0.00  0.00    +0.000 A 
ATOM      5  N   UNL     1       1.242  10.591  18.813  0.00  0.00    +0.000 NA
ATOM      6  C   UNL     1       1.047  10.372  20.110  0.00  0.00    +0.000 A 
ATOM      7  N   UNL     1       0.701  11.460  20.923  0.00  0.00    +0.000 N 
ATOM      8  C   UNL     1      -0.050  11.341  22.136  0.00  0.00    +0.000 C 
ATOM      9  C   UNL     1      -0.986  12.444  21.637  0.00  0.00    +0.000 C 
ATOM     10  C   UNL     1      -0.023  12.599  20.452  0.00  0.00    +0.000 C 
ATOM     11  N   UNL     1       1.174   9.178  20.684  0.00  0.00    +0.000 NA
ATOM     12  H   UNL     1       1.567   7.110  21.547  0.00  0.00    +0.000 HD
ENDROOT
BRANCH   1  17
ATOM     13  C   UNL     1       4.420   4.689  19.367  0.00  0.00    +0.000 A 
ATOM     14  C   UNL     1       3.827   3.443  19.583  0.00  0.00    +0.000 A 
ATOM     15  C   UNL     1       2.532   3.371  20.093  0.00  0.00    +0.000 A 
ATOM     16  C   UNL     1       1.836   4.545  20.394  0.00  0.00    +0.000 A 
ATOM     17  C   UNL     1       2.419   5.806  20.199  0.00  0.00    +0.000 A 
ATOM     18  C   UNL     1       3.704   5.859  19.649  0.00  0.00    +0.000 A 
BRANCH  13  21
ATOM     19  C   UNL     1       7.231   4.404  16.848  0.00  0.00    +0.000 C 
ATOM     20  N   UNL     1       5.936   4.399  17.477  0.00  0.00    +0.000 N 
ATOM     21  C   UNL     1       5.796   4.742  18.807  0.00  0.00    +0.000 C 
ATOM     22  O   UNL     1       6.736   5.099  19.513  0.00  0.00    +0.000 OA
ATOM     23  H   UNL     1       5.118   4.241  16.908  0.00  0.00    +0.000 HD
ENDBRANCH  13  21
ENDBRANCH   1  17
BRANCH   9  24
ATOM     24  O   UNL     1      -2.338  12.029  21.318  0.00  0.00    +0.000 OA
BRANCH  24  25
ATOM     25  C   UNL     1      -3.352  12.374  22.183  0.00  0.00    +0.000 A 
ATOM     26  C   UNL     1      -3.211  12.348  23.574  0.00  0.00    +0.000 A 
ATOM     27  C   UNL     1      -4.294  12.645  24.401  0.00  0.00    +0.000 A 
ATOM     28  C   UNL     1      -5.525  12.985  23.846  0.00  0.00    +0.000 A 
ATOM     29  C   UNL     1      -5.667  13.052  22.460  0.00  0.00    +0.000 A 
ATOM     30  C   UNL     1      -4.583  12.753  21.630  0.00  0.00    +0.000 A 
ATOM     31 CL   UNL     1      -4.813  12.858  19.920  0.00  0.00    +0.000 Cl
ENDBRANCH  24  25
ENDBRANCH   9  24
TORSDOF 4
ENDMDL
MODEL 2
REMARK VINA RESULT:      -8.0      3.297      5.023
REMARK  Name = 
REMARK  5 active torsions:
REMARK  status: ('A' for Active; 'I' for Inactive)
REMARK    1  A    between atoms: C_1  and  N_2
REMARK    2  A    between atoms: C_3  and  C_5
REMARK    3  A    between atoms: C_9  and  N_10
REMARK    4  A    between atoms: C_18  and  O_19
REMARK    5  A    between atoms: O_19  and  C_20
REMARK                            x       y       z     vdW  Elec       q    Type
REMARK                         _______ _______ _______ _____ _____    ______ ____
ROOT
ATOM      1  N   UNL     1       2.528   8.286  17.924  0.00  0.00    +0.000 N 
ATOM      2  C   UNL     1       1.745   8.729  18.992  0.00  0.00    +0.000 A 
ATOM      3  N   UNL     1       1.800   8.154  20.189  0.00  0.00    +0.000 NA
ATOM      4  C   UNL     1       0.967   8.653  21.089  0.00  0.00    +0.000 A 
ATOM      5  N   UNL     1       0.102   9.634  20.890  0.00  0.00    +0.000 NA
ATOM      6  C   UNL     1       0.121  10.156  19.667  0.00  0.00    +0.000 A 
ATOM      7  N   UNL     1      -0.765  11.203  19.377  0.00  0.00    +0.000 N 
ATOM      8  C   UNL     1      -0.522  12.199  18.379  0.00  0.00    +0.000 C 
ATOM      9  C   UNL     1      -0.844  13.281  19.411  0.00  0.00    +0.000 C 
ATOM     10  C   UNL     1      -1.234  12.134  20.354  0.00  0.00    +0.000 C 
ATOM     11  N   UNL     1       0.927   9.732  18.696  0.00  0.00    +0.000 NA
ATOM     12  H   UNL     1       2.258   8.807  17.100  0.00  0.00    +0.000 HD
ENDROOT
BRANCH   1  17
ATOM     13  C   UNL     1       3.232   4.622  17.707  0.00  0.00    +0.000 A 
ATOM     14  C   UNL     1       4.510   4.645  17.144  0.00  0.00    +0.000 A 
ATOM     15  C   UNL     1       5.126   5.864  16.869  0.00  0.00    +0.000 A 
ATOM     16  C   UNL     1       4.458   7.059  17.150  0.00  0.00    +0.000 A 
ATOM     17  C   UNL     1       3.167   7.059  17.700  0.00  0.00    +0.000 A 
ATOM     18  C   UNL     1       2.583   5.826  18.006  0.00  0.00    +0.000 A 
BRANCH  13  21
ATOM     19  C   UNL     1       0.636   2.122  18.862  0.00  0.00    +0.000 C 
ATOM     20  N   UNL     1       1.324   3.341  18.525  0.00  0.00    +0.000 N 
ATOM     21  C   UNL     1       2.602   3.309  18.006  0.00  0.00    +0.000 C 
ATOM     22  O   UNL     1       3.208   2.267  17.769  0.00  0.00    +0.000 OA
ATOM     23  H   UNL     1       0.822   4.214  18.577  0.00  0.00    +0.000 HD
ENDBRANCH  13  21
ENDBRANCH   1  17
BRANCH   9  24
ATOM     24  O   UNL     1       0.271  14.108  19.829  0.00  0.00    +0.000 OA
BRANCH  24  25
ATOM     25  C   UNL     1       0.482  15.302  19.178  0.00  0.00    +0.000 A 
ATOM     26  C   UNL     1      -0.553  16.179  18.837  0.00  0.00    +0.000 A 
ATOM     27  C   UNL     1      -0.285  17.344  18.118  0.00  0.00    +0.000 A 
ATOM     28  C   UNL     1       1.022  17.651  17.746  0.00  0.00    +0.000 A 
ATOM     29  C   UNL     1       2.066  16.803  18.114  0.00  0.00    +0.000 A 
ATOM     30  C   UNL     1       1.799  15.635  18.833  0.00  0.00    +0.000 A 
ATOM     31 CL   UNL     1       3.132  14.624  19.269  0.00  0.00    +0.000 Cl
ENDBRANCH  24  25
ENDBRANCH   9  24
TORSDOF 4
ENDMDL
MODEL 3
REMARK VINA RESULT:      -8.0      7.126     10.122
REMARK  Name = 
REMARK  5 active torsions:
REMARK  status: ('A' for Active; 'I' for Inactive)
REMARK    1  A    between atoms: C_1  and  N_2
REMARK    2  A    between atoms: C_3  and  C_5
REMARK    3  A    between atoms: C_9  and  N_10
REMARK    4  A    between atoms: C_18  and  O_19
REMARK    5  A    between atoms: O_19  and  C_20
REMARK                            x       y       z     vdW  Elec       q    Type
REMARK                         _______ _______ _______ _____ _____    ______ ____
ROOT
ATOM      1  N   UNL     1       8.095   9.794  18.008  0.00  0.00    +0.000 N 
ATOM      2  C   UNL     1       7.987   8.418  18.217  0.00  0.00    +0.000 A 
ATOM      3  N   UNL     1       8.676   7.796  19.168  0.00  0.00    +0.000 NA
ATOM      4  C   UNL     1       8.505   6.484  19.217  0.00  0.00    +0.000 A 
ATOM      5  N   UNL     1       7.741   5.768  18.409  0.00  0.00    +0.000 NA
ATOM      6  C   UNL     1       7.082   6.472  17.492  0.00  0.00    +0.000 A 
ATOM      7  N   UNL     1       6.249   5.786  16.598  0.00  0.00    +0.000 N 
ATOM      8  C   UNL     1       5.108   6.372  15.963  0.00  0.00    +0.000 C 
ATOM      9  C   UNL     1       4.270   5.173  16.413  0.00  0.00    +0.000 C 
ATOM     10  C   UNL     1       5.584   4.562  16.919  0.00  0.00    +0.000 C 
ATOM     11  N   UNL     1       7.179   7.794  17.368  0.00  0.00    +0.000 NA
ATOM     12  H   UNL     1       7.556  10.030  17.185  0.00  0.00    +0.000 HD
ENDROOT
BRANCH   1  17
ATOM     13  C   UNL     1      10.506  12.650  17.960  0.00  0.00    +0.000 A 
ATOM     14  C   UNL     1      11.069  12.524  19.233  0.00  0.00    +0.000 A 
ATOM     15  C   UNL     1      10.662  11.489  20.073  0.00  0.00    +0.000 A 
ATOM     16  C   UNL     1       9.687  10.586  19.641  0.00  0.00    +0.000 A 
ATOM     17  C   UNL     1       9.097  10.703  18.374  0.00  0.00    +0.000 A 
ATOM     18  C   UNL     1       9.548  11.724  17.530  0.00  0.00    +0.000 A 
BRANCH  13  21
ATOM     19  C   UNL     1      10.934  16.157  16.604  0.00  0.00    +0.000 C 
ATOM     20  N   UNL     1      10.552  15.026  17.408  0.00  0.00    +0.000 N 
ATOM     21  C   UNL     1      10.968  13.752  17.076  0.00  0.00    +0.000 C 
ATOM     22  O   UNL     1      11.700  13.509  16.120  0.00  0.00    +0.000 OA
ATOM     23  H   UNL     1      10.062  15.187  18.275  0.00  0.00    +0.000 HD
ENDBRANCH  13  21
ENDBRANCH   1  17
BRANCH   9  24
ATOM     24  O   UNL     1       3.260   5.448  17.415  0.00  0.00    +0.000 OA
BRANCH  24  25
ATOM     25  C   UNL     1       2.635   4.385  18.026  0.00  0.00    +0.000 A 
ATOM     26  C   UNL     1       2.572   3.108  17.459  0.00  0.00    +0.000 A 
ATOM     27  C   UNL     1       1.867   2.086  18.094  0.00  0.00    +0.000 A 
ATOM     28  C   UNL     1       1.231   2.325  19.310  0.00  0.00    +0.000 A 
ATOM     29  C   UNL     1       1.320   3.584  19.903  0.00  0.00    +0.000 A 
ATOM     30  C   UNL     1       2.025   4.610  19.267  0.00  0.00    +0.000 A 
ATOM     31 CL   UNL     1       2.108   6.149  20.051  0.00  0.00    +0.000 Cl
ENDBRANCH  24  25
ENDBRANCH   9  24
TORSDOF 4
ENDMDL
MODEL 4
REMARK VINA RESULT:      -7.9      6.922     10.186
REMARK  Name = 
REMARK  5 active torsions:
REMARK  status: ('A' for Active; 'I' for Inactive)
REMARK    1  A    between atoms: C_1  and  N_2
REMARK    2  A    between atoms: C_3  and  C_5
REMARK    3  A    between atoms: C_9  and  N_10
REMARK    4  A    between atoms: C_18  and  O_19
REMARK    5  A    between atoms: O_19  and  C_20
REMARK                            x       y       z     vdW  Elec       q    Type
REMARK                         _______ _______ _______ _____ _____    ______ ____
ROOT
ATOM      1  N   UNL     1       7.983  10.252  17.524  0.00  0.00    +0.000 N 
ATOM      2  C   UNL     1       7.951   8.920  17.943  0.00  0.00    +0.000 A 
ATOM      3  N   UNL     1       8.680   8.489  18.967  0.00  0.00    +0.000 NA
ATOM      4  C   UNL     1       8.580   7.193  19.220  0.00  0.00    +0.000 A 
ATOM      5  N   UNL     1       7.849   6.322  18.544  0.00  0.00    +0.000 NA
ATOM      6  C   UNL     1       7.146   6.842  17.541  0.00  0.00    +0.000 A 
ATOM      7  N   UNL     1       6.343   5.984  16.777  0.00  0.00    +0.000 N 
ATOM      8  C   UNL     1       5.167   6.405  16.079  0.00  0.00    +0.000 C 
ATOM      9  C   UNL     1       4.398   5.248  16.721  0.00  0.00    +0.000 C 
ATOM     10  C   UNL     1       5.747   4.792  17.293  0.00  0.00    +0.000 C 
ATOM     11  N   UNL     1       7.170   8.132  17.214  0.00  0.00    +0.000 NA
ATOM     12  H   UNL     1       7.426  10.330  16.684  0.00  0.00    +0.000 HD
ENDROOT
BRANCH   1  17
ATOM     13  C   UNL     1       9.605  13.590  17.966  0.00  0.00    +0.000 A 
ATOM     14  C   UNL     1      10.921  13.198  18.224  0.00  0.00    +0.000 A 
ATOM     15  C   UNL     1      11.254  11.845  18.223  0.00  0.00    +0.000 A 
ATOM     16  C   UNL     1      10.269  10.886  17.973  0.00  0.00    +0.000 A 
ATOM     17  C   UNL     1       8.939  11.257  17.728  0.00  0.00    +0.000 A 
ATOM     18  C   UNL     1       8.632  12.621  17.693  0.00  0.00    +0.000 A 
BRANCH  13  21
ATOM     19  C   UNL     1      10.114  17.334  17.749  0.00  0.00    +0.000 C 
ATOM     20  N   UNL     1      10.329  15.911  17.760  0.00  0.00    +0.000 N 
ATOM     21  C   UNL     1       9.277  15.040  17.956  0.00  0.00    +0.000 C 
ATOM     22  O   UNL     1       8.113  15.409  18.095  0.00  0.00    +0.000 OA
ATOM     23  H   UNL     1      11.242  15.554  17.520  0.00  0.00    +0.000 HD
ENDBRANCH  13  21
ENDBRANCH   1  17
BRANCH   9  24
ATOM     24  O   UNL     1       3.383   5.623  17.687  0.00  0.00    +0.000 OA
BRANCH  24  25
ATOM     25  C   UNL     1       2.613   4.629  18.247  0.00  0.00    +0.000 A 
ATOM     26  C   UNL     1       2.459   3.365  17.670  0.00  0.00    +0.000 A 
ATOM     27  C   UNL     1       1.611   2.420  18.248  0.00  0.00    +0.000 A 
ATOM     28  C   UNL     1       0.921   2.725  19.419  0.00  0.00    +0.000 A 
ATOM     29  C   UNL     1       1.096   3.969  20.025  0.00  0.00    +0.000 A 
ATOM     30  C   UNL     1       1.944   4.917  19.445  0.00  0.00    +0.000 A 
ATOM     31 CL   UNL     1       2.129   6.441  20.241  0.00  0.00    +0.000 Cl
ENDBRANCH  24  25
ENDBRANCH   9  24
TORSDOF 4
ENDMDL
MODEL 5
REMARK VINA RESULT:      -7.8      3.118      4.669
REMARK  Name = 
REMARK  5 active torsions:
REMARK  status: ('A' for Active; 'I' for Inactive)
REMARK    1  A    between atoms: C_1  and  N_2
REMARK    2  A    between atoms: C_3  and  C_5
REMARK    3  A    between atoms: C_9  and  N_10
REMARK    4  A    between atoms: C_18  and  O_19
REMARK    5  A    between atoms: O_19  and  C_20
REMARK                            x       y       z     vdW  Elec       q    Type
REMARK                         _______ _______ _______ _____ _____    ______ ____
ROOT
ATOM      1  N   UNL     1       1.780   8.139  19.591  0.00  0.00    +0.000 N 
ATOM      2  C   UNL     1       1.108   8.999  20.461  0.00  0.00    +0.000 A 
ATOM      3  N   UNL     1       1.113   8.813  21.776  0.00  0.00    +0.000 NA
ATOM      4  C   UNL     1       0.395   9.683  22.469  0.00  0.00    +0.000 A 
ATOM      5  N   UNL     1      -0.318  10.678  21.967  0.00  0.00    +0.000 NA
ATOM      6  C   UNL     1      -0.260  10.795  20.644  0.00  0.00    +0.000 A 
ATOM      7  N   UNL     1      -0.987  11.828  20.035  0.00  0.00    +0.000 N 
ATOM      8  C   UNL     1      -0.628  12.424  18.784  0.00  0.00    +0.000 C 
ATOM      9  C   UNL     1      -0.751  13.805  19.434  0.00  0.00    +0.000 C 
ATOM     10  C   UNL     1      -1.278  13.072  20.674  0.00  0.00    +0.000 C 
ATOM     11  N   UNL     1       0.441   9.978  19.861  0.00  0.00    +0.000 NA
ATOM     12  H   UNL     1       1.566   8.420  18.643  0.00  0.00    +0.000 HD
ENDROOT
BRANCH   1  17
ATOM     13  C   UNL     1       3.819   5.011  19.418  0.00  0.00    +0.000 A 
ATOM     14  C   UNL     1       3.053   4.167  20.225  0.00  0.00    +0.000 A 
ATOM     15  C   UNL     1       1.869   4.635  20.792  0.00  0.00    +0.000 A 
ATOM     16  C   UNL     1       1.457   5.949  20.556  0.00  0.00    +0.000 A 
ATOM     17  C   UNL     1       2.220   6.819  19.761  0.00  0.00    +0.000 A 
ATOM     18  C   UNL     1       3.384   6.318  19.169  0.00  0.00    +0.000 A 
BRANCH  13  21
ATOM     19  C   UNL     1       6.710   4.670  17.000  0.00  0.00    +0.000 C 
ATOM     20  N   UNL     1       5.517   5.117  17.669  0.00  0.00    +0.000 N 
ATOM     21  C   UNL     1       5.070   4.484  18.811  0.00  0.00    +0.000 C 
ATOM     22  O   UNL     1       5.663   3.547  19.339  0.00  0.00    +0.000 OA
ATOM     23  H   UNL     1       5.067   5.963  17.351  0.00  0.00    +0.000 HD
ENDBRANCH  13  21
ENDBRANCH   1  17
BRANCH   9  24
ATOM     24  O   UNL     1       0.489  14.538  19.597  0.00  0.00    +0.000 OA
BRANCH  24  25
ATOM     25  C   UNL     1       0.664  15.698  18.878  0.00  0.00    +0.000 A 
ATOM     26  C   UNL     1      -0.392  16.542  18.521  0.00  0.00    +0.000 A 
ATOM     27  C   UNL     1      -0.162  17.671  17.734  0.00  0.00    +0.000 A 
ATOM     28  C   UNL     1       1.129  17.975  17.310  0.00  0.00    +0.000 A 
ATOM     29  C   UNL     1       2.196  17.163  17.693  0.00  0.00    +0.000 A 
ATOM     30  C   UNL     1       1.966  16.030  18.479  0.00  0.00    +0.000 A 
ATOM     31 CL   UNL     1       3.326  15.061  18.929  0.00  0.00    +0.000 Cl
ENDBRANCH  24  25
ENDBRANCH   9  24
TORSDOF 4
ENDMDL
MODEL 6
REMARK VINA RESULT:      -7.8      3.138      4.608
REMARK  Name = 
REMARK  5 active torsions:
REMARK  status: ('A' for Active; 'I' for Inactive)
REMARK    1  A    between atoms: C_1  and  N_2
REMARK    2  A    between atoms: C_3  and  C_5
REMARK    3  A    between atoms: C_9  and  N_10
REMARK    4  A    between atoms: C_18  and  O_19
REMARK    5  A    between atoms: O_19  and  C_20
REMARK                            x       y       z     vdW  Elec       q    Type
REMARK                         _______ _______ _______ _____ _____    ______ ____
ROOT
ATOM      1  N   UNL     1       2.322   7.955  18.129  0.00  0.00    +0.000 N 
ATOM      2  C   UNL     1       1.683   8.545  19.222  0.00  0.00    +0.000 A 
ATOM      3  N   UNL     1       1.831   8.079  20.457  0.00  0.00    +0.000 NA
ATOM      4  C   UNL     1       1.129   8.712  21.384  0.00  0.00    +0.000 A 
ATOM      5  N   UNL     1       0.304   9.726  21.178  0.00  0.00    +0.000 NA
ATOM      6  C   UNL     1       0.223  10.132  19.914  0.00  0.00    +0.000 A 
ATOM      7  N   UNL     1      -0.628  11.204  19.613  0.00  0.00    +0.000 N 
ATOM      8  C   UNL     1      -0.436  12.087  18.503  0.00  0.00    +0.000 C 
ATOM      9  C   UNL     1      -0.586  13.278  19.453  0.00  0.00    +0.000 C 
ATOM     10  C   UNL     1      -0.937  12.250  20.537  0.00  0.00    +0.000 C 
ATOM     11  N   UNL     1       0.896   9.568  18.913  0.00  0.00    +0.000 NA
ATOM     12  H   UNL     1       1.996   8.415  17.290  0.00  0.00    +0.000 HD
ENDROOT
BRANCH   1  17
ATOM     13  C   UNL     1       4.598   5.141  17.196  0.00  0.00    +0.000 A 
ATOM     14  C   UNL     1       3.902   4.062  17.746  0.00  0.00    +0.000 A 
ATOM     15  C   UNL     1       2.686   4.278  18.392  0.00  0.00    +0.000 A 
ATOM     16  C   UNL     1       2.173   5.573  18.494  0.00  0.00    +0.000 A 
ATOM     17  C   UNL     1       2.863   6.673  17.963  0.00  0.00    +0.000 A 
ATOM     18  C   UNL     1       4.062   6.432  17.284  0.00  0.00    +0.000 A 
BRANCH  13  21
ATOM     19  C   UNL     1       7.078   4.787  14.359  0.00  0.00    +0.000 C 
ATOM     20  N   UNL     1       5.884   5.029  15.126  0.00  0.00    +0.000 N 
ATOM     21  C   UNL     1       5.886   4.885  16.498  0.00  0.00    +0.000 C 
ATOM     22  O   UNL     1       6.887   4.586  17.143  0.00  0.00    +0.000 OA
ATOM     23  H   UNL     1       5.072   5.403  14.658  0.00  0.00    +0.000 HD
ENDBRANCH  13  21
ENDBRANCH   1  17
BRANCH   9  24
ATOM     24  O   UNL     1       0.612  14.063  19.674  0.00  0.00    +0.000 OA
BRANCH  24  25
ATOM     25  C   UNL     1       0.709  15.296  19.070  0.00  0.00    +0.000 A 
ATOM     26  C   UNL     1      -0.403  16.092  18.775  0.00  0.00    +0.000 A 
ATOM     27  C   UNL     1      -0.248  17.303  18.101  0.00  0.00    +0.000 A 
ATOM     28  C   UNL     1       1.021  17.738  17.728  0.00  0.00    +0.000 A 
ATOM     29  C   UNL     1       2.141  16.972  18.051  0.00  0.00    +0.000 A 
ATOM     30  C   UNL     1       1.987  15.757  18.725  0.00  0.00    +0.000 A 
ATOM     31 CL   UNL     1       3.409  14.850  19.105  0.00  0.00    +0.000 Cl
ENDBRANCH  24  25
ENDBRANCH   9  24
TORSDOF 4
ENDMDL
MODEL 7
REMARK VINA RESULT:      -7.7      3.522      5.303
REMARK  Name = 
REMARK  5 active torsions:
REMARK  status: ('A' for Active; 'I' for Inactive)
REMARK    1  A    between atoms: C_1  and  N_2
REMARK    2  A    between atoms: C_3  and  C_5
REMARK    3  A    between atoms: C_9  and  N_10
REMARK    4  A    between atoms: C_18  and  O_19
REMARK    5  A    between atoms: O_19  and  C_20
REMARK                            x       y       z     vdW  Elec       q    Type
REMARK                         _______ _______ _______ _____ _____    ______ ____
ROOT
ATOM      1  N   UNL     1       2.008   8.662  18.380  0.00  0.00    +0.000 N 
ATOM      2  C   UNL     1       1.290   9.301  19.392  0.00  0.00    +0.000 A 
ATOM      3  N   UNL     1       1.333   8.886  20.654  0.00  0.00    +0.000 NA
ATOM      4  C   UNL     1       0.565   9.563  21.493  0.00  0.00    +0.000 A 
ATOM      5  N   UNL     1      -0.229  10.574  21.180  0.00  0.00    +0.000 NA
ATOM      6  C   UNL     1      -0.204  10.927  19.898  0.00  0.00    +0.000 A 
ATOM      7  N   UNL     1      -1.017  11.992  19.486  0.00  0.00    +0.000 N 
ATOM      8  C   UNL     1      -0.726  12.826  18.359  0.00  0.00    +0.000 C 
ATOM      9  C   UNL     1      -0.939  14.056  19.244  0.00  0.00    +0.000 C 
ATOM     10  C   UNL     1      -1.387  13.078  20.338  0.00  0.00    +0.000 C 
ATOM     11  N   UNL     1       0.541  10.317  18.979  0.00  0.00    +0.000 NA
ATOM     12  H   UNL     1       1.756   9.088  17.498  0.00  0.00    +0.000 HD
ENDROOT
BRANCH   1  17
ATOM     13  C   UNL     1       2.515   4.983  18.811  0.00  0.00    +0.000 A 
ATOM     14  C   UNL     1       3.671   4.798  18.049  0.00  0.00    +0.000 A 
ATOM     15  C   UNL     1       4.275   5.890  17.429  0.00  0.00    +0.000 A 
ATOM     16  C   UNL     1       3.717   7.164  17.564  0.00  0.00    +0.000 A 
ATOM     17  C   UNL     1       2.547   7.370  18.311  0.00  0.00    +0.000 A 
ATOM     18  C   UNL     1       1.978   6.268  18.959  0.00  0.00    +0.000 A 
BRANCH  13  21
ATOM     19  C   UNL     1       1.590   2.552  21.560  0.00  0.00    +0.000 C 
ATOM     20  N   UNL     1       2.132   3.667  20.829  0.00  0.00    +0.000 N 
ATOM     21  C   UNL     1       1.897   3.807  19.477  0.00  0.00    +0.000 C 
ATOM     22  O   UNL     1       1.198   3.030  18.830  0.00  0.00    +0.000 OA
ATOM     23  H   UNL     1       2.601   4.402  21.338  0.00  0.00    +0.000 HD
ENDBRANCH  13  21
ENDBRANCH   1  17
BRANCH   9  24
ATOM     24  O   UNL     1       0.246  14.841  19.529  0.00  0.00    +0.000 OA
BRANCH  24  25
ATOM     25  C   UNL     1       0.483  15.969  18.776  0.00  0.00    +0.000 A 
ATOM     26  C   UNL     1      -0.531  16.841  18.367  0.00  0.00    +0.000 A 
ATOM     27  C   UNL     1      -0.239  17.932  17.548  0.00  0.00    +0.000 A 
ATOM     28  C   UNL     1       1.071  18.170  17.142  0.00  0.00    +0.000 A 
ATOM     29  C   UNL     1       2.096  17.330  17.575  0.00  0.00    +0.000 A 
ATOM     30  C   UNL     1       1.805  16.235  18.394  0.00  0.00    +0.000 A 
ATOM     31 CL   UNL     1       3.115  15.229  18.907  0.00  0.00    +0.000 Cl
ENDBRANCH  24  25
ENDBRANCH   9  24
TORSDOF 4
ENDMDL
MODEL 8
REMARK VINA RESULT:      -7.7      3.157      4.582
REMARK  Name = 
REMARK  5 active torsions:
REMARK  status: ('A' for Active; 'I' for Inactive)
REMARK    1  A    between atoms: C_1  and  N_2
REMARK    2  A    between atoms: C_3  and  C_5
REMARK    3  A    between atoms: C_9  and  N_10
REMARK    4  A    between atoms: C_18  and  O_19
REMARK    5  A    between atoms: O_19  and  C_20
REMARK                            x       y       z     vdW  Elec       q    Type
REMARK                         _______ _______ _______ _____ _____    ______ ____
ROOT
ATOM      1  N   UNL     1       2.582   8.384  17.876  0.00  0.00    +0.000 N 
ATOM      2  C   UNL     1       1.770   8.712  18.963  0.00  0.00    +0.000 A 
ATOM      3  N   UNL     1       1.880   8.093  20.134  0.00  0.00    +0.000 NA
ATOM      4  C   UNL     1       1.013   8.480  21.057  0.00  0.00    +0.000 A 
ATOM      5  N   UNL     1       0.066   9.391  20.902  0.00  0.00    +0.000 NA
ATOM      6  C   UNL     1       0.033   9.964  19.702  0.00  0.00    +0.000 A 
ATOM      7  N   UNL     1      -0.941  10.942  19.459  0.00  0.00    +0.000 N 
ATOM      8  C   UNL     1      -0.789  11.997  18.503  0.00  0.00    +0.000 C 
ATOM      9  C   UNL     1      -1.197  13.003  19.582  0.00  0.00    +0.000 C 
ATOM     10  C   UNL     1      -1.482  11.788  20.475  0.00  0.00    +0.000 C 
ATOM     11  N   UNL     1       0.867   9.653  18.712  0.00  0.00    +0.000 NA
ATOM     12  H   UNL     1       2.264   8.913  17.076  0.00  0.00    +0.000 HD
ENDROOT
BRANCH   1  17
ATOM     13  C   UNL     1       3.599   4.806  17.508  0.00  0.00    +0.000 A 
ATOM     14  C   UNL     1       4.864   4.962  16.937  0.00  0.00    +0.000 A 
ATOM     15  C   UNL     1       5.368   6.240  16.705  0.00  0.00    +0.000 A 
ATOM     16  C   UNL     1       4.602   7.360  17.038  0.00  0.00    +0.000 A 
ATOM     17  C   UNL     1       3.323   7.226  17.599  0.00  0.00    +0.000 A 
ATOM     18  C   UNL     1       2.851   5.936  17.860  0.00  0.00    +0.000 A 
BRANCH  13  21
ATOM     19  C   UNL     1       3.580   1.180  18.594  0.00  0.00    +0.000 C 
ATOM     20  N   UNL     1       3.976   2.538  18.326  0.00  0.00    +0.000 N 
ATOM     21  C   UNL     1       3.089   3.432  17.761  0.00  0.00    +0.000 C 
ATOM     22  O   UNL     1       1.925   3.148  17.490  0.00  0.00    +0.000 OA
ATOM     23  H   UNL     1       4.877   2.856  18.650  0.00  0.00    +0.000 HD
ENDBRANCH  13  21
ENDBRANCH   1  17
BRANCH   9  24
ATOM     24  O   UNL     1      -0.155  13.904  20.033  0.00  0.00    +0.000 OA
BRANCH  24  25
ATOM     25  C   UNL     1      -0.156  15.197  19.562  0.00  0.00    +0.000 A 
ATOM     26  C   UNL     1      -1.222  16.081  19.761  0.00  0.00    +0.000 A 
ATOM     27  C   UNL     1      -1.195  17.359  19.202  0.00  0.00    +0.000 A 
ATOM     28  C   UNL     1      -0.097  17.771  18.452  0.00  0.00    +0.000 A 
ATOM     29  C   UNL     1       0.988  16.912  18.279  0.00  0.00    +0.000 A 
ATOM     30  C   UNL     1       0.962  15.630  18.837  0.00  0.00    +0.000 A 
ATOM     31 CL   UNL     1       2.336  14.609  18.597  0.00  0.00    +0.000 Cl
ENDBRANCH  24  25
ENDBRANCH   9  24
TORSDOF 4
ENDMDL
MODEL 9
REMARK VINA RESULT:      -7.6      3.219      4.776
REMARK  Name = 
REMARK  5 active torsions:
REMARK  status: ('A' for Active; 'I' for Inactive)
REMARK    1  A    between atoms: C_1  and  N_2
REMARK    2  A    between atoms: C_3  and  C_5
REMARK    3  A    between atoms: C_9  and  N_10
REMARK    4  A    between atoms: C_18  and  O_19
REMARK    5  A    between atoms: O_19  and  C_20
REMARK                            x       y       z     vdW  Elec       q    Type
REMARK                         _______ _______ _______ _____ _____    ______ ____
ROOT
ATOM      1  N   UNL     1       3.029   7.956  17.761  0.00  0.00    +0.000 N 
ATOM      2  C   UNL     1       2.206   8.277  18.843  0.00  0.00    +0.000 A 
ATOM      3  N   UNL     1       2.260   7.607  19.989  0.00  0.00    +0.000 NA
ATOM      4  C   UNL     1       1.389   7.995  20.907  0.00  0.00    +0.000 A 
ATOM      5  N   UNL     1       0.487   8.954  20.769  0.00  0.00    +0.000 NA
ATOM      6  C   UNL     1       0.510   9.576  19.594  0.00  0.00    +0.000 A 
ATOM      7  N   UNL     1      -0.414  10.607  19.370  0.00  0.00    +0.000 N 
ATOM      8  C   UNL     1      -0.192  11.691  18.463  0.00  0.00    +0.000 C 
ATOM      9  C   UNL     1      -0.581  12.670  19.574  0.00  0.00    +0.000 C 
ATOM     10  C   UNL     1      -0.941  11.434  20.409  0.00  0.00    +0.000 C 
ATOM     11  N   UNL     1       1.352   9.267  18.611  0.00  0.00    +0.000 NA
ATOM     12  H   UNL     1       2.754   8.532  16.977  0.00  0.00    +0.000 HD
ENDROOT
BRANCH   1  17
ATOM     13  C   UNL     1       4.219   4.413  17.773  0.00  0.00    +0.000 A 
ATOM     14  C   UNL     1       5.118   4.447  16.705  0.00  0.00    +0.000 A 
ATOM     15  C   UNL     1       5.334   5.640  16.017  0.00  0.00    +0.000 A 
ATOM     16  C   UNL     1       4.643   6.794  16.393  0.00  0.00    +0.000 A 
ATOM     17  C   UNL     1       3.723   6.779  17.452  0.00  0.00    +0.000 A 
ATOM     18  C   UNL     1       3.551   5.582  18.156  0.00  0.00    +0.000 A 
BRANCH  13  21
ATOM     19  C   UNL     1       4.743   1.678  20.335  0.00  0.00    +0.000 C 
ATOM     20  N   UNL     1       4.851   2.896  19.576  0.00  0.00    +0.000 N 
ATOM     21  C   UNL     1       4.017   3.133  18.502  0.00  0.00    +0.000 C 
ATOM     22  O   UNL     1       3.129   2.359  18.154  0.00  0.00    +0.000 OA
ATOM     23  H   UNL     1       5.474   3.620  19.901  0.00  0.00    +0.000 HD
ENDBRANCH  13  21
ENDBRANCH   1  17
BRANCH   9  24
ATOM     24  O   UNL     1       0.489  13.503  20.085  0.00  0.00    +0.000 OA
BRANCH  24  25
ATOM     25  C   UNL     1       0.672  14.750  19.531  0.00  0.00    +0.000 A 
ATOM     26  C   UNL     1      -0.380  15.525  19.033  0.00  0.00    +0.000 A 
ATOM     27  C   UNL     1      -0.127  16.753  18.422  0.00  0.00    +0.000 A 
ATOM     28  C   UNL     1       1.179  17.226  18.317  0.00  0.00    +0.000 A 
ATOM     29  C   UNL     1       2.232  16.479  18.845  0.00  0.00    +0.000 A 
ATOM     30  C   UNL     1       1.980  15.247  19.456  0.00  0.00    +0.000 A 
ATOM     31 CL   UNL     1       3.322  14.367  20.099  0.00  0.00    +0.000 Cl
ENDBRANCH  24  25
ENDBRANCH   9  24
TORSDOF 4
ENDMDL
