MODEL 1
REMARK VINA RESULT:      -7.5      0.000      0.000
REMARK  Name = 
REMARK  9 active torsions:
REMARK  status: ('A' for Active; 'I' for Inactive)
REMARK    1  A    between atoms: C_1  and  N_2
REMARK    2  A    between atoms: C_4  and  C_5
REMARK    3  A    between atoms: C_5  and  N_6
REMARK    4  A    between atoms: N_6  and  C_7
REMARK    5  A    between atoms: C_7  and  C_8
REMARK    6  A    between atoms: C_8  and  C_9
REMARK    7  A    between atoms: C_9  and  N_10
REMARK    8  A    between atoms: C_16  and  S_17
REMARK    9  A    between atoms: N_18  and  C_19
REMARK                            x       y       z     vdW  Elec       q    Type
REMARK                         _______ _______ _______ _____ _____    ______ ____
ROOT
ATOM      1  N   UNL     1       2.295   7.138  19.159  0.00  0.00    +0.000 N 
ATOM      2  C   UNL     1       3.429   6.793  18.407  0.00  0.00    +0.000 C 
ATOM      3  N   UNL     1       4.099   5.701  18.675  0.00  0.00    +0.000 NA
ENDROOT
BRANCH   3   4
ATOM      4  C   UNL     1       5.271   5.240  18.056  0.00  0.00    +0.000 A 
ATOM      5  C   UNL     1       6.549   5.337  18.612  0.00  0.00    +0.000 A 
ATOM      6  C   UNL     1       7.678   4.860  17.931  0.00  0.00    +0.000 A 
ATOM      7  C   UNL     1       7.543   4.353  16.638  0.00  0.00    +0.000 A 
ATOM      8  C   UNL     1       6.291   4.329  16.040  0.00  0.00    +0.000 A 
ATOM      9 CL   UNL     1       6.138   3.775  14.416  0.00  0.00    +0.000 Cl
ATOM     10  C   UNL     1       5.156   4.763  16.738  0.00  0.00    +0.000 A 
ENDBRANCH   3   4
BRANCH   2  11
ATOM     11  S   UNL     1       3.927   7.898  17.114  0.00  0.00    +0.000 S 
ATOM     12  H   UNL     1       3.679   7.090  16.081  0.00  0.00    +0.000 HD
ENDBRANCH   2  11
BRANCH   1  13
ATOM     13  C   UNL     1       1.309   8.140  18.737  0.00  0.00    +0.000 C 
BRANCH  13  17
ATOM     14  C   UNL     1       0.526  13.006  19.260  0.00  0.00    +0.000 C 
ATOM     15  N   UNL     1       0.696  11.637  19.699  0.00  0.00    +0.000 N 
ATOM     16  C   UNL     1       1.307  10.675  18.945  0.00  0.00    +0.000 A 
ATOM     17  C   UNL     1       1.016   9.426  19.482  0.00  0.00    +0.000 A 
ATOM     18  C   UNL     1       0.389   9.695  20.753  0.00  0.00    +0.000 A 
ATOM     19  C   UNL     1      -0.064   8.897  21.828  0.00  0.00    +0.000 A 
ATOM     20  C   UNL     1      -0.656   9.498  22.949  0.00  0.00    +0.000 A 
ATOM     21  C   UNL     1      -0.825  10.877  23.016  0.00  0.00    +0.000 A 
ATOM     22  C   UNL     1      -0.403  11.690  21.970  0.00  0.00    +0.000 A 
ATOM     23  C   UNL     1       0.209  11.084  20.855  0.00  0.00    +0.000 A 
ENDBRANCH  13  17
ENDBRANCH   1  13
BRANCH   1  24
ATOM     24  C   UNL     1       2.046   6.433  20.441  0.00  0.00    +0.000 C 
BRANCH  24  25
ATOM     25  C   UNL     1       1.005   5.293  20.449  0.00  0.00    +0.000 C 
BRANCH  25  26
ATOM     26  C   UNL     1       1.482   3.943  21.007  0.00  0.00    +0.000 C 
BRANCH  26  27
ATOM     27  N   UNL     1       2.342   3.281  20.045  0.00  0.00    +0.000 NA
ATOM     28  C   UNL     1       3.361   2.390  20.616  0.00  0.00    +0.000 C 
ATOM     29  C   UNL     1       4.363   2.072  19.501  0.00  0.00    +0.000 C 
ATOM     30  O   UNL     1       3.713   1.329  18.459  0.00  0.00    +0.000 OA
ATOM     31  C   UNL     1       2.652   2.113  17.886  0.00  0.00    +0.000 C 
ATOM     32  C   UNL     1       1.642   2.604  18.946  0.00  0.00    +0.000 C 
ENDBRANCH  26  27
ENDBRANCH  25  26
ENDBRANCH  24  25
ENDBRANCH   1  24
TORSDOF 8
ENDMDL
MODEL 2
REMARK VINA RESULT:      -7.0      2.843      7.453
REMARK  Name = 
REMARK  9 active torsions:
REMARK  status: ('A' for Active; 'I' for Inactive)
REMARK    1  A    between atoms: C_1  and  N_2
REMARK    2  A    between atoms: C_4  and  C_5
REMARK    3  A    between atoms: C_5  and  N_6
REMARK    4  A    between atoms: N_6  and  C_7
REMARK    5  A    between atoms: C_7  and  C_8
REMARK    6  A    between atoms: C_8  and  C_9
REMARK    7  A    between atoms: C_9  and  N_10
REMARK    8  A    between atoms: C_16  and  S_17
REMARK    9  A    between atoms: N_18  and  C_19
REMARK                            x       y       z     vdW  Elec       q    Type
REMARK                         _______ _______ _______ _____ _____    ______ ____
ROOT
ATOM      1  N   UNL     1       2.163   6.885  19.312  0.00  0.00    +0.000 N 
ATOM      2  C   UNL     1       1.683   8.198  19.438  0.00  0.00    +0.000 C 
ATOM      3  N   UNL     1       1.432   8.706  20.617  0.00  0.00    +0.000 NA
ENDROOT
BRANCH   3   4
ATOM      4  C   UNL     1       0.909   9.975  20.911  0.00  0.00    +0.000 A 
ATOM      5  C   UNL     1       1.461  11.179  20.466  0.00  0.00    +0.000 A 
ATOM      6  C   UNL     1       0.887  12.413  20.805  0.00  0.00    +0.000 A 
ATOM      7  C   UNL     1      -0.204  12.452  21.672  0.00  0.00    +0.000 A 
ATOM      8  C   UNL     1      -0.710  11.268  22.191  0.00  0.00    +0.000 A 
ATOM      9 CL   UNL     1      -2.008  11.325  23.322  0.00  0.00    +0.000 Cl
ATOM     10  C   UNL     1      -0.166  10.033  21.815  0.00  0.00    +0.000 A 
ENDBRANCH   3   4
BRANCH   2  11
ATOM     11  S   UNL     1       1.408   9.119  17.949  0.00  0.00    +0.000 S 
ATOM     12  H   UNL     1       1.543  10.342  18.467  0.00  0.00    +0.000 HD
ENDBRANCH   2  11
BRANCH   1  13
ATOM     13  C   UNL     1       2.773   6.351  18.089  0.00  0.00    +0.000 C 
BRANCH  13  17
ATOM     14  C   UNL     1       7.429   5.524  19.574  0.00  0.00    +0.000 C 
ATOM     15  N   UNL     1       6.356   5.707  18.620  0.00  0.00    +0.000 N 
ATOM     16  C   UNL     1       5.176   6.326  18.924  0.00  0.00    +0.000 A 
ATOM     17  C   UNL     1       4.249   6.047  17.926  0.00  0.00    +0.000 A 
ATOM     18  C   UNL     1       5.004   5.420  16.869  0.00  0.00    +0.000 A 
ATOM     19  C   UNL     1       4.706   4.977  15.560  0.00  0.00    +0.000 A 
ATOM     20  C   UNL     1       5.704   4.381  14.775  0.00  0.00    +0.000 A 
ATOM     21  C   UNL     1       6.991   4.200  15.271  0.00  0.00    +0.000 A 
ATOM     22  C   UNL     1       7.315   4.612  16.559  0.00  0.00    +0.000 A 
ATOM     23  C   UNL     1       6.315   5.228  17.336  0.00  0.00    +0.000 A 
ENDBRANCH  13  17
ENDBRANCH   1  13
BRANCH   1  24
ATOM     24  C   UNL     1       2.087   5.981  20.488  0.00  0.00    +0.000 C 
BRANCH  24  25
ATOM     25  C   UNL     1       0.830   5.099  20.643  0.00  0.00    +0.000 C 
BRANCH  25  26
ATOM     26  C   UNL     1       1.068   3.582  20.696  0.00  0.00    +0.000 C 
BRANCH  26  27
ATOM     27  N   UNL     1       2.072   3.199  19.721  0.00  0.00    +0.000 NA
ATOM     28  C   UNL     1       3.277   2.563  20.269  0.00  0.00    +0.000 C 
ATOM     29  C   UNL     1       4.333   2.556  19.159  0.00  0.00    +0.000 C 
ATOM     30  O   UNL     1       3.894   1.725  18.074  0.00  0.00    +0.000 OA
ATOM     31  C   UNL     1       2.675   2.247  17.518  0.00  0.00    +0.000 C 
ATOM     32  C   UNL     1       1.568   2.423  18.581  0.00  0.00    +0.000 C 
ENDBRANCH  26  27
ENDBRANCH  25  26
ENDBRANCH  24  25
ENDBRANCH   1  24
TORSDOF 8
ENDMDL
MODEL 3
REMARK VINA RESULT:      -6.9      3.302      7.779
REMARK  Name = 
REMARK  9 active torsions:
REMARK  status: ('A' for Active; 'I' for Inactive)
REMARK    1  A    between atoms: C_1  and  N_2
REMARK    2  A    between atoms: C_4  and  C_5
REMARK    3  A    between atoms: C_5  and  N_6
REMARK    4  A    between atoms: N_6  and  C_7
REMARK    5  A    between atoms: C_7  and  C_8
REMARK    6  A    between atoms: C_8  and  C_9
REMARK    7  A    between atoms: C_9  and  N_10
REMARK    8  A    between atoms: C_16  and  S_17
REMARK    9  A    between atoms: N_18  and  C_19
REMARK                            x       y       z     vdW  Elec       q    Type
REMARK                         _______ _______ _______ _____ _____    ______ ____
ROOT
ATOM      1  N   UNL     1       2.220   7.814  19.062  0.00  0.00    +0.000 N 
ATOM      2  C   UNL     1       1.234   8.789  19.277  0.00  0.00    +0.000 C 
ATOM      3  N   UNL     1       0.610   9.341  18.268  0.00  0.00    +0.000 NA
ENDROOT
BRANCH   3   4
ATOM      4  C   UNL     1      -0.359  10.355  18.309  0.00  0.00    +0.000 A 
ATOM      5  C   UNL     1      -0.103  11.678  18.680  0.00  0.00    +0.000 A 
ATOM      6  C   UNL     1      -1.124  12.638  18.705  0.00  0.00    +0.000 A 
ATOM      7  C   UNL     1      -2.438  12.257  18.437  0.00  0.00    +0.000 A 
ATOM      8  C   UNL     1      -2.721  10.929  18.151  0.00  0.00    +0.000 A 
ATOM      9 CL   UNL     1      -4.355  10.446  17.897  0.00  0.00    +0.000 Cl
ATOM     10  C   UNL     1      -1.694   9.978  18.080  0.00  0.00    +0.000 A 
ENDBRANCH   3   4
BRANCH   2  11
ATOM     11  S   UNL     1       0.894   9.259  20.952  0.00  0.00    +0.000 S 
ATOM     12  H   UNL     1       1.392   8.174  21.548  0.00  0.00    +0.000 HD
ENDBRANCH   2  11
BRANCH   1  13
ATOM     13  C   UNL     1       2.729   6.920  20.109  0.00  0.00    +0.000 C 
BRANCH  13  17
ATOM     14  C   UNL     1       1.191   2.555  21.880  0.00  0.00    +0.000 C 
ATOM     15  N   UNL     1       1.863   3.448  20.961  0.00  0.00    +0.000 N 
ATOM     16  C   UNL     1       2.240   4.720  21.288  0.00  0.00    +0.000 A 
ATOM     17  C   UNL     1       2.541   5.417  20.123  0.00  0.00    +0.000 A 
ATOM     18  C   UNL     1       2.560   4.423  19.079  0.00  0.00    +0.000 A 
ATOM     19  C   UNL     1       2.880   4.431  17.702  0.00  0.00    +0.000 A 
ATOM     20  C   UNL     1       2.778   3.250  16.950  0.00  0.00    +0.000 A 
ATOM     21  C   UNL     1       2.348   2.064  17.535  0.00  0.00    +0.000 A 
ATOM     22  C   UNL     1       2.013   2.024  18.883  0.00  0.00    +0.000 A 
ATOM     23  C   UNL     1       2.135   3.206  19.639  0.00  0.00    +0.000 A 
ENDBRANCH  13  17
ENDBRANCH   1  13
BRANCH   1  24
ATOM     24  C   UNL     1       2.764   7.639  17.692  0.00  0.00    +0.000 C 
BRANCH  24  25
ATOM     25  C   UNL     1       4.298   7.647  17.516  0.00  0.00    +0.000 C 
BRANCH  25  26
ATOM     26  C   UNL     1       4.833   7.052  16.204  0.00  0.00    +0.000 C 
BRANCH  26  27
ATOM     27  N   UNL     1       5.726   5.945  16.485  0.00  0.00    +0.000 NA
ATOM     28  C   UNL     1       6.332   5.306  15.310  0.00  0.00    +0.000 C 
ATOM     29  C   UNL     1       6.943   3.980  15.776  0.00  0.00    +0.000 C 
ATOM     30  O   UNL     1       8.015   4.234  16.697  0.00  0.00    +0.000 OA
ATOM     31  C   UNL     1       7.512   4.919  17.857  0.00  0.00    +0.000 C 
ATOM     32  C   UNL     1       6.756   6.217  17.496  0.00  0.00    +0.000 C 
ENDBRANCH  26  27
ENDBRANCH  25  26
ENDBRANCH  24  25
ENDBRANCH   1  24
TORSDOF 8
ENDMDL
MODEL 4
REMARK VINA RESULT:      -6.9      2.756      7.293
REMARK  Name = 
REMARK  9 active torsions:
REMARK  status: ('A' for Active; 'I' for Inactive)
REMARK    1  A    between atoms: C_1  and  N_2
REMARK    2  A    between atoms: C_4  and  C_5
REMARK    3  A    between atoms: C_5  and  N_6
REMARK    4  A    between atoms: N_6  and  C_7
REMARK    5  A    between atoms: C_7  and  C_8
REMARK    6  A    between atoms: C_8  and  C_9
REMARK    7  A    between atoms: C_9  and  N_10
REMARK    8  A    between atoms: C_16  and  S_17
REMARK    9  A    between atoms: N_18  and  C_19
REMARK                            x       y       z     vdW  Elec       q    Type
REMARK                         _______ _______ _______ _____ _____    ______ ____
ROOT
ATOM      1  N   UNL     1       2.346   7.422  19.039  0.00  0.00    +0.000 N 
ATOM      2  C   UNL     1       1.599   8.501  19.538  0.00  0.00    +0.000 C 
ATOM      3  N   UNL     1       1.438   8.661  20.827  0.00  0.00    +0.000 NA
ENDROOT
BRANCH   3   4
ATOM      4  C   UNL     1       0.688   9.650  21.481  0.00  0.00    +0.000 A 
ATOM      5  C   UNL     1      -0.266   9.393  22.469  0.00  0.00    +0.000 A 
ATOM      6  C   UNL     1      -0.984  10.433  23.076  0.00  0.00    +0.000 A 
ATOM      7  C   UNL     1      -0.811  11.744  22.633  0.00  0.00    +0.000 A 
ATOM      8  C   UNL     1       0.071  12.003  21.593  0.00  0.00    +0.000 A 
ATOM      9 CL   UNL     1       0.226  13.611  20.995  0.00  0.00    +0.000 Cl
ATOM     10  C   UNL     1       0.824  10.970  21.018  0.00  0.00    +0.000 A 
ENDBRANCH   3   4
BRANCH   2  11
ATOM     11  S   UNL     1       0.866   9.607  18.363  0.00  0.00    +0.000 S 
ATOM     12  H   UNL     1       1.881  10.468  18.268  0.00  0.00    +0.000 HD
ENDBRANCH   2  11
BRANCH   1  13
ATOM     13  C   UNL     1       2.849   7.344  17.662  0.00  0.00    +0.000 C 
BRANCH  13  17
ATOM     14  C   UNL     1       7.778   7.859  17.745  0.00  0.00    +0.000 C 
ATOM     15  N   UNL     1       6.511   7.304  17.317  0.00  0.00    +0.000 N 
ATOM     16  C   UNL     1       5.315   7.943  17.484  0.00  0.00    +0.000 A 
ATOM     17  C   UNL     1       4.284   7.031  17.287  0.00  0.00    +0.000 A 
ATOM     18  C   UNL     1       4.916   5.851  16.750  0.00  0.00    +0.000 A 
ATOM     19  C   UNL     1       4.452   4.612  16.253  0.00  0.00    +0.000 A 
ATOM     20  C   UNL     1       5.367   3.649  15.802  0.00  0.00    +0.000 A 
ATOM     21  C   UNL     1       6.736   3.885  15.851  0.00  0.00    +0.000 A 
ATOM     22  C   UNL     1       7.227   5.087  16.346  0.00  0.00    +0.000 A 
ATOM     23  C   UNL     1       6.305   6.060  16.780  0.00  0.00    +0.000 A 
ENDBRANCH  13  17
ENDBRANCH   1  13
BRANCH   1  24
ATOM     24  C   UNL     1       2.686   6.304  19.955  0.00  0.00    +0.000 C 
BRANCH  24  25
ATOM     25  C   UNL     1       1.524   5.509  20.588  0.00  0.00    +0.000 C 
BRANCH  25  26
ATOM     26  C   UNL     1       1.856   4.084  21.059  0.00  0.00    +0.000 C 
BRANCH  26  27
ATOM     27  N   UNL     1       2.532   3.354  20.005  0.00  0.00    +0.000 NA
ATOM     28  C   UNL     1       3.641   2.494  20.441  0.00  0.00    +0.000 C 
ATOM     29  C   UNL     1       4.428   2.095  19.188  0.00  0.00    +0.000 C 
ATOM     30  O   UNL     1       3.604   1.291  18.330  0.00  0.00    +0.000 OA
ATOM     31  C   UNL     1       2.455   2.044  17.907  0.00  0.00    +0.000 C 
ATOM     32  C   UNL     1       1.649   2.612  19.096  0.00  0.00    +0.000 C 
ENDBRANCH  26  27
ENDBRANCH  25  26
ENDBRANCH  24  25
ENDBRANCH   1  24
TORSDOF 8
ENDMDL
MODEL 5
REMARK VINA RESULT:      -6.8      3.497      5.806
REMARK  Name = 
REMARK  9 active torsions:
REMARK  status: ('A' for Active; 'I' for Inactive)
REMARK    1  A    between atoms: C_1  and  N_2
REMARK    2  A    between atoms: C_4  and  C_5
REMARK    3  A    between atoms: C_5  and  N_6
REMARK    4  A    between atoms: N_6  and  C_7
REMARK    5  A    between atoms: C_7  and  C_8
REMARK    6  A    between atoms: C_8  and  C_9
REMARK    7  A    between atoms: C_9  and  N_10
REMARK    8  A    between atoms: C_16  and  S_17
REMARK    9  A    between atoms: N_18  and  C_19
REMARK                            x       y       z     vdW  Elec       q    Type
REMARK                         _______ _______ _______ _____ _____    ______ ____
ROOT
ATOM      1  N   UNL     1       1.407   8.889  19.714  0.00  0.00    +0.000 N 
ATOM      2  C   UNL     1       1.945   7.608  19.512  0.00  0.00    +0.000 C 
ATOM      3  N   UNL     1       2.500   7.291  18.370  0.00  0.00    +0.000 NA
ENDROOT
BRANCH   3   4
ATOM      4  C   UNL     1       3.038   6.051  17.993  0.00  0.00    +0.000 A 
ATOM      5  C   UNL     1       2.284   4.892  17.789  0.00  0.00    +0.000 A 
ATOM      6  C   UNL     1       2.892   3.683  17.419  0.00  0.00    +0.000 A 
ATOM      7  C   UNL     1       4.281   3.606  17.333  0.00  0.00    +0.000 A 
ATOM      8  C   UNL     1       5.048   4.728  17.617  0.00  0.00    +0.000 A 
ATOM      9 CL   UNL     1       6.766   4.610  17.585  0.00  0.00    +0.000 Cl
ATOM     10  C   UNL     1       4.439   5.948  17.940  0.00  0.00    +0.000 A 
ENDBRANCH   3   4
BRANCH   2  11
ATOM     11  S   UNL     1       1.819   6.443  20.842  0.00  0.00    +0.000 S 
ATOM     12  H   UNL     1       0.666   6.879  21.354  0.00  0.00    +0.000 HD
ENDBRANCH   2  11
BRANCH   1  13
ATOM     13  C   UNL     1       1.071   9.436  21.034  0.00  0.00    +0.000 C 
BRANCH  13  17
ATOM     14  C   UNL     1       1.095  14.330  20.256  0.00  0.00    +0.000 C 
ATOM     15  N   UNL     1       0.771  13.101  20.947  0.00  0.00    +0.000 N 
ATOM     16  C   UNL     1       1.464  11.935  20.777  0.00  0.00    +0.000 A 
ATOM     17  C   UNL     1       0.719  10.885  21.301  0.00  0.00    +0.000 A 
ATOM     18  C   UNL     1      -0.364  11.508  22.022  0.00  0.00    +0.000 A 
ATOM     19  C   UNL     1      -1.411  11.039  22.846  0.00  0.00    +0.000 A 
ATOM     20  C   UNL     1      -2.330  11.943  23.399  0.00  0.00    +0.000 A 
ATOM     21  C   UNL     1      -2.239  13.306  23.136  0.00  0.00    +0.000 A 
ATOM     22  C   UNL     1      -1.229  13.800  22.319  0.00  0.00    +0.000 A 
ATOM     23  C   UNL     1      -0.297  12.891  21.781  0.00  0.00    +0.000 A 
ENDBRANCH  13  17
ENDBRANCH   1  13
BRANCH   1  24
ATOM     24  C   UNL     1       1.193   9.768  18.537  0.00  0.00    +0.000 C 
BRANCH  24  25
ATOM     25  C   UNL     1      -0.208   9.781  17.889  0.00  0.00    +0.000 C 
BRANCH  25  26
ATOM     26  C   UNL     1      -1.178  10.861  18.393  0.00  0.00    +0.000 C 
BRANCH  26  27
ATOM     27  N   UNL     1      -2.229  11.082  17.419  0.00  0.00    +0.000 NA
ATOM     28  C   UNL     1      -2.285  10.113  16.317  0.00  0.00    +0.000 C 
ATOM     29  C   UNL     1      -3.204  10.701  15.240  0.00  0.00    +0.000 C 
ATOM     30  O   UNL     1      -4.542  10.813  15.749  0.00  0.00    +0.000 OA
ATOM     31  C   UNL     1      -4.563  11.702  16.879  0.00  0.00    +0.000 C 
ATOM     32  C   UNL     1      -3.571  11.279  17.984  0.00  0.00    +0.000 C 
ENDBRANCH  26  27
ENDBRANCH  25  26
ENDBRANCH  24  25
ENDBRANCH   1  24
TORSDOF 8
ENDMDL
MODEL 6
REMARK VINA RESULT:      -6.8      4.383      6.991
REMARK  Name = 
REMARK  9 active torsions:
REMARK  status: ('A' for Active; 'I' for Inactive)
REMARK    1  A    between atoms: C_1  and  N_2
REMARK    2  A    between atoms: C_4  and  C_5
REMARK    3  A    between atoms: C_5  and  N_6
REMARK    4  A    between atoms: N_6  and  C_7
REMARK    5  A    between atoms: C_7  and  C_8
REMARK    6  A    between atoms: C_8  and  C_9
REMARK    7  A    between atoms: C_9  and  N_10
REMARK    8  A    between atoms: C_16  and  S_17
REMARK    9  A    between atoms: N_18  and  C_19
REMARK                            x       y       z     vdW  Elec       q    Type
REMARK                         _______ _______ _______ _____ _____    ______ ____
ROOT
ATOM      1  N   UNL     1       1.321  11.029  18.918  0.00  0.00    +0.000 N 
ATOM      2  C   UNL     1       1.802  12.334  19.106  0.00  0.00    +0.000 C 
ATOM      3  N   UNL     1       2.670  12.850  18.273  0.00  0.00    +0.000 NA
ENDROOT
BRANCH   3   4
ATOM      4  C   UNL     1       3.281  14.111  18.344  0.00  0.00    +0.000 A 
ATOM      5  C   UNL     1       4.332  14.433  19.206  0.00  0.00    +0.000 A 
ATOM      6  C   UNL     1       4.890  15.720  19.227  0.00  0.00    +0.000 A 
ATOM      7  C   UNL     1       4.336  16.726  18.436  0.00  0.00    +0.000 A 
ATOM      8  C   UNL     1       3.237  16.442  17.637  0.00  0.00    +0.000 A 
ATOM      9 CL   UNL     1       2.508  17.705  16.720  0.00  0.00    +0.000 Cl
ATOM     10  C   UNL     1       2.709  15.145  17.581  0.00  0.00    +0.000 A 
ENDBRANCH   3   4
BRANCH   2  11
ATOM     11  S   UNL     1       1.215  13.233  20.516  0.00  0.00    +0.000 S 
ATOM     12  H   UNL     1      -0.086  13.205  20.218  0.00  0.00    +0.000 HD
ENDBRANCH   2  11
BRANCH   1  13
ATOM     13  C   UNL     1       0.129  10.493  19.587  0.00  0.00    +0.000 C 
BRANCH  13  17
ATOM     14  C   UNL     1      -4.081  13.074  19.998  0.00  0.00    +0.000 C 
ATOM     15  N   UNL     1      -3.202  12.048  19.479  0.00  0.00    +0.000 N 
ATOM     16  C   UNL     1      -2.091  11.605  20.139  0.00  0.00    +0.000 A 
ATOM     17  C   UNL     1      -1.295  10.887  19.253  0.00  0.00    +0.000 A 
ATOM     18  C   UNL     1      -2.104  10.709  18.072  0.00  0.00    +0.000 A 
ATOM     19  C   UNL     1      -1.947  10.010  16.854  0.00  0.00    +0.000 A 
ATOM     20  C   UNL     1      -2.958  10.056  15.882  0.00  0.00    +0.000 A 
ATOM     21  C   UNL     1      -4.115  10.799  16.088  0.00  0.00    +0.000 A 
ATOM     22  C   UNL     1      -4.296  11.510  17.269  0.00  0.00    +0.000 A 
ATOM     23  C   UNL     1      -3.288  11.444  18.251  0.00  0.00    +0.000 A 
ENDBRANCH  13  17
ENDBRANCH   1  13
BRANCH   1  24
ATOM     24  C   UNL     1       2.026  10.137  17.963  0.00  0.00    +0.000 C 
BRANCH  24  25
ATOM     25  C   UNL     1       1.816   8.614  18.105  0.00  0.00    +0.000 C 
BRANCH  25  26
ATOM     26  C   UNL     1       3.060   7.736  17.902  0.00  0.00    +0.000 C 
BRANCH  26  27
ATOM     27  N   UNL     1       2.737   6.345  18.156  0.00  0.00    +0.000 NA
ATOM     28  C   UNL     1       3.648   5.363  17.553  0.00  0.00    +0.000 C 
ATOM     29  C   UNL     1       2.962   3.996  17.635  0.00  0.00    +0.000 C 
ATOM     30  O   UNL     1       2.804   3.611  19.009  0.00  0.00    +0.000 OA
ATOM     31  C   UNL     1       1.970   4.563  19.691  0.00  0.00    +0.000 C 
ATOM     32  C   UNL     1       2.498   6.009  19.565  0.00  0.00    +0.000 C 
ENDBRANCH  26  27
ENDBRANCH  25  26
ENDBRANCH  24  25
ENDBRANCH   1  24
TORSDOF 8
ENDMDL
MODEL 7
REMARK VINA RESULT:      -6.7      2.888      7.553
REMARK  Name = 
REMARK  9 active torsions:
REMARK  status: ('A' for Active; 'I' for Inactive)
REMARK    1  A    between atoms: C_1  and  N_2
REMARK    2  A    between atoms: C_4  and  C_5
REMARK    3  A    between atoms: C_5  and  N_6
REMARK    4  A    between atoms: N_6  and  C_7
REMARK    5  A    between atoms: C_7  and  C_8
REMARK    6  A    between atoms: C_8  and  C_9
REMARK    7  A    between atoms: C_9  and  N_10
REMARK    8  A    between atoms: C_16  and  S_17
REMARK    9  A    between atoms: N_18  and  C_19
REMARK                            x       y       z     vdW  Elec       q    Type
REMARK                         _______ _______ _______ _____ _____    ______ ____
ROOT
ATOM      1  N   UNL     1       2.561   7.459  18.378  0.00  0.00    +0.000 N 
ATOM      2  C   UNL     1       1.897   8.520  19.013  0.00  0.00    +0.000 C 
ATOM      3  N   UNL     1       1.303   8.341  20.166  0.00  0.00    +0.000 NA
ENDROOT
BRANCH   3   4
ATOM      4  C   UNL     1       0.562   9.276  20.904  0.00  0.00    +0.000 A 
ATOM      5  C   UNL     1       0.442   9.267  22.295  0.00  0.00    +0.000 A 
ATOM      6  C   UNL     1      -0.323  10.232  22.967  0.00  0.00    +0.000 A 
ATOM      7  C   UNL     1      -1.049  11.171  22.235  0.00  0.00    +0.000 A 
ATOM      8  C   UNL     1      -1.007  11.138  20.847  0.00  0.00    +0.000 A 
ATOM      9 CL   UNL     1      -1.964  12.249  19.945  0.00  0.00    +0.000 Cl
ATOM     10  C   UNL     1      -0.205  10.204  20.178  0.00  0.00    +0.000 A 
ENDBRANCH   3   4
BRANCH   2  11
ATOM     11  S   UNL     1       1.869  10.087  18.185  0.00  0.00    +0.000 S 
ATOM     12  H   UNL     1       1.954  10.864  19.267  0.00  0.00    +0.000 HD
ENDBRANCH   2  11
BRANCH   1  13
ATOM     13  C   UNL     1       3.514   7.634  17.275  0.00  0.00    +0.000 C 
BRANCH  13  17
ATOM     14  C   UNL     1       7.850   5.873  18.904  0.00  0.00    +0.000 C 
ATOM     15  N   UNL     1       6.824   6.170  17.928  0.00  0.00    +0.000 N 
ATOM     16  C   UNL     1       5.859   7.118  18.114  0.00  0.00    +0.000 A 
ATOM     17  C   UNL     1       4.852   6.931  17.174  0.00  0.00    +0.000 A 
ATOM     18  C   UNL     1       5.375   5.960  16.244  0.00  0.00    +0.000 A 
ATOM     19  C   UNL     1       4.920   5.400  15.029  0.00  0.00    +0.000 A 
ATOM     20  C   UNL     1       5.697   4.440  14.363  0.00  0.00    +0.000 A 
ATOM     21  C   UNL     1       6.911   4.012  14.890  0.00  0.00    +0.000 A 
ATOM     22  C   UNL     1       7.382   4.533  16.089  0.00  0.00    +0.000 A 
ATOM     23  C   UNL     1       6.609   5.511  16.745  0.00  0.00    +0.000 A 
ENDBRANCH  13  17
ENDBRANCH   1  13
BRANCH   1  24
ATOM     24  C   UNL     1       2.325   6.076  18.862  0.00  0.00    +0.000 C 
BRANCH  24  25
ATOM     25  C   UNL     1       2.250   4.945  17.814  0.00  0.00    +0.000 C 
BRANCH  25  26
ATOM     26  C   UNL     1       1.341   3.756  18.162  0.00  0.00    +0.000 C 
BRANCH  26  27
ATOM     27  N   UNL     1       1.818   3.098  19.363  0.00  0.00    +0.000 NA
ATOM     28  C   UNL     1       3.258   3.224  19.624  0.00  0.00    +0.000 C 
ATOM     29  C   UNL     1       3.616   2.200  20.706  0.00  0.00    +0.000 C 
ATOM     30  O   UNL     1       2.950   2.534  21.934  0.00  0.00    +0.000 OA
ATOM     31  C   UNL     1       1.525   2.495  21.745  0.00  0.00    +0.000 C 
ATOM     32  C   UNL     1       1.058   3.398  20.583  0.00  0.00    +0.000 C 
ENDBRANCH  26  27
ENDBRANCH  25  26
ENDBRANCH  24  25
ENDBRANCH   1  24
TORSDOF 8
ENDMDL
MODEL 8
REMARK VINA RESULT:      -6.7      2.601      7.408
REMARK  Name = 
REMARK  9 active torsions:
REMARK  status: ('A' for Active; 'I' for Inactive)
REMARK    1  A    between atoms: C_1  and  N_2
REMARK    2  A    between atoms: C_4  and  C_5
REMARK    3  A    between atoms: C_5  and  N_6
REMARK    4  A    between atoms: N_6  and  C_7
REMARK    5  A    between atoms: C_7  and  C_8
REMARK    6  A    between atoms: C_8  and  C_9
REMARK    7  A    between atoms: C_9  and  N_10
REMARK    8  A    between atoms: C_16  and  S_17
REMARK    9  A    between atoms: N_18  and  C_19
REMARK                            x       y       z     vdW  Elec       q    Type
REMARK                         _______ _______ _______ _____ _____    ______ ____
ROOT
ATOM      1  N   UNL     1       2.130   6.680  19.532  0.00  0.00    +0.000 N 
ATOM      2  C   UNL     1       1.577   7.938  19.817  0.00  0.00    +0.000 C 
ATOM      3  N   UNL     1       1.290   8.277  21.048  0.00  0.00    +0.000 NA
ENDROOT
BRANCH   3   4
ATOM      4  C   UNL     1       0.695   9.467  21.494  0.00  0.00    +0.000 A 
ATOM      5  C   UNL     1      -0.331   9.530  22.441  0.00  0.00    +0.000 A 
ATOM      6  C   UNL     1      -0.884  10.757  22.834  0.00  0.00    +0.000 A 
ATOM      7  C   UNL     1      -0.468  11.935  22.213  0.00  0.00    +0.000 A 
ATOM      8  C   UNL     1       0.490  11.877  21.210  0.00  0.00    +0.000 A 
ATOM      9 CL   UNL     1       0.946  13.322  20.391  0.00  0.00    +0.000 Cl
ATOM     10  C   UNL     1       1.077  10.657  20.850  0.00  0.00    +0.000 A 
ENDBRANCH   3   4
BRANCH   2  11
ATOM     11  S   UNL     1       1.260   9.025  18.454  0.00  0.00    +0.000 S 
ATOM     12  H   UNL     1       1.927   8.343  17.521  0.00  0.00    +0.000 HD
ENDBRANCH   2  11
BRANCH   1  13
ATOM     13  C   UNL     1       2.778   6.341  18.260  0.00  0.00    +0.000 C 
BRANCH  13  17
ATOM     14  C   UNL     1       7.393   5.338  19.763  0.00  0.00    +0.000 C 
ATOM     15  N   UNL     1       6.340   5.604  18.806  0.00  0.00    +0.000 N 
ATOM     16  C   UNL     1       5.164   6.219  19.132  0.00  0.00    +0.000 A 
ATOM     17  C   UNL     1       4.252   6.025  18.101  0.00  0.00    +0.000 A 
ATOM     18  C   UNL     1       5.016   5.461  17.016  0.00  0.00    +0.000 A 
ATOM     19  C   UNL     1       4.735   5.114  15.675  0.00  0.00    +0.000 A 
ATOM     20  C   UNL     1       5.739   4.558  14.868  0.00  0.00    +0.000 A 
ATOM     21  C   UNL     1       7.013   4.322  15.372  0.00  0.00    +0.000 A 
ATOM     22  C   UNL     1       7.320   4.638  16.690  0.00  0.00    +0.000 A 
ATOM     23  C   UNL     1       6.315   5.215  17.492  0.00  0.00    +0.000 A 
ENDBRANCH  13  17
ENDBRANCH   1  13
BRANCH   1  24
ATOM     24  C   UNL     1       2.099   5.631  20.582  0.00  0.00    +0.000 C 
BRANCH  24  25
ATOM     25  C   UNL     1       0.948   4.602  20.543  0.00  0.00    +0.000 C 
BRANCH  25  26
ATOM     26  C   UNL     1       1.314   3.161  20.933  0.00  0.00    +0.000 C 
BRANCH  26  27
ATOM     27  N   UNL     1       2.170   2.572  19.921  0.00  0.00    +0.000 NA
ATOM     28  C   UNL     1       1.812   2.881  18.531  0.00  0.00    +0.000 C 
ATOM     29  C   UNL     1       2.592   1.913  17.634  0.00  0.00    +0.000 C 
ATOM     30  O   UNL     1       4.001   2.164  17.756  0.00  0.00    +0.000 OA
ATOM     31  C   UNL     1       4.423   1.944  19.113  0.00  0.00    +0.000 C 
ATOM     32  C   UNL     1       3.610   2.778  20.127  0.00  0.00    +0.000 C 
ENDBRANCH  26  27
ENDBRANCH  25  26
ENDBRANCH  24  25
ENDBRANCH   1  24
TORSDOF 8
ENDMDL
MODEL 9
REMARK VINA RESULT:      -6.7      2.820      7.369
REMARK  Name = 
REMARK  9 active torsions:
REMARK  status: ('A' for Active; 'I' for Inactive)
REMARK    1  A    between atoms: C_1  and  N_2
REMARK    2  A    between atoms: C_4  and  C_5
REMARK    3  A    between atoms: C_5  and  N_6
REMARK    4  A    between atoms: N_6  and  C_7
REMARK    5  A    between atoms: C_7  and  C_8
REMARK    6  A    between atoms: C_8  and  C_9
REMARK    7  A    between atoms: C_9  and  N_10
REMARK    8  A    between atoms: C_16  and  S_17
REMARK    9  A    between atoms: N_18  and  C_19
REMARK                            x       y       z     vdW  Elec       q    Type
REMARK                         _______ _______ _______ _____ _____    ______ ____
ROOT
ATOM      1  N   UNL     1       2.621   7.424  18.274  0.00  0.00    +0.000 N 
ATOM      2  C   UNL     1       1.958   8.505  18.876  0.00  0.00    +0.000 C 
ATOM      3  N   UNL     1       1.323   8.349  20.010  0.00  0.00    +0.000 NA
ENDROOT
BRANCH   3   4
ATOM      4  C   UNL     1       0.578   9.307  20.714  0.00  0.00    +0.000 A 
ATOM      5  C   UNL     1       0.486   9.369  22.107  0.00  0.00    +0.000 A 
ATOM      6  C   UNL     1      -0.285  10.352  22.743  0.00  0.00    +0.000 A 
ATOM      7  C   UNL     1      -1.045  11.238  21.979  0.00  0.00    +0.000 A 
ATOM      8  C   UNL     1      -1.030  11.133  20.594  0.00  0.00    +0.000 A 
ATOM      9 CL   UNL     1      -2.028  12.177  19.655  0.00  0.00    +0.000 Cl
ATOM     10  C   UNL     1      -0.223  10.181  19.958  0.00  0.00    +0.000 A 
ENDBRANCH   3   4
BRANCH   2  11
ATOM     11  S   UNL     1       1.992  10.063  18.033  0.00  0.00    +0.000 S 
ATOM     12  H   UNL     1       1.099   9.774  17.085  0.00  0.00    +0.000 HD
ENDBRANCH   2  11
BRANCH   1  13
ATOM     13  C   UNL     1       3.613   7.567  17.202  0.00  0.00    +0.000 C 
BRANCH  13  17
ATOM     14  C   UNL     1       6.695   4.953  14.334  0.00  0.00    +0.000 C 
ATOM     15  N   UNL     1       6.061   5.360  15.569  0.00  0.00    +0.000 N 
ATOM     16  C   UNL     1       4.864   6.017  15.621  0.00  0.00    +0.000 A 
ATOM     17  C   UNL     1       4.697   6.555  16.892  0.00  0.00    +0.000 A 
ATOM     18  C   UNL     1       5.753   5.982  17.690  0.00  0.00    +0.000 A 
ATOM     19  C   UNL     1       6.104   6.029  19.058  0.00  0.00    +0.000 A 
ATOM     20  C   UNL     1       7.237   5.340  19.517  0.00  0.00    +0.000 A 
ATOM     21  C   UNL     1       8.040   4.620  18.640  0.00  0.00    +0.000 A 
ATOM     22  C   UNL     1       7.731   4.563  17.286  0.00  0.00    +0.000 A 
ATOM     23  C   UNL     1       6.582   5.239  16.832  0.00  0.00    +0.000 A 
ENDBRANCH  13  17
ENDBRANCH   1  13
BRANCH   1  24
ATOM     24  C   UNL     1       2.339   6.051  18.763  0.00  0.00    +0.000 C 
BRANCH  24  25
ATOM     25  C   UNL     1       1.580   5.089  17.823  0.00  0.00    +0.000 C 
BRANCH  25  26
ATOM     26  C   UNL     1       1.899   3.594  17.981  0.00  0.00    +0.000 C 
BRANCH  26  27
ATOM     27  N   UNL     1       2.431   3.334  19.304  0.00  0.00    +0.000 NA
ATOM     28  C   UNL     1       1.433   3.050  20.343  0.00  0.00    +0.000 C 
ATOM     29  C   UNL     1       2.143   3.149  21.697  0.00  0.00    +0.000 C 
ATOM     30  O   UNL     1       3.139   2.120  21.801  0.00  0.00    +0.000 OA
ATOM     31  C   UNL     1       4.129   2.290  20.771  0.00  0.00    +0.000 C 
ATOM     32  C   UNL     1       3.508   2.337  19.358  0.00  0.00    +0.000 C 
ENDBRANCH  26  27
ENDBRANCH  25  26
ENDBRANCH  24  25
ENDBRANCH   1  24
TORSDOF 8
ENDMDL
