MODEL 1
REMARK VINA RESULT:      -7.4      0.000      0.000
REMARK  Name = 
REMARK  9 active torsions:
REMARK  status: ('A' for Active; 'I' for Inactive)
REMARK    1  A    between atoms: C_1  and  O_2
REMARK    2  A    between atoms: O_2  and  C_3
REMARK    3  A    between atoms: C_3  and  C_4
REMARK    4  A    between atoms: C_4  and  N_5
REMARK    5  A    between atoms: C_9  and  C_10
REMARK    6  A    between atoms: C_12  and  C_13
REMARK    7  A    between atoms: N_14  and  C_15
REMARK    8  A    between atoms: C_15  and  C_16
REMARK    9  A    between atoms: C_21  and  C_22
REMARK                            x       y       z     vdW  Elec       q    Type
REMARK                         _______ _______ _______ _____ _____    ______ ____
ROOT
ATOM      1  C   UNL     1       1.949   7.761  19.714  0.00  0.00    +0.000 A 
ATOM      2  C   UNL     1       1.334   7.741  20.992  0.00  0.00    +0.000 A 
ATOM      3  C   UNL     1       0.550   8.871  21.116  0.00  0.00    +0.000 A 
ATOM      4  C   UNL     1      -0.346   9.236  22.248  0.00  0.00    +0.000 C 
ATOM      5  N   UNL     1       0.692   9.616  19.956  0.00  0.00    +0.000 N 
ATOM      6  C   UNL     1       1.570   8.954  19.105  0.00  0.00    +0.000 A 
ATOM      7  C   UNL     1       1.942   9.425  17.736  0.00  0.00    +0.000 C 
ENDROOT
BRANCH   1  12
ATOM      8  N   UNL     1       4.770   3.884  16.759  0.00  0.00    +0.000 N 
ATOM      9  C   UNL     1       4.110   4.784  17.543  0.00  0.00    +0.000 C 
ATOM     10  N   UNL     1       4.086   6.054  17.285  0.00  0.00    +0.000 NA
ATOM     11  N   UNL     1       3.298   6.968  17.966  0.00  0.00    +0.000 NA
ATOM     12  C   UNL     1       2.768   6.699  19.119  0.00  0.00    +0.000 C 
ATOM     13  C   UNL     1       2.946   5.431  19.894  0.00  0.00    +0.000 C 
ATOM     14  S   UNL     1       3.309   4.010  18.877  0.00  0.00    +0.000 S 
ATOM     15  H   UNL     1       4.941   2.979  17.186  0.00  0.00    +0.000 HD
BRANCH   8  16
ATOM     16  C   UNL     1       5.773   4.269  15.781  0.00  0.00    +0.000 C 
BRANCH  16  17
ATOM     17  C   UNL     1       7.090   4.587  16.491  0.00  0.00    +0.000 C 
BRANCH  17  19
ATOM     18  C   UNL     1       7.446   6.756  17.354  0.00  0.00    +0.000 C 
ATOM     19  O   UNL     1       7.445   5.945  16.190  0.00  0.00    +0.000 OA
ENDBRANCH  17  19
ENDBRANCH  16  17
ENDBRANCH   8  16
ENDBRANCH   1  12
BRANCH   5  20
ATOM     20  C   UNL     1      -0.165  10.741  19.588  0.00  0.00    +0.000 C 
BRANCH  20  21
ATOM     21  C   UNL     1      -1.539  10.440  18.974  0.00  0.00    +0.000 C 
ATOM     22  C   UNL     1      -1.563   9.998  17.523  0.00  0.00    +0.000 C 
ATOM     23  C   UNL     1      -2.974  10.333  17.099  0.00  0.00    +0.000 C 
ATOM     24  C   UNL     1      -3.340  11.520  17.964  0.00  0.00    +0.000 C 
ATOM     25  O   UNL     1      -2.449  11.543  19.085  0.00  0.00    +0.000 OA
ENDBRANCH  20  21
ENDBRANCH   5  20
TORSDOF 6
ENDMDL
MODEL 2
REMARK VINA RESULT:      -7.1      1.592      2.299
REMARK  Name = 
REMARK  9 active torsions:
REMARK  status: ('A' for Active; 'I' for Inactive)
REMARK    1  A    between atoms: C_1  and  O_2
REMARK    2  A    between atoms: O_2  and  C_3
REMARK    3  A    between atoms: C_3  and  C_4
REMARK    4  A    between atoms: C_4  and  N_5
REMARK    5  A    between atoms: C_9  and  C_10
REMARK    6  A    between atoms: C_12  and  C_13
REMARK    7  A    between atoms: N_14  and  C_15
REMARK    8  A    between atoms: C_15  and  C_16
REMARK    9  A    between atoms: C_21  and  C_22
REMARK                            x       y       z     vdW  Elec       q    Type
REMARK                         _______ _______ _______ _____ _____    ______ ____
ROOT
ATOM      1  C   UNL     1       1.857   7.902  19.822  0.00  0.00    +0.000 A 
ATOM      2  C   UNL     1       1.343   7.841  21.142  0.00  0.00    +0.000 A 
ATOM      3  C   UNL     1       0.560   8.957  21.357  0.00  0.00    +0.000 A 
ATOM      4  C   UNL     1      -0.250   9.282  22.564  0.00  0.00    +0.000 C 
ATOM      5  N   UNL     1       0.603   9.734  20.209  0.00  0.00    +0.000 N 
ATOM      6  C   UNL     1       1.419   9.105  19.276  0.00  0.00    +0.000 A 
ATOM      7  C   UNL     1       1.678   9.615  17.894  0.00  0.00    +0.000 C 
ENDROOT
BRANCH   1  12
ATOM      8  N   UNL     1       4.588   4.228  16.540  0.00  0.00    +0.000 N 
ATOM      9  C   UNL     1       3.943   5.069  17.399  0.00  0.00    +0.000 C 
ATOM     10  N   UNL     1       4.017   6.360  17.304  0.00  0.00    +0.000 NA
ATOM     11  N   UNL     1       3.251   7.236  18.056  0.00  0.00    +0.000 NA
ATOM     12  C   UNL     1       2.638   6.866  19.137  0.00  0.00    +0.000 C 
ATOM     13  C   UNL     1       2.688   5.501  19.752  0.00  0.00    +0.000 C 
ATOM     14  S   UNL     1       3.017   4.196  18.582  0.00  0.00    +0.000 S 
ATOM     15  H   UNL     1       4.674   3.268  16.856  0.00  0.00    +0.000 HD
BRANCH   8  16
ATOM     16  C   UNL     1       5.669   4.658  15.670  0.00  0.00    +0.000 C 
BRANCH  16  17
ATOM     17  C   UNL     1       6.958   4.798  16.480  0.00  0.00    +0.000 C 
BRANCH  17  19
ATOM     18  C   UNL     1       7.497   6.832  17.553  0.00  0.00    +0.000 C 
ATOM     19  O   UNL     1       7.449   6.137  16.317  0.00  0.00    +0.000 OA
ENDBRANCH  17  19
ENDBRANCH  16  17
ENDBRANCH   8  16
ENDBRANCH   1  12
BRANCH   5  20
ATOM     20  C   UNL     1      -0.293  10.856  19.938  0.00  0.00    +0.000 C 
BRANCH  20  21
ATOM     21  C   UNL     1       0.240  12.281  20.144  0.00  0.00    +0.000 C 
ATOM     22  C   UNL     1       0.631  13.056  18.900  0.00  0.00    +0.000 C 
ATOM     23  C   UNL     1       1.584  14.094  19.443  0.00  0.00    +0.000 C 
ATOM     24  C   UNL     1       2.213  13.416  20.642  0.00  0.00    +0.000 C 
ATOM     25  O   UNL     1       1.366  12.329  21.031  0.00  0.00    +0.000 OA
ENDBRANCH  20  21
ENDBRANCH   5  20
TORSDOF 6
ENDMDL
MODEL 3
REMARK VINA RESULT:      -7.1      1.025      1.222
REMARK  Name = 
REMARK  9 active torsions:
REMARK  status: ('A' for Active; 'I' for Inactive)
REMARK    1  A    between atoms: C_1  and  O_2
REMARK    2  A    between atoms: O_2  and  C_3
REMARK    3  A    between atoms: C_3  and  C_4
REMARK    4  A    between atoms: C_4  and  N_5
REMARK    5  A    between atoms: C_9  and  C_10
REMARK    6  A    between atoms: C_12  and  C_13
REMARK    7  A    between atoms: N_14  and  C_15
REMARK    8  A    between atoms: C_15  and  C_16
REMARK    9  A    between atoms: C_21  and  C_22
REMARK                            x       y       z     vdW  Elec       q    Type
REMARK                         _______ _______ _______ _____ _____    ______ ____
ROOT
ATOM      1  C   UNL     1       2.085   7.565  19.509  0.00  0.00    +0.000 A 
ATOM      2  C   UNL     1       1.569   7.552  20.830  0.00  0.00    +0.000 A 
ATOM      3  C   UNL     1       0.844   8.711  21.025  0.00  0.00    +0.000 A 
ATOM      4  C   UNL     1       0.053   9.096  22.227  0.00  0.00    +0.000 C 
ATOM      5  N   UNL     1       0.928   9.466  19.866  0.00  0.00    +0.000 N 
ATOM      6  C   UNL     1       1.710   8.781  18.943  0.00  0.00    +0.000 A 
ATOM      7  C   UNL     1       1.996   9.254  17.554  0.00  0.00    +0.000 C 
ENDROOT
BRANCH   1  12
ATOM      8  N   UNL     1       4.915   3.868  16.339  0.00  0.00    +0.000 N 
ATOM      9  C   UNL     1       4.212   4.702  17.159  0.00  0.00    +0.000 C 
ATOM     10  N   UNL     1       4.589   5.916  17.412  0.00  0.00    +0.000 NA
ATOM     11  N   UNL     1       3.820   6.836  18.107  0.00  0.00    +0.000 NA
ATOM     12  C   UNL     1       2.812   6.479  18.841  0.00  0.00    +0.000 C 
ATOM     13  C   UNL     1       2.356   5.074  19.086  0.00  0.00    +0.000 C 
ATOM     14  S   UNL     1       2.775   3.942  17.773  0.00  0.00    +0.000 S 
ATOM     15  H   UNL     1       4.680   2.883  16.418  0.00  0.00    +0.000 HD
BRANCH   8  16
ATOM     16  C   UNL     1       6.293   4.112  15.949  0.00  0.00    +0.000 C 
BRANCH  16  17
ATOM     17  C   UNL     1       6.382   4.248  14.429  0.00  0.00    +0.000 C 
BRANCH  17  19
ATOM     18  C   UNL     1       8.008   5.257  13.044  0.00  0.00    +0.000 C 
ATOM     19  O   UNL     1       7.112   5.447  14.127  0.00  0.00    +0.000 OA
ENDBRANCH  17  19
ENDBRANCH  16  17
ENDBRANCH   8  16
ENDBRANCH   1  12
BRANCH   5  20
ATOM     20  C   UNL     1       0.092  10.629  19.576  0.00  0.00    +0.000 C 
BRANCH  20  21
ATOM     21  C   UNL     1      -1.331  10.392  19.053  0.00  0.00    +0.000 C 
ATOM     22  C   UNL     1      -1.477  10.051  17.583  0.00  0.00    +0.000 C 
ATOM     23  C   UNL     1      -2.908  10.436  17.294  0.00  0.00    +0.000 C 
ATOM     24  C   UNL     1      -3.182  11.567  18.263  0.00  0.00    +0.000 C 
ATOM     25  O   UNL     1      -2.207  11.499  19.309  0.00  0.00    +0.000 OA
ENDBRANCH  20  21
ENDBRANCH   5  20
TORSDOF 6
ENDMDL
MODEL 4
REMARK VINA RESULT:      -7.0      3.322      8.798
REMARK  Name = 
REMARK  9 active torsions:
REMARK  status: ('A' for Active; 'I' for Inactive)
REMARK    1  A    between atoms: C_1  and  O_2
REMARK    2  A    between atoms: O_2  and  C_3
REMARK    3  A    between atoms: C_3  and  C_4
REMARK    4  A    between atoms: C_4  and  N_5
REMARK    5  A    between atoms: C_9  and  C_10
REMARK    6  A    between atoms: C_12  and  C_13
REMARK    7  A    between atoms: N_14  and  C_15
REMARK    8  A    between atoms: C_15  and  C_16
REMARK    9  A    between atoms: C_21  and  C_22
REMARK                            x       y       z     vdW  Elec       q    Type
REMARK                         _______ _______ _______ _____ _____    ______ ____
ROOT
ATOM      1  C   UNL     1       1.410   9.214  19.078  0.00  0.00    +0.000 A 
ATOM      2  C   UNL     1       2.185   9.029  17.905  0.00  0.00    +0.000 A 
ATOM      3  C   UNL     1       2.868   7.834  18.018  0.00  0.00    +0.000 A 
ATOM      4  C   UNL     1       3.738   7.184  16.999  0.00  0.00    +0.000 C 
ATOM      5  N   UNL     1       2.564   7.286  19.255  0.00  0.00    +0.000 N 
ATOM      6  C   UNL     1       1.693   8.141  19.920  0.00  0.00    +0.000 A 
ATOM      7  C   UNL     1       1.103   7.873  21.267  0.00  0.00    +0.000 C 
ENDROOT
BRANCH   1  12
ATOM      8  N   UNL     1      -2.691  13.057  19.441  0.00  0.00    +0.000 N 
ATOM      9  C   UNL     1      -1.653  12.173  19.405  0.00  0.00    +0.000 C 
ATOM     10  N   UNL     1      -1.827  10.889  19.395  0.00  0.00    +0.000 NA
ATOM     11  N   UNL     1      -0.808   9.971  19.196  0.00  0.00    +0.000 NA
ATOM     12  C   UNL     1       0.443  10.288  19.329  0.00  0.00    +0.000 C 
ATOM     13  C   UNL     1       0.971  11.627  19.742  0.00  0.00    +0.000 C 
ATOM     14  S   UNL     1      -0.117  12.984  19.347  0.00  0.00    +0.000 S 
ATOM     15  H   UNL     1      -2.444  14.005  19.706  0.00  0.00    +0.000 HD
BRANCH   8  16
ATOM     16  C   UNL     1      -4.044  12.679  19.812  0.00  0.00    +0.000 C 
BRANCH  16  17
ATOM     17  C   UNL     1      -4.282  13.000  21.289  0.00  0.00    +0.000 C 
BRANCH  17  19
ATOM     18  C   UNL     1      -6.325  11.978  20.687  0.00  0.00    +0.000 C 
ATOM     19  O   UNL     1      -5.407  12.230  21.739  0.00  0.00    +0.000 OA
ENDBRANCH  17  19
ENDBRANCH  16  17
ENDBRANCH   8  16
ENDBRANCH   1  12
BRANCH   5  20
ATOM     20  C   UNL     1       2.876   5.914  19.648  0.00  0.00    +0.000 C 
BRANCH  20  21
ATOM     21  C   UNL     1       1.951   4.788  19.165  0.00  0.00    +0.000 C 
ATOM     22  C   UNL     1       1.120   4.080  20.218  0.00  0.00    +0.000 C 
ATOM     23  C   UNL     1       0.804   2.759  19.557  0.00  0.00    +0.000 C 
ATOM     24  C   UNL     1       1.989   2.517  18.646  0.00  0.00    +0.000 C 
ATOM     25  O   UNL     1       2.650   3.770  18.436  0.00  0.00    +0.000 OA
ENDBRANCH  20  21
ENDBRANCH   5  20
TORSDOF 6
ENDMDL
MODEL 5
REMARK VINA RESULT:      -7.0      2.688      8.612
REMARK  Name = 
REMARK  9 active torsions:
REMARK  status: ('A' for Active; 'I' for Inactive)
REMARK    1  A    between atoms: C_1  and  O_2
REMARK    2  A    between atoms: O_2  and  C_3
REMARK    3  A    between atoms: C_3  and  C_4
REMARK    4  A    between atoms: C_4  and  N_5
REMARK    5  A    between atoms: C_9  and  C_10
REMARK    6  A    between atoms: C_12  and  C_13
REMARK    7  A    between atoms: N_14  and  C_15
REMARK    8  A    between atoms: C_15  and  C_16
REMARK    9  A    between atoms: C_21  and  C_22
REMARK                            x       y       z     vdW  Elec       q    Type
REMARK                         _______ _______ _______ _____ _____    ______ ____
ROOT
ATOM      1  C   UNL     1       3.146   6.052  18.036  0.00  0.00    +0.000 A 
ATOM      2  C   UNL     1       2.759   4.690  18.098  0.00  0.00    +0.000 A 
ATOM      3  C   UNL     1       3.672   3.945  17.378  0.00  0.00    +0.000 A 
ATOM      4  C   UNL     1       3.722   2.464  17.231  0.00  0.00    +0.000 C 
ATOM      5  N   UNL     1       4.601   4.819  16.836  0.00  0.00    +0.000 N 
ATOM      6  C   UNL     1       4.267   6.115  17.213  0.00  0.00    +0.000 A 
ATOM      7  C   UNL     1       5.058   7.333  16.858  0.00  0.00    +0.000 C 
ENDROOT
BRANCH   1  12
ATOM      8  N   UNL     1       0.290   9.832  21.083  0.00  0.00    +0.000 N 
ATOM      9  C   UNL     1       1.017   8.979  20.305  0.00  0.00    +0.000 C 
ATOM     10  N   UNL     1       1.555   7.894  20.767  0.00  0.00    +0.000 NA
ATOM     11  N   UNL     1       2.158   6.931  19.975  0.00  0.00    +0.000 NA
ATOM     12  C   UNL     1       2.529   7.172  18.756  0.00  0.00    +0.000 C 
ATOM     13  C   UNL     1       2.412   8.485  18.045  0.00  0.00    +0.000 C 
ATOM     14  S   UNL     1       1.093   9.519  18.655  0.00  0.00    +0.000 S 
ATOM     15  H   UNL     1       0.143  10.757  20.693  0.00  0.00    +0.000 HD
BRANCH   8  16
ATOM     16  C   UNL     1       0.328   9.808  22.536  0.00  0.00    +0.000 C 
BRANCH  16  17
ATOM     17  C   UNL     1      -0.930  10.476  23.094  0.00  0.00    +0.000 C 
BRANCH  17  19
ATOM     18  C   UNL     1      -1.636  12.643  22.477  0.00  0.00    +0.000 C 
ATOM     19  O   UNL     1      -0.680  11.885  23.201  0.00  0.00    +0.000 OA
ENDBRANCH  17  19
ENDBRANCH  16  17
ENDBRANCH   8  16
ENDBRANCH   1  12
BRANCH   5  20
ATOM     20  C   UNL     1       5.865   4.408  16.230  0.00  0.00    +0.000 C 
BRANCH  20  21
ATOM     21  C   UNL     1       6.118   4.761  14.758  0.00  0.00    +0.000 C 
ATOM     22  C   UNL     1       6.011   3.632  13.751  0.00  0.00    +0.000 C 
ATOM     23  C   UNL     1       6.828   4.147  12.589  0.00  0.00    +0.000 C 
ATOM     24  C   UNL     1       7.866   5.035  13.241  0.00  0.00    +0.000 C 
ATOM     25  O   UNL     1       7.393   5.383  14.548  0.00  0.00    +0.000 OA
ENDBRANCH  20  21
ENDBRANCH   5  20
TORSDOF 6
ENDMDL
MODEL 6
REMARK VINA RESULT:      -6.8      2.932      8.185
REMARK  Name = 
REMARK  9 active torsions:
REMARK  status: ('A' for Active; 'I' for Inactive)
REMARK    1  A    between atoms: C_1  and  O_2
REMARK    2  A    between atoms: O_2  and  C_3
REMARK    3  A    between atoms: C_3  and  C_4
REMARK    4  A    between atoms: C_4  and  N_5
REMARK    5  A    between atoms: C_9  and  C_10
REMARK    6  A    between atoms: C_12  and  C_13
REMARK    7  A    between atoms: N_14  and  C_15
REMARK    8  A    between atoms: C_15  and  C_16
REMARK    9  A    between atoms: C_21  and  C_22
REMARK                            x       y       z     vdW  Elec       q    Type
REMARK                         _______ _______ _______ _____ _____    ______ ____
ROOT
ATOM      1  C   UNL     1       1.948   8.497  18.524  0.00  0.00    +0.000 A 
ATOM      2  C   UNL     1       2.902   8.329  17.489  0.00  0.00    +0.000 A 
ATOM      3  C   UNL     1       3.667   7.216  17.779  0.00  0.00    +0.000 A 
ATOM      4  C   UNL     1       4.735   6.604  16.941  0.00  0.00    +0.000 C 
ATOM      5  N   UNL     1       3.233   6.707  18.993  0.00  0.00    +0.000 N 
ATOM      6  C   UNL     1       2.198   7.505  19.467  0.00  0.00    +0.000 A 
ATOM      7  C   UNL     1       1.441   7.250  20.731  0.00  0.00    +0.000 C 
ENDROOT
BRANCH   1  12
ATOM      8  N   UNL     1      -2.383  12.053  17.947  0.00  0.00    +0.000 N 
ATOM      9  C   UNL     1      -1.312  11.233  18.154  0.00  0.00    +0.000 C 
ATOM     10  N   UNL     1      -1.360   9.954  17.953  0.00  0.00    +0.000 NA
ATOM     11  N   UNL     1      -0.253   9.121  17.999  0.00  0.00    +0.000 NA
ATOM     12  C   UNL     1       0.859   9.481  18.561  0.00  0.00    +0.000 C 
ATOM     13  C   UNL     1       1.110  10.780  19.261  0.00  0.00    +0.000 C 
ATOM     14  S   UNL     1       0.086  12.121  18.681  0.00  0.00    +0.000 S 
ATOM     15  H   UNL     1      -2.316  12.970  18.376  0.00  0.00    +0.000 HD
BRANCH   8  16
ATOM     16  C   UNL     1      -3.745  11.563  17.819  0.00  0.00    +0.000 C 
BRANCH  16  17
ATOM     17  C   UNL     1      -4.157  11.566  16.347  0.00  0.00    +0.000 C 
BRANCH  17  19
ATOM     18  C   UNL     1      -3.392  10.194  14.584  0.00  0.00    +0.000 C 
ATOM     19  O   UNL     1      -3.027  11.154  15.563  0.00  0.00    +0.000 OA
ENDBRANCH  17  19
ENDBRANCH  16  17
ENDBRANCH   8  16
ENDBRANCH   1  12
BRANCH   5  20
ATOM     20  C   UNL     1       3.607   5.396  19.518  0.00  0.00    +0.000 C 
BRANCH  20  21
ATOM     21  C   UNL     1       2.911   4.154  18.944  0.00  0.00    +0.000 C 
ATOM     22  C   UNL     1       1.822   3.523  19.789  0.00  0.00    +0.000 C 
ATOM     23  C   UNL     1       1.765   2.111  19.256  0.00  0.00    +0.000 C 
ATOM     24  C   UNL     1       3.179   1.845  18.784  0.00  0.00    +0.000 C 
ATOM     25  O   UNL     1       3.832   3.108  18.607  0.00  0.00    +0.000 OA
ENDBRANCH  20  21
ENDBRANCH   5  20
TORSDOF 6
ENDMDL
MODEL 7
REMARK VINA RESULT:      -6.8      3.613      8.130
REMARK  Name = 
REMARK  9 active torsions:
REMARK  status: ('A' for Active; 'I' for Inactive)
REMARK    1  A    between atoms: C_1  and  O_2
REMARK    2  A    between atoms: O_2  and  C_3
REMARK    3  A    between atoms: C_3  and  C_4
REMARK    4  A    between atoms: C_4  and  N_5
REMARK    5  A    between atoms: C_9  and  C_10
REMARK    6  A    between atoms: C_12  and  C_13
REMARK    7  A    between atoms: N_14  and  C_15
REMARK    8  A    between atoms: C_15  and  C_16
REMARK    9  A    between atoms: C_21  and  C_22
REMARK                            x       y       z     vdW  Elec       q    Type
REMARK                         _______ _______ _______ _____ _____    ______ ____
ROOT
ATOM      1  C   UNL     1       1.797   9.002  18.641  0.00  0.00    +0.000 A 
ATOM      2  C   UNL     1       2.654   8.513  17.623  0.00  0.00    +0.000 A 
ATOM      3  C   UNL     1       3.150   7.288  18.023  0.00  0.00    +0.000 A 
ATOM      4  C   UNL     1       4.021   6.363  17.246  0.00  0.00    +0.000 C 
ATOM      5  N   UNL     1       2.649   7.018  19.286  0.00  0.00    +0.000 N 
ATOM      6  C   UNL     1       1.841   8.079  19.681  0.00  0.00    +0.000 A 
ATOM      7  C   UNL     1       1.085   8.136  20.970  0.00  0.00    +0.000 C 
ENDROOT
BRANCH   1  12
ATOM      8  N   UNL     1      -1.015  13.866  19.046  0.00  0.00    +0.000 N 
ATOM      9  C   UNL     1      -0.390  12.663  18.894  0.00  0.00    +0.000 C 
ATOM     10  N   UNL     1       0.900  12.543  18.855  0.00  0.00    +0.000 NA
ATOM     11  N   UNL     1       1.564  11.327  18.863  0.00  0.00    +0.000 NA
ATOM     12  C   UNL     1       0.967  10.211  18.582  0.00  0.00    +0.000 C 
ATOM     13  C   UNL     1      -0.467  10.059  18.178  0.00  0.00    +0.000 C 
ATOM     14  S   UNL     1      -1.529  11.355  18.791  0.00  0.00    +0.000 S 
ATOM     15  H   UNL     1      -2.000  13.877  18.804  0.00  0.00    +0.000 HD
BRANCH   8  16
ATOM     16  C   UNL     1      -0.346  15.139  18.839  0.00  0.00    +0.000 C 
BRANCH  16  17
ATOM     17  C   UNL     1       0.025  15.752  20.190  0.00  0.00    +0.000 C 
BRANCH  17  19
ATOM     18  C   UNL     1       2.006  16.035  18.935  0.00  0.00    +0.000 C 
ATOM     19  O   UNL     1       1.452  15.908  20.235  0.00  0.00    +0.000 OA
ENDBRANCH  17  19
ENDBRANCH  16  17
ENDBRANCH   8  16
ENDBRANCH   1  12
BRANCH   5  20
ATOM     20  C   UNL     1       2.725   5.716  19.944  0.00  0.00    +0.000 C 
BRANCH  20  21
ATOM     21  C   UNL     1       1.952   4.541  19.329  0.00  0.00    +0.000 C 
ATOM     22  C   UNL     1       0.876   3.902  20.185  0.00  0.00    +0.000 C 
ATOM     23  C   UNL     1       0.736   2.529  19.570  0.00  0.00    +0.000 C 
ATOM     24  C   UNL     1       2.115   2.238  19.017  0.00  0.00    +0.000 C 
ATOM     25  O   UNL     1       2.811   3.482  18.886  0.00  0.00    +0.000 OA
ENDBRANCH  20  21
ENDBRANCH   5  20
TORSDOF 6
ENDMDL
MODEL 8
REMARK VINA RESULT:      -6.8      3.163      8.362
REMARK  Name = 
REMARK  9 active torsions:
REMARK  status: ('A' for Active; 'I' for Inactive)
REMARK    1  A    between atoms: C_1  and  O_2
REMARK    2  A    between atoms: O_2  and  C_3
REMARK    3  A    between atoms: C_3  and  C_4
REMARK    4  A    between atoms: C_4  and  N_5
REMARK    5  A    between atoms: C_9  and  C_10
REMARK    6  A    between atoms: C_12  and  C_13
REMARK    7  A    between atoms: N_14  and  C_15
REMARK    8  A    between atoms: C_15  and  C_16
REMARK    9  A    between atoms: C_21  and  C_22
REMARK                            x       y       z     vdW  Elec       q    Type
REMARK                         _______ _______ _______ _____ _____    ______ ____
ROOT
ATOM      1  C   UNL     1       1.822   8.565  18.480  0.00  0.00    +0.000 A 
ATOM      2  C   UNL     1       2.765   8.383  17.438  0.00  0.00    +0.000 A 
ATOM      3  C   UNL     1       3.607   7.346  17.789  0.00  0.00    +0.000 A 
ATOM      4  C   UNL     1       4.697   6.744  16.972  0.00  0.00    +0.000 C 
ATOM      5  N   UNL     1       3.232   6.901  19.046  0.00  0.00    +0.000 N 
ATOM      6  C   UNL     1       2.156   7.662  19.487  0.00  0.00    +0.000 A 
ATOM      7  C   UNL     1       1.441   7.453  20.783  0.00  0.00    +0.000 C 
ENDROOT
BRANCH   1  12
ATOM      8  N   UNL     1      -2.556  12.018  17.685  0.00  0.00    +0.000 N 
ATOM      9  C   UNL     1      -1.494  11.206  17.956  0.00  0.00    +0.000 C 
ATOM     10  N   UNL     1      -1.382  10.012  17.465  0.00  0.00    +0.000 NA
ATOM     11  N   UNL     1      -0.246   9.228  17.590  0.00  0.00    +0.000 NA
ATOM     12  C   UNL     1       0.672   9.476  18.473  0.00  0.00    +0.000 C 
ATOM     13  C   UNL     1       0.640  10.576  19.488  0.00  0.00    +0.000 C 
ATOM     14  S   UNL     1      -0.338  11.984  18.995  0.00  0.00    +0.000 S 
ATOM     15  H   UNL     1      -2.671  12.807  18.314  0.00  0.00    +0.000 HD
BRANCH   8  16
ATOM     16  C   UNL     1      -3.804  11.531  17.122  0.00  0.00    +0.000 C 
BRANCH  16  17
ATOM     17  C   UNL     1      -4.802  11.250  18.246  0.00  0.00    +0.000 C 
BRANCH  17  19
ATOM     18  C   UNL     1      -7.061  11.590  18.847  0.00  0.00    +0.000 C 
ATOM     19  O   UNL     1      -6.022  11.945  17.948  0.00  0.00    +0.000 OA
ENDBRANCH  17  19
ENDBRANCH  16  17
ENDBRANCH   8  16
ENDBRANCH   1  12
BRANCH   5  20
ATOM     20  C   UNL     1       3.701   5.658  19.655  0.00  0.00    +0.000 C 
BRANCH  20  21
ATOM     21  C   UNL     1       2.899   4.374  19.406  0.00  0.00    +0.000 C 
ATOM     22  C   UNL     1       2.016   4.343  18.173  0.00  0.00    +0.000 C 
ATOM     23  C   UNL     1       1.006   3.273  18.517  0.00  0.00    +0.000 C 
ATOM     24  C   UNL     1       0.903   3.344  20.026  0.00  0.00    +0.000 C 
ATOM     25  O   UNL     1       2.068   4.014  20.519  0.00  0.00    +0.000 OA
ENDBRANCH  20  21
ENDBRANCH   5  20
TORSDOF 6
ENDMDL
MODEL 9
REMARK VINA RESULT:      -6.8      3.034      8.594
REMARK  Name = 
REMARK  9 active torsions:
REMARK  status: ('A' for Active; 'I' for Inactive)
REMARK    1  A    between atoms: C_1  and  O_2
REMARK    2  A    between atoms: O_2  and  C_3
REMARK    3  A    between atoms: C_3  and  C_4
REMARK    4  A    between atoms: C_4  and  N_5
REMARK    5  A    between atoms: C_9  and  C_10
REMARK    6  A    between atoms: C_12  and  C_13
REMARK    7  A    between atoms: N_14  and  C_15
REMARK    8  A    between atoms: C_15  and  C_16
REMARK    9  A    between atoms: C_21  and  C_22
REMARK                            x       y       z     vdW  Elec       q    Type
REMARK                         _______ _______ _______ _____ _____    ______ ____
ROOT
ATOM      1  C   UNL     1       1.750   8.666  18.529  0.00  0.00    +0.000 A 
ATOM      2  C   UNL     1       2.695   8.474  17.490  0.00  0.00    +0.000 A 
ATOM      3  C   UNL     1       3.496   7.400  17.822  0.00  0.00    +0.000 A 
ATOM      4  C   UNL     1       4.570   6.777  16.999  0.00  0.00    +0.000 C 
ATOM      5  N   UNL     1       3.094   6.938  19.065  0.00  0.00    +0.000 N 
ATOM      6  C   UNL     1       2.042   7.729  19.516  0.00  0.00    +0.000 A 
ATOM      7  C   UNL     1       1.310   7.516  20.802  0.00  0.00    +0.000 C 
ENDROOT
BRANCH   1  12
ATOM      8  N   UNL     1      -2.578  12.195  17.794  0.00  0.00    +0.000 N 
ATOM      9  C   UNL     1      -1.518  11.373  18.046  0.00  0.00    +0.000 C 
ATOM     10  N   UNL     1      -1.495  10.129  17.685  0.00  0.00    +0.000 NA
ATOM     11  N   UNL     1      -0.378   9.316  17.782  0.00  0.00    +0.000 NA
ATOM     12  C   UNL     1       0.635   9.619  18.534  0.00  0.00    +0.000 C 
ATOM     13  C   UNL     1       0.743  10.824  19.417  0.00  0.00    +0.000 C 
ATOM     14  S   UNL     1      -0.236  12.210  18.869  0.00  0.00    +0.000 S 
ATOM     15  H   UNL     1      -2.602  13.052  18.337  0.00  0.00    +0.000 HD
BRANCH   8  16
ATOM     16  C   UNL     1      -3.892  11.703  17.418  0.00  0.00    +0.000 C 
BRANCH  16  17
ATOM     17  C   UNL     1      -4.802  11.671  18.647  0.00  0.00    +0.000 C 
BRANCH  17  19
ATOM     18  C   UNL     1      -6.862  10.781  19.382  0.00  0.00    +0.000 C 
ATOM     19  O   UNL     1      -5.816  10.679  18.429  0.00  0.00    +0.000 OA
ENDBRANCH  17  19
ENDBRANCH  16  17
ENDBRANCH   8  16
ENDBRANCH   1  12
BRANCH   5  20
ATOM     20  C   UNL     1       3.512   5.665  19.648  0.00  0.00    +0.000 C 
BRANCH  20  21
ATOM     21  C   UNL     1       2.687   4.411  19.331  0.00  0.00    +0.000 C 
ATOM     22  C   UNL     1       1.879   3.813  20.467  0.00  0.00    +0.000 C 
ATOM     23  C   UNL     1       1.680   2.385  20.015  0.00  0.00    +0.000 C 
ATOM     24  C   UNL     1       2.907   2.097  19.175  0.00  0.00    +0.000 C 
ATOM     25  O   UNL     1       3.480   3.349  18.783  0.00  0.00    +0.000 OA
ENDBRANCH  20  21
ENDBRANCH   5  20
TORSDOF 6
ENDMDL
