MODEL 1
REMARK VINA RESULT:      -7.2      0.000      0.000
REMARK  Name = 
REMARK  7 active torsions:
REMARK  status: ('A' for Active; 'I' for Inactive)
REMARK    1  A    between atoms: C_1  and  C_2
REMARK    2  A    between atoms: C_6  and  C_7
REMARK    3  A    between atoms: C_7  and  O_8
REMARK    4  A    between atoms: O_8  and  C_9
REMARK    5  A    between atoms: N_17  and  C_18
REMARK    6  A    between atoms: C_18  and  C_19
REMARK    7  A    between atoms: C_21  and  C_22
REMARK                            x       y       z     vdW  Elec       q    Type
REMARK                         _______ _______ _______ _____ _____    ______ ____
ROOT
ATOM      1  C   UNL     1       6.747   4.569  15.332  0.00  0.00    +0.000 C 
ATOM      2  C   UNL     1       5.605   3.540  15.450  0.00  0.00    +0.000 C 
ATOM      3  C   UNL     1       5.205   3.460  16.933  0.00  0.00    +0.000 C 
ATOM      4  C   UNL     1       6.236   4.326  17.651  0.00  0.00    +0.000 C 
ATOM      5  C   UNL     1       6.608   5.398  16.612  0.00  0.00    +0.000 C 
ATOM      6  O   UNL     1       7.817   6.051  17.011  0.00  0.00    +0.000 OA
ATOM      7  C   UNL     1       7.654   6.651  18.314  0.00  0.00    +0.000 C 
ATOM      8  C   UNL     1       7.167   5.634  19.374  0.00  0.00    +0.000 C 
ATOM      9  N   UNL     1       5.928   4.891  18.989  0.00  0.00    +0.000 NA
ENDROOT
BRANCH   1  10
ATOM     10  O   UNL     1       6.552   5.322  14.133  0.00  0.00    +0.000 OA
BRANCH  10  11
ATOM     11  C   UNL     1       7.387   4.896  13.045  0.00  0.00    +0.000 C 
BRANCH  11  17
ATOM     12  C   UNL     1       3.328   2.977  11.109  0.00  0.00    +0.000 C 
ATOM     13  C   UNL     1       4.802   2.843  11.355  0.00  0.00    +0.000 A 
ATOM     14  C   UNL     1       5.490   1.714  10.923  0.00  0.00    +0.000 A 
ATOM     15  C   UNL     1       6.849   1.620  11.184  0.00  0.00    +0.000 A 
ATOM     16  C   UNL     1       7.485   2.652  11.871  0.00  0.00    +0.000 A 
ATOM     17  C   UNL     1       6.743   3.767  12.263  0.00  0.00    +0.000 A 
ATOM     18  N   UNL     1       5.407   3.857  12.021  0.00  0.00    +0.000 NA
ENDBRANCH  11  17
ENDBRANCH  10  11
ENDBRANCH   1  10
BRANCH   9  19
ATOM     19  C   UNL     1       4.738   5.770  18.967  0.00  0.00    +0.000 C 
BRANCH  19  20
ATOM     20  C   UNL     1       3.566   5.204  19.704  0.00  0.00    +0.000 A 
ATOM     21  C   UNL     1       3.353   3.879  20.147  0.00  0.00    +0.000 A 
ATOM     22  C   UNL     1       2.081   3.892  20.662  0.00  0.00    +0.000 A 
ATOM     23  C   UNL     1       1.194   2.872  21.238  0.00  0.00    +0.000 C 
ATOM     24  O   UNL     1       1.576   5.155  20.579  0.00  0.00    +0.000 OA
ATOM     25  N   UNL     1       2.506   5.984  19.978  0.00  0.00    +0.000 NA
ENDBRANCH  19  20
ENDBRANCH   9  19
TORSDOF 5
ENDMDL
MODEL 2
REMARK VINA RESULT:      -7.1      2.046      6.775
REMARK  Name = 
REMARK  7 active torsions:
REMARK  status: ('A' for Active; 'I' for Inactive)
REMARK    1  A    between atoms: C_1  and  C_2
REMARK    2  A    between atoms: C_6  and  C_7
REMARK    3  A    between atoms: C_7  and  O_8
REMARK    4  A    between atoms: O_8  and  C_9
REMARK    5  A    between atoms: N_17  and  C_18
REMARK    6  A    between atoms: C_18  and  C_19
REMARK    7  A    between atoms: C_21  and  C_22
REMARK                            x       y       z     vdW  Elec       q    Type
REMARK                         _______ _______ _______ _____ _____    ______ ____
ROOT
ATOM      1  C   UNL     1       3.769   7.074  18.306  0.00  0.00    +0.000 C 
ATOM      2  C   UNL     1       3.661   7.388  16.799  0.00  0.00    +0.000 C 
ATOM      3  C   UNL     1       5.000   7.001  16.149  0.00  0.00    +0.000 C 
ATOM      4  C   UNL     1       5.898   6.624  17.324  0.00  0.00    +0.000 C 
ATOM      5  C   UNL     1       4.921   6.068  18.375  0.00  0.00    +0.000 C 
ATOM      6  O   UNL     1       5.569   6.018  19.650  0.00  0.00    +0.000 OA
ATOM      7  C   UNL     1       6.751   5.193  19.577  0.00  0.00    +0.000 C 
ATOM      8  C   UNL     1       7.715   5.643  18.454  0.00  0.00    +0.000 C 
ATOM      9  N   UNL     1       7.080   5.754  17.106  0.00  0.00    +0.000 NA
ENDROOT
BRANCH   1  10
ATOM     10  O   UNL     1       2.516   6.548  18.746  0.00  0.00    +0.000 OA
BRANCH  10  11
ATOM     11  C   UNL     1       1.929   5.616  17.825  0.00  0.00    +0.000 C 
BRANCH  11  17
ATOM     12  C   UNL     1       1.472   2.497  21.562  0.00  0.00    +0.000 C 
ATOM     13  C   UNL     1       1.840   2.706  20.123  0.00  0.00    +0.000 A 
ATOM     14  C   UNL     1       2.299   1.646  19.350  0.00  0.00    +0.000 A 
ATOM     15  C   UNL     1       2.645   1.884  18.027  0.00  0.00    +0.000 A 
ATOM     16  C   UNL     1       2.524   3.173  17.513  0.00  0.00    +0.000 A 
ATOM     17  C   UNL     1       2.040   4.190  18.334  0.00  0.00    +0.000 A 
ATOM     18  N   UNL     1       1.714   3.966  19.635  0.00  0.00    +0.000 NA
ENDBRANCH  11  17
ENDBRANCH  10  11
ENDBRANCH   1  10
BRANCH   9  19
ATOM     19  C   UNL     1       6.708   4.430  16.557  0.00  0.00    +0.000 C 
BRANCH  19  20
ATOM     20  C   UNL     1       6.715   4.383  15.062  0.00  0.00    +0.000 A 
ATOM     21  C   UNL     1       5.967   3.553  14.197  0.00  0.00    +0.000 A 
ATOM     22  C   UNL     1       6.441   3.852  12.944  0.00  0.00    +0.000 A 
ATOM     23  C   UNL     1       6.167   3.343  11.593  0.00  0.00    +0.000 C 
ATOM     24  O   UNL     1       7.379   4.834  13.042  0.00  0.00    +0.000 OA
ATOM     25  N   UNL     1       7.555   5.173  14.371  0.00  0.00    +0.000 NA
ENDBRANCH  19  20
ENDBRANCH   9  19
TORSDOF 5
ENDMDL
MODEL 3
REMARK VINA RESULT:      -7.1      2.828      7.102
REMARK  Name = 
REMARK  7 active torsions:
REMARK  status: ('A' for Active; 'I' for Inactive)
REMARK    1  A    between atoms: C_1  and  C_2
REMARK    2  A    between atoms: C_6  and  C_7
REMARK    3  A    between atoms: C_7  and  O_8
REMARK    4  A    between atoms: O_8  and  C_9
REMARK    5  A    between atoms: N_17  and  C_18
REMARK    6  A    between atoms: C_18  and  C_19
REMARK    7  A    between atoms: C_21  and  C_22
REMARK                            x       y       z     vdW  Elec       q    Type
REMARK                         _______ _______ _______ _____ _____    ______ ____
ROOT
ATOM      1  C   UNL     1       4.108   3.310  17.625  0.00  0.00    +0.000 C 
ATOM      2  C   UNL     1       4.617   3.722  19.022  0.00  0.00    +0.000 C 
ATOM      3  C   UNL     1       5.930   4.496  18.828  0.00  0.00    +0.000 C 
ATOM      4  C   UNL     1       6.227   4.372  17.336  0.00  0.00    +0.000 C 
ATOM      5  C   UNL     1       4.834   4.279  16.687  0.00  0.00    +0.000 C 
ATOM      6  O   UNL     1       4.964   3.796  15.346  0.00  0.00    +0.000 OA
ATOM      7  C   UNL     1       5.816   4.674  14.580  0.00  0.00    +0.000 C 
ATOM      8  C   UNL     1       7.193   4.893  15.252  0.00  0.00    +0.000 C 
ATOM      9  N   UNL     1       7.116   5.357  16.671  0.00  0.00    +0.000 NA
ENDROOT
BRANCH   1  10
ATOM     10  O   UNL     1       2.686   3.446  17.606  0.00  0.00    +0.000 OA
BRANCH  10  11
ATOM     11  C   UNL     1       2.108   3.619  18.909  0.00  0.00    +0.000 C 
BRANCH  11  17
ATOM     12  C   UNL     1       2.685   8.285  17.570  0.00  0.00    +0.000 C 
ATOM     13  C   UNL     1       2.298   7.313  18.644  0.00  0.00    +0.000 A 
ATOM     14  C   UNL     1       1.922   7.766  19.904  0.00  0.00    +0.000 A 
ATOM     15  C   UNL     1       1.586   6.834  20.876  0.00  0.00    +0.000 A 
ATOM     16  C   UNL     1       1.637   5.477  20.566  0.00  0.00    +0.000 A 
ATOM     17  C   UNL     1       2.004   5.087  19.278  0.00  0.00    +0.000 A 
ATOM     18  N   UNL     1       2.348   5.995  18.326  0.00  0.00    +0.000 NA
ENDBRANCH  11  17
ENDBRANCH  10  11
ENDBRANCH   1  10
BRANCH   9  19
ATOM     19  C   UNL     1       6.599   6.740  16.776  0.00  0.00    +0.000 C 
BRANCH  19  20
ATOM     20  C   UNL     1       7.452   7.631  17.622  0.00  0.00    +0.000 A 
ATOM     21  C   UNL     1       7.648   9.028  17.523  0.00  0.00    +0.000 A 
ATOM     22  C   UNL     1       8.603   9.305  18.469  0.00  0.00    +0.000 A 
ATOM     23  C   UNL     1       9.320  10.520  18.880  0.00  0.00    +0.000 C 
ATOM     24  O   UNL     1       8.929   8.159  19.128  0.00  0.00    +0.000 OA
ATOM     25  N   UNL     1       8.208   7.103  18.601  0.00  0.00    +0.000 NA
ENDBRANCH  19  20
ENDBRANCH   9  19
TORSDOF 5
ENDMDL
MODEL 4
REMARK VINA RESULT:      -7.1      1.884      7.377
REMARK  Name = 
REMARK  7 active torsions:
REMARK  status: ('A' for Active; 'I' for Inactive)
REMARK    1  A    between atoms: C_1  and  C_2
REMARK    2  A    between atoms: C_6  and  C_7
REMARK    3  A    between atoms: C_7  and  O_8
REMARK    4  A    between atoms: O_8  and  C_9
REMARK    5  A    between atoms: N_17  and  C_18
REMARK    6  A    between atoms: C_18  and  C_19
REMARK    7  A    between atoms: C_21  and  C_22
REMARK                            x       y       z     vdW  Elec       q    Type
REMARK                         _______ _______ _______ _____ _____    ______ ____
ROOT
ATOM      1  C   UNL     1       4.849   3.844  18.771  0.00  0.00    +0.000 C 
ATOM      2  C   UNL     1       4.113   3.439  17.477  0.00  0.00    +0.000 C 
ATOM      3  C   UNL     1       4.622   4.351  16.350  0.00  0.00    +0.000 C 
ATOM      4  C   UNL     1       5.520   5.363  17.056  0.00  0.00    +0.000 C 
ATOM      5  C   UNL     1       6.087   4.583  18.255  0.00  0.00    +0.000 C 
ATOM      6  O   UNL     1       6.648   5.500  19.199  0.00  0.00    +0.000 OA
ATOM      7  C   UNL     1       7.686   6.286  18.576  0.00  0.00    +0.000 C 
ATOM      8  C   UNL     1       7.194   7.002  17.295  0.00  0.00    +0.000 C 
ATOM      9  N   UNL     1       6.559   6.095  16.290  0.00  0.00    +0.000 NA
ENDROOT
BRANCH   1  10
ATOM     10  O   UNL     1       5.151   2.657  19.507  0.00  0.00    +0.000 OA
BRANCH  10  11
ATOM     11  C   UNL     1       4.325   2.475  20.667  0.00  0.00    +0.000 C 
BRANCH  11  17
ATOM     12  C   UNL     1       1.617   6.539  20.910  0.00  0.00    +0.000 C 
ATOM     13  C   UNL     1       1.673   5.068  20.623  0.00  0.00    +0.000 A 
ATOM     14  C   UNL     1       0.522   4.374  20.269  0.00  0.00    +0.000 A 
ATOM     15  C   UNL     1       0.612   3.010  20.027  0.00  0.00    +0.000 A 
ATOM     16  C   UNL     1       1.847   2.377  20.148  0.00  0.00    +0.000 A 
ATOM     17  C   UNL     1       2.968   3.132  20.489  0.00  0.00    +0.000 A 
ATOM     18  N   UNL     1       2.883   4.466  20.741  0.00  0.00    +0.000 NA
ENDBRANCH  11  17
ENDBRANCH  10  11
ENDBRANCH   1  10
BRANCH   9  19
ATOM     19  C   UNL     1       7.544   5.183  15.666  0.00  0.00    +0.000 C 
BRANCH  19  20
ATOM     20  C   UNL     1       7.139   4.713  14.305  0.00  0.00    +0.000 A 
ATOM     21  C   UNL     1       6.251   3.671  13.953  0.00  0.00    +0.000 A 
ATOM     22  C   UNL     1       6.333   3.602  12.584  0.00  0.00    +0.000 A 
ATOM     23  C   UNL     1       5.738   2.730  11.562  0.00  0.00    +0.000 C 
ATOM     24  O   UNL     1       7.179   4.571  12.136  0.00  0.00    +0.000 OA
ATOM     25  N   UNL     1       7.688   5.273  13.212  0.00  0.00    +0.000 NA
ENDBRANCH  19  20
ENDBRANCH   9  19
TORSDOF 5
ENDMDL
MODEL 5
REMARK VINA RESULT:      -6.9      3.495      5.870
REMARK  Name = 
REMARK  7 active torsions:
REMARK  status: ('A' for Active; 'I' for Inactive)
REMARK    1  A    between atoms: C_1  and  C_2
REMARK    2  A    between atoms: C_6  and  C_7
REMARK    3  A    between atoms: C_7  and  O_8
REMARK    4  A    between atoms: O_8  and  C_9
REMARK    5  A    between atoms: N_17  and  C_18
REMARK    6  A    between atoms: C_18  and  C_19
REMARK    7  A    between atoms: C_21  and  C_22
REMARK                            x       y       z     vdW  Elec       q    Type
REMARK                         _______ _______ _______ _____ _____    ______ ____
ROOT
ATOM      1  C   UNL     1       3.553   3.002  17.772  0.00  0.00    +0.000 C 
ATOM      2  C   UNL     1       2.963   4.155  16.934  0.00  0.00    +0.000 C 
ATOM      3  C   UNL     1       1.963   4.910  17.824  0.00  0.00    +0.000 C 
ATOM      4  C   UNL     1       1.883   4.076  19.099  0.00  0.00    +0.000 C 
ATOM      5  C   UNL     1       3.280   3.440  19.214  0.00  0.00    +0.000 C 
ATOM      6  O   UNL     1       3.236   2.356  20.148  0.00  0.00    +0.000 OA
ATOM      7  C   UNL     1       2.791   2.827  21.438  0.00  0.00    +0.000 C 
ATOM      8  C   UNL     1       1.441   3.578  21.357  0.00  0.00    +0.000 C 
ATOM      9  N   UNL     1       1.417   4.695  20.364  0.00  0.00    +0.000 NA
ENDROOT
BRANCH   1  10
ATOM     10  O   UNL     1       4.941   2.882  17.458  0.00  0.00    +0.000 OA
BRANCH  10  11
ATOM     11  C   UNL     1       5.387   3.814  16.461  0.00  0.00    +0.000 C 
BRANCH  11  17
ATOM     12  C   UNL     1       8.254   5.258  20.148  0.00  0.00    +0.000 C 
ATOM     13  C   UNL     1       7.609   5.594  18.836  0.00  0.00    +0.000 A 
ATOM     14  C   UNL     1       7.780   6.852  18.269  0.00  0.00    +0.000 A 
ATOM     15  C   UNL     1       7.154   7.130  17.062  0.00  0.00    +0.000 A 
ATOM     16  C   UNL     1       6.374   6.147  16.456  0.00  0.00    +0.000 A 
ATOM     17  C   UNL     1       6.257   4.899  17.067  0.00  0.00    +0.000 A 
ATOM     18  N   UNL     1       6.857   4.626  18.257  0.00  0.00    +0.000 NA
ENDBRANCH  11  17
ENDBRANCH  10  11
ENDBRANCH   1  10
BRANCH   9  19
ATOM     19  C   UNL     1       2.272   5.829  20.783  0.00  0.00    +0.000 C 
BRANCH  19  20
ATOM     20  C   UNL     1       1.743   7.161  20.357  0.00  0.00    +0.000 A 
ATOM     21  C   UNL     1       2.022   7.892  19.180  0.00  0.00    +0.000 A 
ATOM     22  C   UNL     1       1.361   9.082  19.353  0.00  0.00    +0.000 A 
ATOM     23  C   UNL     1       1.252  10.321  18.570  0.00  0.00    +0.000 C 
ATOM     24  O   UNL     1       0.688   9.054  20.537  0.00  0.00    +0.000 OA
ATOM     25  N   UNL     1       0.924   7.848  21.172  0.00  0.00    +0.000 NA
ENDBRANCH  19  20
ENDBRANCH   9  19
TORSDOF 5
ENDMDL
MODEL 6
REMARK VINA RESULT:      -6.9      4.123      8.621
REMARK  Name = 
REMARK  7 active torsions:
REMARK  status: ('A' for Active; 'I' for Inactive)
REMARK    1  A    between atoms: C_1  and  C_2
REMARK    2  A    between atoms: C_6  and  C_7
REMARK    3  A    between atoms: C_7  and  O_8
REMARK    4  A    between atoms: O_8  and  C_9
REMARK    5  A    between atoms: N_17  and  C_18
REMARK    6  A    between atoms: C_18  and  C_19
REMARK    7  A    between atoms: C_21  and  C_22
REMARK                            x       y       z     vdW  Elec       q    Type
REMARK                         _______ _______ _______ _____ _____    ______ ____
ROOT
ATOM      1  C   UNL     1       2.584   7.173  18.549  0.00  0.00    +0.000 C 
ATOM      2  C   UNL     1       3.854   7.771  17.910  0.00  0.00    +0.000 C 
ATOM      3  C   UNL     1       4.877   6.633  17.760  0.00  0.00    +0.000 C 
ATOM      4  C   UNL     1       4.228   5.444  18.463  0.00  0.00    +0.000 C 
ATOM      5  C   UNL     1       2.719   5.674  18.266  0.00  0.00    +0.000 C 
ATOM      6  O   UNL     1       1.987   4.846  19.174  0.00  0.00    +0.000 OA
ATOM      7  C   UNL     1       2.314   3.456  18.958  0.00  0.00    +0.000 C 
ATOM      8  C   UNL     1       3.837   3.192  19.032  0.00  0.00    +0.000 C 
ATOM      9  N   UNL     1       4.656   4.062  18.133  0.00  0.00    +0.000 NA
ENDROOT
BRANCH   1  10
ATOM     10  O   UNL     1       1.444   7.776  17.934  0.00  0.00    +0.000 OA
BRANCH  10  11
ATOM     11  C   UNL     1       1.592   9.186  17.709  0.00  0.00    +0.000 C 
BRANCH  11  17
ATOM     12  C   UNL     1      -0.015  11.993  21.375  0.00  0.00    +0.000 C 
ATOM     13  C   UNL     1      -0.324  11.292  20.085  0.00  0.00    +0.000 A 
ATOM     14  C   UNL     1      -1.605  11.337  19.547  0.00  0.00    +0.000 A 
ATOM     15  C   UNL     1      -1.854  10.662  18.360  0.00  0.00    +0.000 A 
ATOM     16  C   UNL     1      -0.820   9.960  17.745  0.00  0.00    +0.000 A 
ATOM     17  C   UNL     1       0.448   9.968  18.326  0.00  0.00    +0.000 A 
ATOM     18  N   UNL     1       0.694  10.616  19.496  0.00  0.00    +0.000 NA
ENDBRANCH  11  17
ENDBRANCH  10  11
ENDBRANCH   1  10
BRANCH   9  19
ATOM     19  C   UNL     1       4.447   3.735  16.704  0.00  0.00    +0.000 C 
BRANCH  19  20
ATOM     20  C   UNL     1       5.573   4.175  15.823  0.00  0.00    +0.000 A 
ATOM     21  C   UNL     1       5.559   4.451  14.437  0.00  0.00    +0.000 A 
ATOM     22  C   UNL     1       6.873   4.704  14.127  0.00  0.00    +0.000 A 
ATOM     23  C   UNL     1       7.596   5.003  12.884  0.00  0.00    +0.000 C 
ATOM     24  O   UNL     1       7.623   4.632  15.261  0.00  0.00    +0.000 OA
ATOM     25  N   UNL     1       6.811   4.301  16.331  0.00  0.00    +0.000 NA
ENDBRANCH  19  20
ENDBRANCH   9  19
TORSDOF 5
ENDMDL
MODEL 7
REMARK VINA RESULT:      -6.8      5.977      8.961
REMARK  Name = 
REMARK  7 active torsions:
REMARK  status: ('A' for Active; 'I' for Inactive)
REMARK    1  A    between atoms: C_1  and  C_2
REMARK    2  A    between atoms: C_6  and  C_7
REMARK    3  A    between atoms: C_7  and  O_8
REMARK    4  A    between atoms: O_8  and  C_9
REMARK    5  A    between atoms: N_17  and  C_18
REMARK    6  A    between atoms: C_18  and  C_19
REMARK    7  A    between atoms: C_21  and  C_22
REMARK                            x       y       z     vdW  Elec       q    Type
REMARK                         _______ _______ _______ _____ _____    ______ ____
ROOT
ATOM      1  C   UNL     1       1.636   7.960  19.190  0.00  0.00    +0.000 C 
ATOM      2  C   UNL     1       2.243   8.639  17.946  0.00  0.00    +0.000 C 
ATOM      3  C   UNL     1       1.728  10.087  17.909  0.00  0.00    +0.000 C 
ATOM      4  C   UNL     1       0.710  10.156  19.045  0.00  0.00    +0.000 C 
ATOM      5  C   UNL     1       1.237   9.143  20.077  0.00  0.00    +0.000 C 
ATOM      6  O   UNL     1       0.201   8.838  21.017  0.00  0.00    +0.000 OA
ATOM      7  C   UNL     1      -0.244  10.041  21.678  0.00  0.00    +0.000 C 
ATOM      8  C   UNL     1      -0.677  11.138  20.675  0.00  0.00    +0.000 C 
ATOM      9  N   UNL     1       0.353  11.467  19.642  0.00  0.00    +0.000 NA
ENDROOT
BRANCH   1  10
ATOM     10  O   UNL     1       2.629   7.113  19.771  0.00  0.00    +0.000 OA
BRANCH  10  11
ATOM     11  C   UNL     1       3.257   6.233  18.825  0.00  0.00    +0.000 C 
BRANCH  11  17
ATOM     12  C   UNL     1       1.453   2.632  21.597  0.00  0.00    +0.000 C 
ATOM     13  C   UNL     1       1.832   3.109  20.226  0.00  0.00    +0.000 A 
ATOM     14  C   UNL     1       1.692   2.273  19.125  0.00  0.00    +0.000 A 
ATOM     15  C   UNL     1       2.069   2.745  17.875  0.00  0.00    +0.000 A 
ATOM     16  C   UNL     1       2.577   4.037  17.760  0.00  0.00    +0.000 A 
ATOM     17  C   UNL     1       2.675   4.834  18.900  0.00  0.00    +0.000 A 
ATOM     18  N   UNL     1       2.321   4.371  20.129  0.00  0.00    +0.000 NA
ENDBRANCH  11  17
ENDBRANCH  10  11
ENDBRANCH   1  10
BRANCH   9  19
ATOM     19  C   UNL     1       1.525  12.156  20.227  0.00  0.00    +0.000 C 
BRANCH  19  20
ATOM     20  C   UNL     1       1.872  13.434  19.531  0.00  0.00    +0.000 A 
ATOM     21  C   UNL     1       1.244  14.696  19.630  0.00  0.00    +0.000 A 
ATOM     22  C   UNL     1       1.895  15.473  18.704  0.00  0.00    +0.000 A 
ATOM     23  C   UNL     1       1.738  16.855  18.230  0.00  0.00    +0.000 C 
ATOM     24  O   UNL     1       2.882  14.740  18.118  0.00  0.00    +0.000 OA
ATOM     25  N   UNL     1       2.873  13.458  18.635  0.00  0.00    +0.000 NA
ENDBRANCH  19  20
ENDBRANCH   9  19
TORSDOF 5
ENDMDL
MODEL 8
REMARK VINA RESULT:      -6.8      3.054      4.570
REMARK  Name = 
REMARK  7 active torsions:
REMARK  status: ('A' for Active; 'I' for Inactive)
REMARK    1  A    between atoms: C_1  and  C_2
REMARK    2  A    between atoms: C_6  and  C_7
REMARK    3  A    between atoms: C_7  and  O_8
REMARK    4  A    between atoms: O_8  and  C_9
REMARK    5  A    between atoms: N_17  and  C_18
REMARK    6  A    between atoms: C_18  and  C_19
REMARK    7  A    between atoms: C_21  and  C_22
REMARK                            x       y       z     vdW  Elec       q    Type
REMARK                         _______ _______ _______ _____ _____    ______ ____
ROOT
ATOM      1  C   UNL     1       5.041   5.839  17.368  0.00  0.00    +0.000 C 
ATOM      2  C   UNL     1       4.604   7.243  16.903  0.00  0.00    +0.000 C 
ATOM      3  C   UNL     1       3.247   7.547  17.559  0.00  0.00    +0.000 C 
ATOM      4  C   UNL     1       2.863   6.245  18.257  0.00  0.00    +0.000 C 
ATOM      5  C   UNL     1       4.215   5.615  18.637  0.00  0.00    +0.000 C 
ATOM      6  O   UNL     1       4.022   4.235  18.966  0.00  0.00    +0.000 OA
ATOM      7  C   UNL     1       3.085   4.108  20.056  0.00  0.00    +0.000 C 
ATOM      8  C   UNL     1       1.745   4.827  19.768  0.00  0.00    +0.000 C 
ATOM      9  N   UNL     1       1.890   6.263  19.378  0.00  0.00    +0.000 NA
ENDROOT
BRANCH   1  10
ATOM     10  O   UNL     1       6.451   5.858  17.593  0.00  0.00    +0.000 OA
BRANCH  10  11
ATOM     11  C   UNL     1       7.125   4.680  17.122  0.00  0.00    +0.000 C 
BRANCH  11  17
ATOM     12  C   UNL     1       8.458   5.965  12.597  0.00  0.00    +0.000 C 
ATOM     13  C   UNL     1       7.567   5.129  13.467  0.00  0.00    +0.000 A 
ATOM     14  C   UNL     1       6.612   4.292  12.901  0.00  0.00    +0.000 A 
ATOM     15  C   UNL     1       5.796   3.547  13.741  0.00  0.00    +0.000 A 
ATOM     16  C   UNL     1       5.954   3.658  15.120  0.00  0.00    +0.000 A 
ATOM     17  C   UNL     1       6.944   4.501  15.626  0.00  0.00    +0.000 A 
ATOM     18  N   UNL     1       7.736   5.245  14.808  0.00  0.00    +0.000 NA
ENDBRANCH  11  17
ENDBRANCH  10  11
ENDBRANCH   1  10
BRANCH   9  19
ATOM     19  C   UNL     1       2.350   7.101  20.507  0.00  0.00    +0.000 C 
BRANCH  19  20
ATOM     20  C   UNL     1       1.493   8.305  20.742  0.00  0.00    +0.000 A 
ATOM     21  C   UNL     1       0.941   8.778  21.954  0.00  0.00    +0.000 A 
ATOM     22  C   UNL     1       0.160   9.842  21.579  0.00  0.00    +0.000 A 
ATOM     23  C   UNL     1      -0.738  10.761  22.293  0.00  0.00    +0.000 C 
ATOM     24  O   UNL     1       0.271  10.029  20.234  0.00  0.00    +0.000 OA
ATOM     25  N   UNL     1       1.109   9.066  19.703  0.00  0.00    +0.000 NA
ENDBRANCH  19  20
ENDBRANCH   9  19
TORSDOF 5
ENDMDL
MODEL 9
REMARK VINA RESULT:      -6.8      5.923      8.872
REMARK  Name = 
REMARK  7 active torsions:
REMARK  status: ('A' for Active; 'I' for Inactive)
REMARK    1  A    between atoms: C_1  and  C_2
REMARK    2  A    between atoms: C_6  and  C_7
REMARK    3  A    between atoms: C_7  and  O_8
REMARK    4  A    between atoms: O_8  and  C_9
REMARK    5  A    between atoms: N_17  and  C_18
REMARK    6  A    between atoms: C_18  and  C_19
REMARK    7  A    between atoms: C_21  and  C_22
REMARK                            x       y       z     vdW  Elec       q    Type
REMARK                         _______ _______ _______ _____ _____    ______ ____
ROOT
ATOM      1  C   UNL     1       1.485   7.939  19.387  0.00  0.00    +0.000 C 
ATOM      2  C   UNL     1       2.120   8.503  18.100  0.00  0.00    +0.000 C 
ATOM      3  C   UNL     1       1.628   9.951  17.937  0.00  0.00    +0.000 C 
ATOM      4  C   UNL     1       0.597  10.129  19.047  0.00  0.00    +0.000 C 
ATOM      5  C   UNL     1       1.093   9.197  20.167  0.00  0.00    +0.000 C 
ATOM      6  O   UNL     1       0.041   8.986  21.114  0.00  0.00    +0.000 OA
ATOM      7  C   UNL     1      -0.394  10.247  21.666  0.00  0.00    +0.000 C 
ATOM      8  C   UNL     1      -0.796  11.263  20.571  0.00  0.00    +0.000 C 
ATOM      9  N   UNL     1       0.253  11.490  19.529  0.00  0.00    +0.000 NA
ENDROOT
BRANCH   1  10
ATOM     10  O   UNL     1       2.457   7.128  20.050  0.00  0.00    +0.000 OA
BRANCH  10  11
ATOM     11  C   UNL     1       1.915   5.917  20.600  0.00  0.00    +0.000 C 
BRANCH  11  17
ATOM     12  C   UNL     1       4.276   3.906  16.820  0.00  0.00    +0.000 C 
ATOM     13  C   UNL     1       3.147   3.815  17.804  0.00  0.00    +0.000 A 
ATOM     14  C   UNL     1       2.254   2.751  17.757  0.00  0.00    +0.000 A 
ATOM     15  C   UNL     1       1.214   2.711  18.675  0.00  0.00    +0.000 A 
ATOM     16  C   UNL     1       1.093   3.733  19.613  0.00  0.00    +0.000 A 
ATOM     17  C   UNL     1       2.032   4.764  19.621  0.00  0.00    +0.000 A 
ATOM     18  N   UNL     1       3.045   4.816  18.714  0.00  0.00    +0.000 NA
ENDBRANCH  11  17
ENDBRANCH  10  11
ENDBRANCH   1  10
BRANCH   9  19
ATOM     19  C   UNL     1       1.428  12.207  20.073  0.00  0.00    +0.000 C 
BRANCH  19  20
ATOM     20  C   UNL     1       1.754  13.463  19.328  0.00  0.00    +0.000 A 
ATOM     21  C   UNL     1       2.985  13.863  18.759  0.00  0.00    +0.000 A 
ATOM     22  C   UNL     1       2.750  15.134  18.299  0.00  0.00    +0.000 A 
ATOM     23  C   UNL     1       3.578  16.164  17.657  0.00  0.00    +0.000 C 
ATOM     24  O   UNL     1       1.449  15.463  18.532  0.00  0.00    +0.000 OA
ATOM     25  N   UNL     1       0.818  14.416  19.178  0.00  0.00    +0.000 NA
ENDBRANCH  19  20
ENDBRANCH   9  19
TORSDOF 5
ENDMDL
