MODEL 1
REMARK VINA RESULT:      -7.3      0.000      0.000
REMARK  Name = 
REMARK  15 active torsions:
REMARK  status: ('A' for Active; 'I' for Inactive)
REMARK    1  A    between atoms: C_1  and  O_2
REMARK    2  A    between atoms: O_2  and  C_3
REMARK    3  A    between atoms: C_3  and  C_5
REMARK    4  A    between atoms: C_5  and  N_6
REMARK    5  A    between atoms: C_5  and  C_29
REMARK    6  A    between atoms: N_6  and  P_7
REMARK    7  A    between atoms: P_7  and  O_9
REMARK    8  A    between atoms: P_7  and  O_10
REMARK    9  A    between atoms: O_10  and  C_11
REMARK   10  A    between atoms: C_11  and  C_12
REMARK   11  A    between atoms: C_14  and  N_15
REMARK   12  A    between atoms: C_17  and  C_18
REMARK   13  A    between atoms: C_25  and  N_26
REMARK   14  A    between atoms: C_29  and  C_30
REMARK   15  A    between atoms: C_29  and  C_31
REMARK                            x       y       z     vdW  Elec       q    Type
REMARK                         _______ _______ _______ _____ _____    ______ ____
ROOT
ATOM      1  C   UNL     1       1.349   9.860  19.201  0.00  0.00    +0.000 C 
ATOM      2  O   UNL     1       0.739  10.987  18.557  0.00  0.00    +0.000 OA
ATOM      3  C   UNL     1      -0.328  11.489  19.372  0.00  0.00    +0.000 C 
ATOM      4  C   UNL     1      -0.264  10.719  20.688  0.00  0.00    +0.000 C 
ATOM      5  C   UNL     1       0.375   9.407  20.286  0.00  0.00    +0.000 C 
ENDROOT
BRANCH   3   6
ATOM      6  N   UNL     1      -1.604  11.359  18.660  0.00  0.00    +0.000 N 
ATOM      7  C   UNL     1      -1.701  10.641  17.481  0.00  0.00    +0.000 A 
ATOM      8  C   UNL     1      -2.820  10.592  16.749  0.00  0.00    +0.000 A 
ATOM      9  C   UNL     1      -2.939   9.842  15.464  0.00  0.00    +0.000 C 
ATOM     10  C   UNL     1      -3.997  11.346  17.229  0.00  0.00    +0.000 A 
ATOM     11  O   UNL     1      -5.060  11.349  16.621  0.00  0.00    +0.000 OA
ATOM     12  N   UNL     1      -3.822  12.045  18.389  0.00  0.00    +0.000 N 
ATOM     13  C   UNL     1      -2.668  12.127  19.123  0.00  0.00    +0.000 A 
ATOM     14  O   UNL     1      -2.618  12.845  20.119  0.00  0.00    +0.000 OA
ATOM     15  H   UNL     1      -4.602  12.595  18.711  0.00  0.00    +0.000 HD
ENDBRANCH   3   6
BRANCH   5  16
ATOM     16  N   UNL     1       1.105   8.794  21.402  0.00  0.00    +0.000 NA
ATOM     17  N   UNL     1       0.821   9.211  22.540  0.00  0.00    +0.000 NA
ATOM     18  N   UNL     1       0.555   9.585  23.582  0.00  0.00    +0.000 NA
ENDBRANCH   5  16
BRANCH   1  19
ATOM     19  C   UNL     1       1.657   8.747  18.189  0.00  0.00    +0.000 C 
BRANCH  19  20
ATOM     20  O   UNL     1       3.037   8.655  17.827  0.00  0.00    +0.000 OA
BRANCH  20  21
ATOM     21  P   UNL     1       3.692   7.061  17.971  0.00  0.00    +0.000 P 
ATOM     22  O   UNL     1       4.175   7.116  16.523  0.00  0.00    +0.000 OA
BRANCH  21  23
ATOM     23  N   UNL     1       4.365   5.419  18.116  0.00  0.00    +0.000 NA
ATOM     24  H   UNL     1       5.322   5.560  18.421  0.00  0.00    +0.000 HD
BRANCH  23  25
ATOM     25  C   UNL     1       4.285   4.560  16.919  0.00  0.00    +0.000 C 
BRANCH  25  26
ATOM     26  C   UNL     1       5.668   4.000  16.479  0.00  0.00    +0.000 C 
ATOM     27  C   UNL     1       5.857   4.037  14.953  0.00  0.00    +0.000 C 
ATOM     28  C   UNL     1       6.837   4.764  17.113  0.00  0.00    +0.000 C 
ENDBRANCH  25  26
BRANCH  25  29
ATOM     29  C   UNL     1       3.304   3.404  17.180  0.00  0.00    +0.000 C 
ATOM     30  O   UNL     1       2.091   3.490  17.053  0.00  0.00    +0.000 OA
BRANCH  29  32
ATOM     31  C   UNL     1       3.412   1.590  18.691  0.00  0.00    +0.000 C 
ATOM     32  O   UNL     1       3.993   2.306  17.603  0.00  0.00    +0.000 OA
ENDBRANCH  29  32
ENDBRANCH  25  29
ENDBRANCH  23  25
ENDBRANCH  21  23
BRANCH  21  33
ATOM     33  O   UNL     1       2.190   6.421  17.957  0.00  0.00    +0.000 OA
ATOM     34  H   UNL     1       1.515   7.095  18.136  0.00  0.00    +0.000 HD
ENDBRANCH  21  33
ENDBRANCH  20  21
ENDBRANCH  19  20
ENDBRANCH   1  19
TORSDOF 11
ENDMDL
MODEL 2
REMARK VINA RESULT:      -7.2      1.653      2.208
REMARK  Name = 
REMARK  15 active torsions:
REMARK  status: ('A' for Active; 'I' for Inactive)
REMARK    1  A    between atoms: C_1  and  O_2
REMARK    2  A    between atoms: O_2  and  C_3
REMARK    3  A    between atoms: C_3  and  C_5
REMARK    4  A    between atoms: C_5  and  N_6
REMARK    5  A    between atoms: C_5  and  C_29
REMARK    6  A    between atoms: N_6  and  P_7
REMARK    7  A    between atoms: P_7  and  O_9
REMARK    8  A    between atoms: P_7  and  O_10
REMARK    9  A    between atoms: O_10  and  C_11
REMARK   10  A    between atoms: C_11  and  C_12
REMARK   11  A    between atoms: C_14  and  N_15
REMARK   12  A    between atoms: C_17  and  C_18
REMARK   13  A    between atoms: C_25  and  N_26
REMARK   14  A    between atoms: C_29  and  C_30
REMARK   15  A    between atoms: C_29  and  C_31
REMARK                            x       y       z     vdW  Elec       q    Type
REMARK                         _______ _______ _______ _____ _____    ______ ____
ROOT
ATOM      1  C   UNL     1       1.197   9.960  19.357  0.00  0.00    +0.000 C 
ATOM      2  O   UNL     1       0.542  11.176  18.972  0.00  0.00    +0.000 OA
ATOM      3  C   UNL     1      -0.629  11.369  19.778  0.00  0.00    +0.000 C 
ATOM      4  C   UNL     1      -0.601  10.278  20.844  0.00  0.00    +0.000 C 
ATOM      5  C   UNL     1       0.183   9.169  20.180  0.00  0.00    +0.000 C 
ENDROOT
BRANCH   3   6
ATOM      6  N   UNL     1      -1.826  11.353  18.931  0.00  0.00    +0.000 N 
ATOM      7  C   UNL     1      -1.834  10.707  17.707  0.00  0.00    +0.000 A 
ATOM      8  C   UNL     1      -2.869  10.764  16.861  0.00  0.00    +0.000 A 
ATOM      9  C   UNL     1      -2.889  10.092  15.528  0.00  0.00    +0.000 C 
ATOM     10  C   UNL     1      -4.049  11.558  17.261  0.00  0.00    +0.000 A 
ATOM     11  O   UNL     1      -5.039  11.656  16.546  0.00  0.00    +0.000 OA
ATOM     12  N   UNL     1      -3.963  12.182  18.472  0.00  0.00    +0.000 N 
ATOM     13  C   UNL     1      -2.891  12.156  19.326  0.00  0.00    +0.000 A 
ATOM     14  O   UNL     1      -2.910  12.815  20.362  0.00  0.00    +0.000 OA
ATOM     15  H   UNL     1      -4.743  12.759  18.744  0.00  0.00    +0.000 HD
ENDBRANCH   3   6
BRANCH   5  16
ATOM     16  N   UNL     1       0.874   8.326  21.163  0.00  0.00    +0.000 NA
ATOM     17  N   UNL     1       1.476   8.925  22.074  0.00  0.00    +0.000 NA
ATOM     18  N   UNL     1       2.018   9.472  22.912  0.00  0.00    +0.000 NA
ENDBRANCH   5  16
BRANCH   1  19
ATOM     19  C   UNL     1       1.685   9.184  18.125  0.00  0.00    +0.000 C 
BRANCH  19  20
ATOM     20  O   UNL     1       1.480   7.772  18.207  0.00  0.00    +0.000 OA
BRANCH  20  21
ATOM     21  P   UNL     1       2.945   6.853  18.210  0.00  0.00    +0.000 P 
ATOM     22  O   UNL     1       2.193   5.629  17.691  0.00  0.00    +0.000 OA
BRANCH  21  23
ATOM     23  N   UNL     1       4.452   5.905  18.213  0.00  0.00    +0.000 NA
ATOM     24  H   UNL     1       4.666   5.766  19.194  0.00  0.00    +0.000 HD
BRANCH  23  25
ATOM     25  C   UNL     1       5.595   6.473  17.471  0.00  0.00    +0.000 C 
BRANCH  25  26
ATOM     26  C   UNL     1       6.972   6.059  18.065  0.00  0.00    +0.000 C 
ATOM     27  C   UNL     1       7.960   7.235  18.132  0.00  0.00    +0.000 C 
ATOM     28  C   UNL     1       6.847   5.473  19.477  0.00  0.00    +0.000 C 
ENDBRANCH  25  26
BRANCH  25  29
ATOM     29  C   UNL     1       5.509   6.055  15.993  0.00  0.00    +0.000 C 
ATOM     30  O   UNL     1       5.087   6.775  15.099  0.00  0.00    +0.000 OA
BRANCH  29  32
ATOM     31  C   UNL     1       6.585   4.456  14.627  0.00  0.00    +0.000 C 
ATOM     32  O   UNL     1       5.933   4.767  15.856  0.00  0.00    +0.000 OA
ENDBRANCH  29  32
ENDBRANCH  25  29
ENDBRANCH  23  25
ENDBRANCH  21  23
BRANCH  21  33
ATOM     33  O   UNL     1       2.922   6.782  19.840  0.00  0.00    +0.000 OA
ATOM     34  H   UNL     1       3.611   6.187  20.180  0.00  0.00    +0.000 HD
ENDBRANCH  21  33
ENDBRANCH  20  21
ENDBRANCH  19  20
ENDBRANCH   1  19
TORSDOF 11
ENDMDL
MODEL 3
REMARK VINA RESULT:      -7.1      1.552      2.523
REMARK  Name = 
REMARK  15 active torsions:
REMARK  status: ('A' for Active; 'I' for Inactive)
REMARK    1  A    between atoms: C_1  and  O_2
REMARK    2  A    between atoms: O_2  and  C_3
REMARK    3  A    between atoms: C_3  and  C_5
REMARK    4  A    between atoms: C_5  and  N_6
REMARK    5  A    between atoms: C_5  and  C_29
REMARK    6  A    between atoms: N_6  and  P_7
REMARK    7  A    between atoms: P_7  and  O_9
REMARK    8  A    between atoms: P_7  and  O_10
REMARK    9  A    between atoms: O_10  and  C_11
REMARK   10  A    between atoms: C_11  and  C_12
REMARK   11  A    between atoms: C_14  and  N_15
REMARK   12  A    between atoms: C_17  and  C_18
REMARK   13  A    between atoms: C_25  and  N_26
REMARK   14  A    between atoms: C_29  and  C_30
REMARK   15  A    between atoms: C_29  and  C_31
REMARK                            x       y       z     vdW  Elec       q    Type
REMARK                         _______ _______ _______ _____ _____    ______ ____
ROOT
ATOM      1  C   UNL     1       1.157  10.489  19.300  0.00  0.00    +0.000 C 
ATOM      2  O   UNL     1       0.449  11.542  18.633  0.00  0.00    +0.000 OA
ATOM      3  C   UNL     1      -0.614  12.014  19.471  0.00  0.00    +0.000 C 
ATOM      4  C   UNL     1      -0.446  11.313  20.816  0.00  0.00    +0.000 C 
ATOM      5  C   UNL     1       0.261  10.027  20.446  0.00  0.00    +0.000 C 
ENDROOT
BRANCH   3   6
ATOM      6  N   UNL     1      -1.907  11.770  18.823  0.00  0.00    +0.000 N 
ATOM      7  C   UNL     1      -1.989  11.139  17.593  0.00  0.00    +0.000 A 
ATOM      8  C   UNL     1      -3.138  10.998  16.923  0.00  0.00    +0.000 A 
ATOM      9  C   UNL     1      -3.244  10.341  15.587  0.00  0.00    +0.000 C 
ATOM     10  C   UNL     1      -4.368  11.547  17.531  0.00  0.00    +0.000 A 
ATOM     11  O   UNL     1      -5.460  11.454  16.985  0.00  0.00    +0.000 OA
ATOM     12  N   UNL     1      -4.208  12.171  18.735  0.00  0.00    +0.000 N 
ATOM     13  C   UNL     1      -3.028  12.349  19.408  0.00  0.00    +0.000 A 
ATOM     14  O   UNL     1      -3.005  12.988  20.458  0.00  0.00    +0.000 OA
ATOM     15  H   UNL     1      -5.029  12.584  19.146  0.00  0.00    +0.000 HD
ENDBRANCH   3   6
BRANCH   5  16
ATOM     16  N   UNL     1       1.075   9.515  21.554  0.00  0.00    +0.000 NA
ATOM     17  N   UNL     1       0.590   9.638  22.694  0.00  0.00    +0.000 NA
ATOM     18  N   UNL     1       0.143   9.741  23.736  0.00  0.00    +0.000 NA
ENDBRANCH   5  16
BRANCH   1  19
ATOM     19  C   UNL     1       1.496   9.351  18.326  0.00  0.00    +0.000 C 
BRANCH  19  20
ATOM     20  O   UNL     1       1.538   8.057  18.933  0.00  0.00    +0.000 OA
BRANCH  20  21
ATOM     21  P   UNL     1       2.888   7.097  18.439  0.00  0.00    +0.000 P 
ATOM     22  O   UNL     1       1.951   6.124  17.726  0.00  0.00    +0.000 OA
BRANCH  21  23
ATOM     23  N   UNL     1       4.277   6.107  17.930  0.00  0.00    +0.000 NA
ATOM     24  H   UNL     1       3.943   5.590  17.124  0.00  0.00    +0.000 HD
BRANCH  23  25
ATOM     25  C   UNL     1       4.871   5.221  18.950  0.00  0.00    +0.000 C 
BRANCH  25  26
ATOM     26  C   UNL     1       4.665   3.711  18.639  0.00  0.00    +0.000 C 
ATOM     27  C   UNL     1       3.531   3.090  19.472  0.00  0.00    +0.000 C 
ATOM     28  C   UNL     1       4.351   3.456  17.160  0.00  0.00    +0.000 C 
ENDBRANCH  25  26
BRANCH  25  29
ATOM     29  C   UNL     1       6.371   5.532  19.092  0.00  0.00    +0.000 C 
ATOM     30  O   UNL     1       7.061   5.171  20.035  0.00  0.00    +0.000 OA
BRANCH  29  32
ATOM     31  C   UNL     1       8.014   6.989  18.219  0.00  0.00    +0.000 C 
ATOM     32  O   UNL     1       6.783   6.292  18.038  0.00  0.00    +0.000 OA
ENDBRANCH  29  32
ENDBRANCH  25  29
ENDBRANCH  23  25
ENDBRANCH  21  23
BRANCH  21  33
ATOM     33  O   UNL     1       3.086   6.552  19.964  0.00  0.00    +0.000 OA
ATOM     34  H   UNL     1       2.545   5.762  20.132  0.00  0.00    +0.000 HD
ENDBRANCH  21  33
ENDBRANCH  20  21
ENDBRANCH  19  20
ENDBRANCH   1  19
TORSDOF 11
ENDMDL
MODEL 4
REMARK VINA RESULT:      -7.0      1.413      1.896
REMARK  Name = 
REMARK  15 active torsions:
REMARK  status: ('A' for Active; 'I' for Inactive)
REMARK    1  A    between atoms: C_1  and  O_2
REMARK    2  A    between atoms: O_2  and  C_3
REMARK    3  A    between atoms: C_3  and  C_5
REMARK    4  A    between atoms: C_5  and  N_6
REMARK    5  A    between atoms: C_5  and  C_29
REMARK    6  A    between atoms: N_6  and  P_7
REMARK    7  A    between atoms: P_7  and  O_9
REMARK    8  A    between atoms: P_7  and  O_10
REMARK    9  A    between atoms: O_10  and  C_11
REMARK   10  A    between atoms: C_11  and  C_12
REMARK   11  A    between atoms: C_14  and  N_15
REMARK   12  A    between atoms: C_17  and  C_18
REMARK   13  A    between atoms: C_25  and  N_26
REMARK   14  A    between atoms: C_29  and  C_30
REMARK   15  A    between atoms: C_29  and  C_31
REMARK                            x       y       z     vdW  Elec       q    Type
REMARK                         _______ _______ _______ _____ _____    ______ ____
ROOT
ATOM      1  C   UNL     1       1.378   9.761  19.279  0.00  0.00    +0.000 C 
ATOM      2  O   UNL     1       0.811  10.811  18.485  0.00  0.00    +0.000 OA
ATOM      3  C   UNL     1      -0.157  11.532  19.259  0.00  0.00    +0.000 C 
ATOM      4  C   UNL     1      -0.060  10.989  20.682  0.00  0.00    +0.000 C 
ATOM      5  C   UNL     1       0.450   9.580  20.478  0.00  0.00    +0.000 C 
ENDROOT
BRANCH   3   6
ATOM      6  N   UNL     1      -1.485  11.394  18.651  0.00  0.00    +0.000 N 
ATOM      7  C   UNL     1      -1.679  10.638  17.508  0.00  0.00    +0.000 A 
ATOM      8  C   UNL     1      -2.851  10.578  16.865  0.00  0.00    +0.000 A 
ATOM      9  C   UNL     1      -3.076   9.787  15.620  0.00  0.00    +0.000 C 
ATOM     10  C   UNL     1      -3.980  11.362  17.408  0.00  0.00    +0.000 A 
ATOM     11  O   UNL     1      -5.087  11.358  16.883  0.00  0.00    +0.000 OA
ATOM     12  N   UNL     1      -3.711  12.097  18.526  0.00  0.00    +0.000 N 
ATOM     13  C   UNL     1      -2.503  12.189  19.167  0.00  0.00    +0.000 A 
ATOM     14  O   UNL     1      -2.370  12.940  20.131  0.00  0.00    +0.000 OA
ATOM     15  H   UNL     1      -4.458  12.667  18.889  0.00  0.00    +0.000 HD
ENDBRANCH   3   6
BRANCH   5  16
ATOM     16  N   UNL     1       1.207   9.102  21.640  0.00  0.00    +0.000 NA
ATOM     17  N   UNL     1       0.740   9.391  22.758  0.00  0.00    +0.000 NA
ATOM     18  N   UNL     1       0.308   9.647  23.779  0.00  0.00    +0.000 NA
ENDBRANCH   5  16
BRANCH   1  19
ATOM     19  C   UNL     1       1.533   8.472  18.458  0.00  0.00    +0.000 C 
BRANCH  19  20
ATOM     20  O   UNL     1       2.868   8.220  18.015  0.00  0.00    +0.000 OA
BRANCH  20  21
ATOM     21  P   UNL     1       3.511   6.709  18.556  0.00  0.00    +0.000 P 
ATOM     22  O   UNL     1       2.434   5.958  17.777  0.00  0.00    +0.000 OA
BRANCH  21  23
ATOM     23  N   UNL     1       4.170   5.152  19.114  0.00  0.00    +0.000 NA
ATOM     24  H   UNL     1       5.044   5.048  18.610  0.00  0.00    +0.000 HD
BRANCH  23  25
ATOM     25  C   UNL     1       3.299   3.970  18.965  0.00  0.00    +0.000 C 
BRANCH  25  26
ATOM     26  C   UNL     1       3.832   2.949  17.919  0.00  0.00    +0.000 C 
ATOM     27  C   UNL     1       2.701   2.158  17.242  0.00  0.00    +0.000 C 
ATOM     28  C   UNL     1       4.658   3.620  16.815  0.00  0.00    +0.000 C 
ENDBRANCH  25  26
BRANCH  25  29
ATOM     29  C   UNL     1       3.123   3.285  20.331  0.00  0.00    +0.000 C 
ATOM     30  O   UNL     1       3.897   2.458  20.790  0.00  0.00    +0.000 OA
BRANCH  29  32
ATOM     31  C   UNL     1       1.283   2.756  21.717  0.00  0.00    +0.000 C 
ATOM     32  O   UNL     1       1.967   3.715  20.913  0.00  0.00    +0.000 OA
ENDBRANCH  29  32
ENDBRANCH  25  29
ENDBRANCH  23  25
ENDBRANCH  21  23
BRANCH  21  33
ATOM     33  O   UNL     1       2.927   6.974  20.057  0.00  0.00    +0.000 OA
ATOM     34  H   UNL     1       2.076   6.525  20.192  0.00  0.00    +0.000 HD
ENDBRANCH  21  33
ENDBRANCH  20  21
ENDBRANCH  19  20
ENDBRANCH   1  19
TORSDOF 11
ENDMDL
MODEL 5
REMARK VINA RESULT:      -7.0      2.328      3.468
REMARK  Name = 
REMARK  15 active torsions:
REMARK  status: ('A' for Active; 'I' for Inactive)
REMARK    1  A    between atoms: C_1  and  O_2
REMARK    2  A    between atoms: O_2  and  C_3
REMARK    3  A    between atoms: C_3  and  C_5
REMARK    4  A    between atoms: C_5  and  N_6
REMARK    5  A    between atoms: C_5  and  C_29
REMARK    6  A    between atoms: N_6  and  P_7
REMARK    7  A    between atoms: P_7  and  O_9
REMARK    8  A    between atoms: P_7  and  O_10
REMARK    9  A    between atoms: O_10  and  C_11
REMARK   10  A    between atoms: C_11  and  C_12
REMARK   11  A    between atoms: C_14  and  N_15
REMARK   12  A    between atoms: C_17  and  C_18
REMARK   13  A    between atoms: C_25  and  N_26
REMARK   14  A    between atoms: C_29  and  C_30
REMARK   15  A    between atoms: C_29  and  C_31
REMARK                            x       y       z     vdW  Elec       q    Type
REMARK                         _______ _______ _______ _____ _____    ______ ____
ROOT
ATOM      1  C   UNL     1       2.459   7.212  19.109  0.00  0.00    +0.000 C 
ATOM      2  O   UNL     1       2.340   8.635  18.976  0.00  0.00    +0.000 OA
ATOM      3  C   UNL     1       1.676   9.174  20.126  0.00  0.00    +0.000 C 
ATOM      4  C   UNL     1       1.521   8.020  21.113  0.00  0.00    +0.000 C 
ATOM      5  C   UNL     1       1.489   6.803  20.214  0.00  0.00    +0.000 C 
ENDROOT
BRANCH   3   6
ATOM      6  N   UNL     1       0.411   9.797  19.726  0.00  0.00    +0.000 N 
ATOM      7  C   UNL     1      -0.169   9.528  18.498  0.00  0.00    +0.000 A 
ATOM      8  C   UNL     1      -1.262  10.159  18.055  0.00  0.00    +0.000 A 
ATOM      9  C   UNL     1      -1.889   9.899  16.726  0.00  0.00    +0.000 C 
ATOM     10  C   UNL     1      -1.866  11.192  18.922  0.00  0.00    +0.000 A 
ATOM     11  O   UNL     1      -2.870  11.812  18.593  0.00  0.00    +0.000 OA
ATOM     12  N   UNL     1      -1.231  11.417  20.109  0.00  0.00    +0.000 N 
ATOM     13  C   UNL     1      -0.091  10.798  20.552  0.00  0.00    +0.000 A 
ATOM     14  O   UNL     1       0.424  11.136  21.615  0.00  0.00    +0.000 OA
ATOM     15  H   UNL     1      -1.607  12.144  20.697  0.00  0.00    +0.000 HD
ENDBRANCH   3   6
BRANCH   5  16
ATOM     16  N   UNL     1       1.980   5.604  20.904  0.00  0.00    +0.000 NA
ATOM     17  N   UNL     1       1.321   4.562  20.733  0.00  0.00    +0.000 NA
ATOM     18  N   UNL     1       0.724   3.607  20.569  0.00  0.00    +0.000 NA
ENDBRANCH   5  16
BRANCH   1  19
ATOM     19  C   UNL     1       2.160   6.508  17.777  0.00  0.00    +0.000 C 
BRANCH  19  20
ATOM     20  O   UNL     1       1.919   5.104  17.902  0.00  0.00    +0.000 OA
BRANCH  20  21
ATOM     21  P   UNL     1       3.307   4.126  17.575  0.00  0.00    +0.000 P 
ATOM     22  O   UNL     1       2.409   2.997  17.076  0.00  0.00    +0.000 OA
BRANCH  21  23
ATOM     23  N   UNL     1       4.735   3.117  17.238  0.00  0.00    +0.000 NA
ATOM     24  H   UNL     1       5.118   2.900  18.151  0.00  0.00    +0.000 HD
BRANCH  23  25
ATOM     25  C   UNL     1       5.751   3.686  16.331  0.00  0.00    +0.000 C 
BRANCH  25  26
ATOM     26  C   UNL     1       5.167   4.738  15.345  0.00  0.00    +0.000 C 
ATOM     27  C   UNL     1       5.489   6.181  15.768  0.00  0.00    +0.000 C 
ATOM     28  C   UNL     1       5.681   4.546  13.913  0.00  0.00    +0.000 C 
ENDBRANCH  25  26
BRANCH  25  29
ATOM     29  C   UNL     1       6.888   4.309  17.158  0.00  0.00    +0.000 C 
ATOM     30  O   UNL     1       7.962   4.663  16.692  0.00  0.00    +0.000 OA
BRANCH  29  32
ATOM     31  C   UNL     1       6.882   5.557  19.164  0.00  0.00    +0.000 C 
ATOM     32  O   UNL     1       6.524   4.364  18.470  0.00  0.00    +0.000 OA
ENDBRANCH  29  32
ENDBRANCH  25  29
ENDBRANCH  23  25
ENDBRANCH  21  23
BRANCH  21  33
ATOM     33  O   UNL     1       3.543   3.889  19.172  0.00  0.00    +0.000 OA
ATOM     34  H   UNL     1       4.328   3.341  19.338  0.00  0.00    +0.000 HD
ENDBRANCH  21  33
ENDBRANCH  20  21
ENDBRANCH  19  20
ENDBRANCH   1  19
TORSDOF 11
ENDMDL
MODEL 6
REMARK VINA RESULT:      -7.0      1.405      1.959
REMARK  Name = 
REMARK  15 active torsions:
REMARK  status: ('A' for Active; 'I' for Inactive)
REMARK    1  A    between atoms: C_1  and  O_2
REMARK    2  A    between atoms: O_2  and  C_3
REMARK    3  A    between atoms: C_3  and  C_5
REMARK    4  A    between atoms: C_5  and  N_6
REMARK    5  A    between atoms: C_5  and  C_29
REMARK    6  A    between atoms: N_6  and  P_7
REMARK    7  A    between atoms: P_7  and  O_9
REMARK    8  A    between atoms: P_7  and  O_10
REMARK    9  A    between atoms: O_10  and  C_11
REMARK   10  A    between atoms: C_11  and  C_12
REMARK   11  A    between atoms: C_14  and  N_15
REMARK   12  A    between atoms: C_17  and  C_18
REMARK   13  A    between atoms: C_25  and  N_26
REMARK   14  A    between atoms: C_29  and  C_30
REMARK   15  A    between atoms: C_29  and  C_31
REMARK                            x       y       z     vdW  Elec       q    Type
REMARK                         _______ _______ _______ _____ _____    ______ ____
ROOT
ATOM      1  C   UNL     1       0.933   9.717  19.280  0.00  0.00    +0.000 C 
ATOM      2  O   UNL     1       0.411  10.955  18.778  0.00  0.00    +0.000 OA
ATOM      3  C   UNL     1      -0.675  11.391  19.606  0.00  0.00    +0.000 C 
ATOM      4  C   UNL     1      -0.718  10.437  20.797  0.00  0.00    +0.000 C 
ATOM      5  C   UNL     1      -0.118   9.165  20.239  0.00  0.00    +0.000 C 
ENDROOT
BRANCH   3   6
ATOM      6  N   UNL     1      -1.914  11.431  18.823  0.00  0.00    +0.000 N 
ATOM      7  C   UNL     1      -1.971  10.923  17.537  0.00  0.00    +0.000 A 
ATOM      8  C   UNL     1      -3.050  11.041  16.755  0.00  0.00    +0.000 A 
ATOM      9  C   UNL     1      -3.125  10.519  15.358  0.00  0.00    +0.000 C 
ATOM     10  C   UNL     1      -4.227  11.751  17.298  0.00  0.00    +0.000 A 
ATOM     11  O   UNL     1      -5.256  11.897  16.649  0.00  0.00    +0.000 OA
ATOM     12  N   UNL     1      -4.092  12.241  18.565  0.00  0.00    +0.000 N 
ATOM     13  C   UNL     1      -2.977  12.154  19.357  0.00  0.00    +0.000 A 
ATOM     14  O   UNL     1      -2.957  12.695  20.460  0.00  0.00    +0.000 OA
ATOM     15  H   UNL     1      -4.871  12.761  18.938  0.00  0.00    +0.000 HD
ENDBRANCH   3   6
BRANCH   5  16
ATOM     16  N   UNL     1       0.522   8.361  21.287  0.00  0.00    +0.000 NA
ATOM     17  N   UNL     1       1.240   8.980  22.093  0.00  0.00    +0.000 NA
ATOM     18  N   UNL     1       1.890   9.547  22.837  0.00  0.00    +0.000 NA
ENDBRANCH   5  16
BRANCH   1  19
ATOM     19  C   UNL     1       1.246   8.746  18.132  0.00  0.00    +0.000 C 
BRANCH  19  20
ATOM     20  O   UNL     1       2.600   8.288  18.110  0.00  0.00    +0.000 OA
BRANCH  20  21
ATOM     21  P   UNL     1       2.775   6.608  18.483  0.00  0.00    +0.000 P 
ATOM     22  O   UNL     1       2.843   6.934  19.973  0.00  0.00    +0.000 OA
BRANCH  21  23
ATOM     23  N   UNL     1       2.956   4.880  18.869  0.00  0.00    +0.000 NA
ATOM     24  H   UNL     1       3.942   4.688  18.734  0.00  0.00    +0.000 HD
BRANCH  23  25
ATOM     25  C   UNL     1       2.099   3.939  18.122  0.00  0.00    +0.000 C 
BRANCH  25  26
ATOM     26  C   UNL     1       2.911   2.872  17.333  0.00  0.00    +0.000 C 
ATOM     27  C   UNL     1       4.135   3.474  16.623  0.00  0.00    +0.000 C 
ATOM     28  C   UNL     1       3.406   1.732  18.231  0.00  0.00    +0.000 C 
ENDBRANCH  25  26
BRANCH  25  29
ATOM     29  C   UNL     1       1.122   3.251  19.090  0.00  0.00    +0.000 C 
ATOM     30  O   UNL     1       0.279   2.433  18.750  0.00  0.00    +0.000 OA
BRANCH  29  32
ATOM     31  C   UNL     1       1.406   2.733  21.378  0.00  0.00    +0.000 C 
ATOM     32  O   UNL     1       1.322   3.721  20.354  0.00  0.00    +0.000 OA
ENDBRANCH  29  32
ENDBRANCH  25  29
ENDBRANCH  23  25
ENDBRANCH  21  23
BRANCH  21  33
ATOM     33  O   UNL     1       4.304   6.619  17.913  0.00  0.00    +0.000 OA
ATOM     34  H   UNL     1       4.723   5.747  18.003  0.00  0.00    +0.000 HD
ENDBRANCH  21  33
ENDBRANCH  20  21
ENDBRANCH  19  20
ENDBRANCH   1  19
TORSDOF 11
ENDMDL
MODEL 7
REMARK VINA RESULT:      -6.9      1.258      2.329
REMARK  Name = 
REMARK  15 active torsions:
REMARK  status: ('A' for Active; 'I' for Inactive)
REMARK    1  A    between atoms: C_1  and  O_2
REMARK    2  A    between atoms: O_2  and  C_3
REMARK    3  A    between atoms: C_3  and  C_5
REMARK    4  A    between atoms: C_5  and  N_6
REMARK    5  A    between atoms: C_5  and  C_29
REMARK    6  A    between atoms: N_6  and  P_7
REMARK    7  A    between atoms: P_7  and  O_9
REMARK    8  A    between atoms: P_7  and  O_10
REMARK    9  A    between atoms: O_10  and  C_11
REMARK   10  A    between atoms: C_11  and  C_12
REMARK   11  A    between atoms: C_14  and  N_15
REMARK   12  A    between atoms: C_17  and  C_18
REMARK   13  A    between atoms: C_25  and  N_26
REMARK   14  A    between atoms: C_29  and  C_30
REMARK   15  A    between atoms: C_29  and  C_31
REMARK                            x       y       z     vdW  Elec       q    Type
REMARK                         _______ _______ _______ _____ _____    ______ ____
ROOT
ATOM      1  C   UNL     1       1.573  10.029  19.183  0.00  0.00    +0.000 C 
ATOM      2  O   UNL     1       0.853  11.201  18.778  0.00  0.00    +0.000 OA
ATOM      3  C   UNL     1      -0.252  11.419  19.664  0.00  0.00    +0.000 C 
ATOM      4  C   UNL     1      -0.106  10.402  20.792  0.00  0.00    +0.000 C 
ATOM      5  C   UNL     1       0.654   9.270  20.136  0.00  0.00    +0.000 C 
ENDROOT
BRANCH   3   6
ATOM      6  N   UNL     1      -1.513  11.319  18.923  0.00  0.00    +0.000 N 
ATOM      7  C   UNL     1      -1.602  10.596  17.746  0.00  0.00    +0.000 A 
ATOM      8  C   UNL     1      -2.704  10.573  16.987  0.00  0.00    +0.000 A 
ATOM      9  C   UNL     1      -2.813   9.818  15.704  0.00  0.00    +0.000 C 
ATOM     10  C   UNL     1      -3.871  11.361  17.435  0.00  0.00    +0.000 A 
ATOM     11  O   UNL     1      -4.919  11.389  16.802  0.00  0.00    +0.000 OA
ATOM     12  N   UNL     1      -3.705  12.062  18.595  0.00  0.00    +0.000 N 
ATOM     13  C   UNL     1      -2.567  12.118  19.356  0.00  0.00    +0.000 A 
ATOM     14  O   UNL     1      -2.521  12.841  20.348  0.00  0.00    +0.000 OA
ATOM     15  H   UNL     1      -4.478  12.635  18.895  0.00  0.00    +0.000 HD
ENDBRANCH   3   6
BRANCH   5  16
ATOM     16  N   UNL     1       1.447   8.510  21.110  0.00  0.00    +0.000 NA
ATOM     17  N   UNL     1       1.365   7.270  21.037  0.00  0.00    +0.000 NA
ATOM     18  N   UNL     1       1.299   6.136  20.965  0.00  0.00    +0.000 NA
ENDBRANCH   5  16
BRANCH   1  19
ATOM     19  C   UNL     1       1.981   9.186  17.966  0.00  0.00    +0.000 C 
BRANCH  19  20
ATOM     20  O   UNL     1       3.271   8.581  18.083  0.00  0.00    +0.000 OA
BRANCH  20  21
ATOM     21  P   UNL     1       3.266   6.870  17.828  0.00  0.00    +0.000 P 
ATOM     22  O   UNL     1       1.747   6.887  17.668  0.00  0.00    +0.000 OA
BRANCH  21  23
ATOM     23  N   UNL     1       3.259   5.110  17.567  0.00  0.00    +0.000 NA
ATOM     24  H   UNL     1       2.354   4.803  17.906  0.00  0.00    +0.000 HD
BRANCH  23  25
ATOM     25  C   UNL     1       4.366   4.344  18.170  0.00  0.00    +0.000 C 
BRANCH  25  26
ATOM     26  C   UNL     1       3.999   2.857  18.447  0.00  0.00    +0.000 C 
ATOM     27  C   UNL     1       3.945   2.536  19.949  0.00  0.00    +0.000 C 
ATOM     28  C   UNL     1       2.648   2.466  17.836  0.00  0.00    +0.000 C 
ENDBRANCH  25  26
BRANCH  25  29
ATOM     29  C   UNL     1       5.604   4.423  17.260  0.00  0.00    +0.000 C 
ATOM     30  O   UNL     1       6.753   4.511  17.668  0.00  0.00    +0.000 OA
BRANCH  29  32
ATOM     31  C   UNL     1       6.110   3.794  15.039  0.00  0.00    +0.000 C 
ATOM     32  O   UNL     1       5.213   4.418  15.954  0.00  0.00    +0.000 OA
ENDBRANCH  29  32
ENDBRANCH  25  29
ENDBRANCH  23  25
ENDBRANCH  21  23
BRANCH  21  33
ATOM     33  O   UNL     1       3.585   6.613  19.408  0.00  0.00    +0.000 OA
ATOM     34  H   UNL     1       4.540   6.560  19.574  0.00  0.00    +0.000 HD
ENDBRANCH  21  33
ENDBRANCH  20  21
ENDBRANCH  19  20
ENDBRANCH   1  19
TORSDOF 11
ENDMDL
MODEL 8
REMARK VINA RESULT:      -6.8      1.449      2.554
REMARK  Name = 
REMARK  15 active torsions:
REMARK  status: ('A' for Active; 'I' for Inactive)
REMARK    1  A    between atoms: C_1  and  O_2
REMARK    2  A    between atoms: O_2  and  C_3
REMARK    3  A    between atoms: C_3  and  C_5
REMARK    4  A    between atoms: C_5  and  N_6
REMARK    5  A    between atoms: C_5  and  C_29
REMARK    6  A    between atoms: N_6  and  P_7
REMARK    7  A    between atoms: P_7  and  O_9
REMARK    8  A    between atoms: P_7  and  O_10
REMARK    9  A    between atoms: O_10  and  C_11
REMARK   10  A    between atoms: C_11  and  C_12
REMARK   11  A    between atoms: C_14  and  N_15
REMARK   12  A    between atoms: C_17  and  C_18
REMARK   13  A    between atoms: C_25  and  N_26
REMARK   14  A    between atoms: C_29  and  C_30
REMARK   15  A    between atoms: C_29  and  C_31
REMARK                            x       y       z     vdW  Elec       q    Type
REMARK                         _______ _______ _______ _____ _____    ______ ____
ROOT
ATOM      1  C   UNL     1       0.932   9.975  19.921  0.00  0.00    +0.000 C 
ATOM      2  O   UNL     1       0.414  11.165  19.313  0.00  0.00    +0.000 OA
ATOM      3  C   UNL     1      -0.767  11.587  20.008  0.00  0.00    +0.000 C 
ATOM      4  C   UNL     1      -0.891  10.685  21.232  0.00  0.00    +0.000 C 
ATOM      5  C   UNL     1      -0.187   9.418  20.798  0.00  0.00    +0.000 C 
ENDROOT
BRANCH   3   6
ATOM      6  N   UNL     1      -1.922  11.538  19.106  0.00  0.00    +0.000 N 
ATOM      7  C   UNL     1      -1.828  10.976  17.844  0.00  0.00    +0.000 A 
ATOM      8  C   UNL     1      -2.827  11.012  16.955  0.00  0.00    +0.000 A 
ATOM      9  C   UNL     1      -2.738  10.430  15.583  0.00  0.00    +0.000 C 
ATOM     10  C   UNL     1      -4.081  11.689  17.348  0.00  0.00    +0.000 A 
ATOM     11  O   UNL     1      -5.044  11.760  16.594  0.00  0.00    +0.000 OA
ATOM     12  N   UNL     1      -4.095  12.235  18.598  0.00  0.00    +0.000 N 
ATOM     13  C   UNL     1      -3.062  12.232  19.499  0.00  0.00    +0.000 A 
ATOM     14  O   UNL     1      -3.176  12.818  20.573  0.00  0.00    +0.000 OA
ATOM     15  H   UNL     1      -4.928  12.733  18.869  0.00  0.00    +0.000 HD
ENDBRANCH   3   6
BRANCH   5  16
ATOM     16  N   UNL     1       0.376   8.689  21.940  0.00  0.00    +0.000 NA
ATOM     17  N   UNL     1       1.384   9.193  22.470  0.00  0.00    +0.000 NA
ATOM     18  N   UNL     1       2.300   9.658  22.962  0.00  0.00    +0.000 NA
ENDBRANCH   5  16
BRANCH   1  19
ATOM     19  C   UNL     1       1.398   8.970  18.857  0.00  0.00    +0.000 C 
BRANCH  19  20
ATOM     20  O   UNL     1       2.123   7.857  19.385  0.00  0.00    +0.000 OA
BRANCH  20  21
ATOM     21  P   UNL     1       3.232   7.150  18.261  0.00  0.00    +0.000 P 
ATOM     22  O   UNL     1       2.923   8.249  17.247  0.00  0.00    +0.000 OA
BRANCH  21  23
ATOM     23  N   UNL     1       4.372   6.424  17.103  0.00  0.00    +0.000 NA
ATOM     24  H   UNL     1       3.804   5.799  16.541  0.00  0.00    +0.000 HD
BRANCH  23  25
ATOM     25  C   UNL     1       5.551   5.742  17.671  0.00  0.00    +0.000 C 
BRANCH  25  26
ATOM     26  C   UNL     1       5.368   4.201  17.783  0.00  0.00    +0.000 C 
ATOM     27  C   UNL     1       4.853   3.771  19.167  0.00  0.00    +0.000 C 
ATOM     28  C   UNL     1       4.398   3.650  16.731  0.00  0.00    +0.000 C 
ENDBRANCH  25  26
BRANCH  25  29
ATOM     29  C   UNL     1       6.792   6.067  16.822  0.00  0.00    +0.000 C 
ATOM     30  O   UNL     1       7.548   5.224  16.359  0.00  0.00    +0.000 OA
BRANCH  29  32
ATOM     31  C   UNL     1       7.766   8.043  17.677  0.00  0.00    +0.000 C 
ATOM     32  O   UNL     1       6.928   7.418  16.707  0.00  0.00    +0.000 OA
ENDBRANCH  29  32
ENDBRANCH  25  29
ENDBRANCH  23  25
ENDBRANCH  21  23
BRANCH  21  33
ATOM     33  O   UNL     1       2.194   5.923  17.977  0.00  0.00    +0.000 OA
ATOM     34  H   UNL     1       2.608   5.224  17.444  0.00  0.00    +0.000 HD
ENDBRANCH  21  33
ENDBRANCH  20  21
ENDBRANCH  19  20
ENDBRANCH   1  19
TORSDOF 11
ENDMDL
MODEL 9
REMARK VINA RESULT:      -6.8      1.201      1.565
REMARK  Name = 
REMARK  15 active torsions:
REMARK  status: ('A' for Active; 'I' for Inactive)
REMARK    1  A    between atoms: C_1  and  O_2
REMARK    2  A    between atoms: O_2  and  C_3
REMARK    3  A    between atoms: C_3  and  C_5
REMARK    4  A    between atoms: C_5  and  N_6
REMARK    5  A    between atoms: C_5  and  C_29
REMARK    6  A    between atoms: N_6  and  P_7
REMARK    7  A    between atoms: P_7  and  O_9
REMARK    8  A    between atoms: P_7  and  O_10
REMARK    9  A    between atoms: O_10  and  C_11
REMARK   10  A    between atoms: C_11  and  C_12
REMARK   11  A    between atoms: C_14  and  N_15
REMARK   12  A    between atoms: C_17  and  C_18
REMARK   13  A    between atoms: C_25  and  N_26
REMARK   14  A    between atoms: C_29  and  C_30
REMARK   15  A    between atoms: C_29  and  C_31
REMARK                            x       y       z     vdW  Elec       q    Type
REMARK                         _______ _______ _______ _____ _____    ______ ____
ROOT
ATOM      1  C   UNL     1       1.510  10.126  19.472  0.00  0.00    +0.000 C 
ATOM      2  O   UNL     1       0.893  11.039  18.555  0.00  0.00    +0.000 OA
ATOM      3  C   UNL     1      -0.100  11.814  19.241  0.00  0.00    +0.000 C 
ATOM      4  C   UNL     1       0.031  11.467  20.721  0.00  0.00    +0.000 C 
ATOM      5  C   UNL     1       0.599  10.065  20.696  0.00  0.00    +0.000 C 
ENDROOT
BRANCH   3   6
ATOM      6  N   UNL     1      -1.424  11.543  18.674  0.00  0.00    +0.000 N 
ATOM      7  C   UNL     1      -1.581  10.727  17.566  0.00  0.00    +0.000 A 
ATOM      8  C   UNL     1      -2.758  10.546  16.957  0.00  0.00    +0.000 A 
ATOM      9  C   UNL     1      -2.945   9.688  15.750  0.00  0.00    +0.000 C 
ATOM     10  C   UNL     1      -3.936  11.257  17.497  0.00  0.00    +0.000 A 
ATOM     11  O   UNL     1      -5.050  11.140  17.001  0.00  0.00    +0.000 OA
ATOM     12  N   UNL     1      -3.703  12.057  18.578  0.00  0.00    +0.000 N 
ATOM     13  C   UNL     1      -2.493  12.274  19.183  0.00  0.00    +0.000 A 
ATOM     14  O   UNL     1      -2.400  13.072  20.113  0.00  0.00    +0.000 OA
ATOM     15  H   UNL     1      -4.487  12.579  18.936  0.00  0.00    +0.000 HD
ENDBRANCH   3   6
BRANCH   5  16
ATOM     16  N   UNL     1       1.385   9.775  21.901  0.00  0.00    +0.000 NA
ATOM     17  N   UNL     1       0.752   9.733  22.973  0.00  0.00    +0.000 NA
ATOM     18  N   UNL     1       0.173   9.686  23.952  0.00  0.00    +0.000 NA
ENDBRANCH   5  16
BRANCH   1  19
ATOM     19  C   UNL     1       1.713   8.748  18.824  0.00  0.00    +0.000 C 
BRANCH  19  20
ATOM     20  O   UNL     1       1.748   7.666  19.757  0.00  0.00    +0.000 OA
BRANCH  20  21
ATOM     21  P   UNL     1       2.914   6.448  19.370  0.00  0.00    +0.000 P 
ATOM     22  O   UNL     1       2.030   5.948  18.229  0.00  0.00    +0.000 OA
BRANCH  21  23
ATOM     23  N   UNL     1       4.112   5.193  18.970  0.00  0.00    +0.000 NA
ATOM     24  H   UNL     1       4.776   5.219  19.736  0.00  0.00    +0.000 HD
BRANCH  23  25
ATOM     25  C   UNL     1       4.776   5.303  17.657  0.00  0.00    +0.000 C 
BRANCH  25  26
ATOM     26  C   UNL     1       6.276   5.698  17.764  0.00  0.00    +0.000 C 
ATOM     27  C   UNL     1       6.537   7.142  17.301  0.00  0.00    +0.000 C 
ATOM     28  C   UNL     1       6.816   5.561  19.193  0.00  0.00    +0.000 C 
ENDBRANCH  25  26
BRANCH  25  29
ATOM     29  C   UNL     1       4.631   3.975  16.894  0.00  0.00    +0.000 C 
ATOM     30  O   UNL     1       5.446   3.555  16.085  0.00  0.00    +0.000 OA
BRANCH  29  32
ATOM     31  C   UNL     1       3.562   2.096  17.847  0.00  0.00    +0.000 C 
ATOM     32  O   UNL     1       3.454   3.377  17.233  0.00  0.00    +0.000 OA
ENDBRANCH  29  32
ENDBRANCH  25  29
ENDBRANCH  23  25
ENDBRANCH  21  23
BRANCH  21  33
ATOM     33  O   UNL     1       2.506   5.603  20.705  0.00  0.00    +0.000 OA
ATOM     34  H   UNL     1       2.029   4.788  20.479  0.00  0.00    +0.000 HD
ENDBRANCH  21  33
ENDBRANCH  20  21
ENDBRANCH  19  20
ENDBRANCH   1  19
TORSDOF 11
ENDMDL
