MODEL 1
REMARK VINA RESULT:      -8.2      0.000      0.000
REMARK  Name = 
REMARK  6 active torsions:
REMARK  status: ('A' for Active; 'I' for Inactive)
REMARK    1  A    between atoms: C_1  and  C_2
REMARK    2  A    between atoms: C_5  and  C_6
REMARK    3  A    between atoms: N_8  and  C_9
REMARK    4  A    between atoms: C_14  and  O_15
REMARK    5  A    between atoms: O_15  and  C_16
REMARK    6  A    between atoms: C_16  and  C_17
REMARK                            x       y       z     vdW  Elec       q    Type
REMARK                         _______ _______ _______ _____ _____    ______ ____
ROOT
ATOM      1  C   UNL     1       5.234   4.230  17.668  0.00  0.00    +0.000 C 
ATOM      2  O   UNL     1       5.913   4.080  18.680  0.00  0.00    +0.000 OA
ATOM      3  N   UNL     1       3.842   4.294  17.655  0.00  0.00    +0.000 N 
ATOM      4  H   UNL     1       3.340   4.437  16.787  0.00  0.00    +0.000 HD
ENDROOT
BRANCH   1   9
ATOM      5  C   UNL     1       7.959   5.305  12.620  0.00  0.00    +0.000 C 
ATOM      6  C   UNL     1       7.223   4.968  13.883  0.00  0.00    +0.000 A 
ATOM      7  C   UNL     1       6.251   4.047  13.966  0.00  0.00    +0.000 A 
ATOM      8  C   UNL     1       5.588   3.786  15.229  0.00  0.00    +0.000 A 
ATOM      9  C   UNL     1       5.969   4.393  16.372  0.00  0.00    +0.000 A 
ATOM     10  C   UNL     1       7.093   5.398  16.275  0.00  0.00    +0.000 A 
ATOM     11  O   UNL     1       7.576   5.995  17.229  0.00  0.00    +0.000 OA
ATOM     12  N   UNL     1       7.604   5.630  15.016  0.00  0.00    +0.000 N 
ATOM     13  H   UNL     1       8.337   6.331  14.984  0.00  0.00    +0.000 HD
ENDBRANCH   1   9
BRANCH   3  14
ATOM     14  C   UNL     1       2.999   4.156  18.804  0.00  0.00    +0.000 A 
ATOM     15  C   UNL     1       2.542   2.900  19.233  0.00  0.00    +0.000 A 
ATOM     16  C   UNL     1       1.706   2.738  20.338  0.00  0.00    +0.000 A 
ATOM     17  C   UNL     1       1.258   3.850  21.022  0.00  0.00    +0.000 A 
ATOM     18  C   UNL     1       1.679   5.113  20.617  0.00  0.00    +0.000 A 
ATOM     19  C   UNL     1       2.587   5.288  19.548  0.00  0.00    +0.000 A 
BRANCH  19  20
ATOM     20  O   UNL     1       3.118   6.532  19.232  0.00  0.00    +0.000 OA
BRANCH  20  21
ATOM     21  C   UNL     1       2.155   7.608  19.316  0.00  0.00    +0.000 C 
BRANCH  21  22
ATOM     22  C   UNL     1       2.021   8.341  18.015  0.00  0.00    +0.000 C 
ATOM     23  C   UNL     1       0.847   9.282  17.835  0.00  0.00    +0.000 C 
ATOM     24  C   UNL     1       2.240   9.832  17.943  0.00  0.00    +0.000 C 
ENDBRANCH  21  22
ENDBRANCH  20  21
ENDBRANCH  19  20
ENDBRANCH   3  14
TORSDOF 5
ENDMDL
MODEL 2
REMARK VINA RESULT:      -7.7      1.071      1.248
REMARK  Name = 
REMARK  6 active torsions:
REMARK  status: ('A' for Active; 'I' for Inactive)
REMARK    1  A    between atoms: C_1  and  C_2
REMARK    2  A    between atoms: C_5  and  C_6
REMARK    3  A    between atoms: N_8  and  C_9
REMARK    4  A    between atoms: C_14  and  O_15
REMARK    5  A    between atoms: O_15  and  C_16
REMARK    6  A    between atoms: C_16  and  C_17
REMARK                            x       y       z     vdW  Elec       q    Type
REMARK                         _______ _______ _______ _____ _____    ______ ____
ROOT
ATOM      1  C   UNL     1       5.127   4.366  18.042  0.00  0.00    +0.000 C 
ATOM      2  O   UNL     1       5.544   5.085  18.945  0.00  0.00    +0.000 OA
ATOM      3  N   UNL     1       4.032   3.512  18.156  0.00  0.00    +0.000 N 
ATOM      4  H   UNL     1       3.726   2.957  17.366  0.00  0.00    +0.000 HD
ENDROOT
BRANCH   1   9
ATOM      5  C   UNL     1       7.792   5.157  12.910  0.00  0.00    +0.000 C 
ATOM      6  C   UNL     1       7.063   4.898  14.195  0.00  0.00    +0.000 A 
ATOM      7  C   UNL     1       5.980   4.113  14.303  0.00  0.00    +0.000 A 
ATOM      8  C   UNL     1       5.333   3.920  15.586  0.00  0.00    +0.000 A 
ATOM      9  C   UNL     1       5.832   4.452  16.721  0.00  0.00    +0.000 A 
ATOM     10  C   UNL     1       7.074   5.301  16.595  0.00  0.00    +0.000 A 
ATOM     11  O   UNL     1       7.666   5.813  17.538  0.00  0.00    +0.000 OA
ATOM     12  N   UNL     1       7.568   5.485  15.321  0.00  0.00    +0.000 N 
ATOM     13  H   UNL     1       8.386   6.083  15.270  0.00  0.00    +0.000 HD
ENDBRANCH   1   9
BRANCH   3  14
ATOM     14  C   UNL     1       3.257   3.318  19.345  0.00  0.00    +0.000 A 
ATOM     15  C   UNL     1       3.674   2.439  20.356  0.00  0.00    +0.000 A 
ATOM     16  C   UNL     1       2.932   2.216  21.517  0.00  0.00    +0.000 A 
ATOM     17  C   UNL     1       1.711   2.840  21.674  0.00  0.00    +0.000 A 
ATOM     18  C   UNL     1       1.259   3.709  20.686  0.00  0.00    +0.000 A 
ATOM     19  C   UNL     1       2.035   4.003  19.541  0.00  0.00    +0.000 A 
BRANCH  19  20
ATOM     20  O   UNL     1       1.651   4.974  18.625  0.00  0.00    +0.000 OA
BRANCH  20  21
ATOM     21  C   UNL     1       2.126   6.299  18.955  0.00  0.00    +0.000 C 
BRANCH  21  22
ATOM     22  C   UNL     1       2.349   7.135  17.731  0.00  0.00    +0.000 C 
ATOM     23  C   UNL     1       2.507   8.632  17.898  0.00  0.00    +0.000 C 
ATOM     24  C   UNL     1       3.682   7.796  17.479  0.00  0.00    +0.000 C 
ENDBRANCH  21  22
ENDBRANCH  20  21
ENDBRANCH  19  20
ENDBRANCH   3  14
TORSDOF 5
ENDMDL
MODEL 3
REMARK VINA RESULT:      -7.7      1.127      1.145
REMARK  Name = 
REMARK  6 active torsions:
REMARK  status: ('A' for Active; 'I' for Inactive)
REMARK    1  A    between atoms: C_1  and  C_2
REMARK    2  A    between atoms: C_5  and  C_6
REMARK    3  A    between atoms: N_8  and  C_9
REMARK    4  A    between atoms: C_14  and  O_15
REMARK    5  A    between atoms: O_15  and  C_16
REMARK    6  A    between atoms: C_16  and  C_17
REMARK                            x       y       z     vdW  Elec       q    Type
REMARK                         _______ _______ _______ _____ _____    ______ ____
ROOT
ATOM      1  C   UNL     1       4.366   4.053  17.016  0.00  0.00    +0.000 C 
ATOM      2  O   UNL     1       3.234   3.776  16.629  0.00  0.00    +0.000 OA
ATOM      3  N   UNL     1       4.745   4.127  18.355  0.00  0.00    +0.000 N 
ATOM      4  H   UNL     1       5.701   4.343  18.609  0.00  0.00    +0.000 HD
ENDROOT
BRANCH   1   9
ATOM      5  C   UNL     1       8.274   5.408  12.899  0.00  0.00    +0.000 C 
ATOM      6  C   UNL     1       7.247   4.999  13.912  0.00  0.00    +0.000 A 
ATOM      7  C   UNL     1       6.319   4.052  13.706  0.00  0.00    +0.000 A 
ATOM      8  C   UNL     1       5.359   3.721  14.742  0.00  0.00    +0.000 A 
ATOM      9  C   UNL     1       5.407   4.289  15.964  0.00  0.00    +0.000 A 
ATOM     10  C   UNL     1       6.481   5.325  16.199  0.00  0.00    +0.000 A 
ATOM     11  O   UNL     1       6.677   5.893  17.267  0.00  0.00    +0.000 OA
ATOM     12  N   UNL     1       7.295   5.622  15.128  0.00  0.00    +0.000 N 
ATOM     13  H   UNL     1       7.986   6.342  15.312  0.00  0.00    +0.000 HD
ENDBRANCH   1   9
BRANCH   3  14
ATOM     14  C   UNL     1       3.871   3.930  19.472  0.00  0.00    +0.000 A 
ATOM     15  C   UNL     1       3.728   2.672  20.079  0.00  0.00    +0.000 A 
ATOM     16  C   UNL     1       2.871   2.447  21.157  0.00  0.00    +0.000 A 
ATOM     17  C   UNL     1       2.086   3.479  21.630  0.00  0.00    +0.000 A 
ATOM     18  C   UNL     1       2.192   4.738  21.045  0.00  0.00    +0.000 A 
ATOM     19  C   UNL     1       3.111   5.000  20.003  0.00  0.00    +0.000 A 
BRANCH  19  20
ATOM     20  O   UNL     1       3.318   6.283  19.513  0.00  0.00    +0.000 OA
BRANCH  20  21
ATOM     21  C   UNL     1       2.142   6.866  18.908  0.00  0.00    +0.000 C 
BRANCH  21  22
ATOM     22  C   UNL     1       2.296   8.342  18.695  0.00  0.00    +0.000 C 
ATOM     23  C   UNL     1       1.408   9.020  17.671  0.00  0.00    +0.000 C 
ATOM     24  C   UNL     1       1.219   9.302  19.134  0.00  0.00    +0.000 C 
ENDBRANCH  21  22
ENDBRANCH  20  21
ENDBRANCH  19  20
ENDBRANCH   3  14
TORSDOF 5
ENDMDL
MODEL 4
REMARK VINA RESULT:      -7.6      2.928      7.239
REMARK  Name = 
REMARK  6 active torsions:
REMARK  status: ('A' for Active; 'I' for Inactive)
REMARK    1  A    between atoms: C_1  and  C_2
REMARK    2  A    between atoms: C_5  and  C_6
REMARK    3  A    between atoms: N_8  and  C_9
REMARK    4  A    between atoms: C_14  and  O_15
REMARK    5  A    between atoms: O_15  and  C_16
REMARK    6  A    between atoms: C_16  and  C_17
REMARK                            x       y       z     vdW  Elec       q    Type
REMARK                         _______ _______ _______ _____ _____    ______ ____
ROOT
ATOM      1  C   UNL     1       2.213   8.114  18.432  0.00  0.00    +0.000 C 
ATOM      2  O   UNL     1       2.386   8.479  17.272  0.00  0.00    +0.000 OA
ATOM      3  N   UNL     1       2.683   6.913  18.959  0.00  0.00    +0.000 N 
ATOM      4  H   UNL     1       2.523   6.678  19.931  0.00  0.00    +0.000 HD
ENDROOT
BRANCH   1   9
ATOM      5  C   UNL     1      -1.010  11.480  21.945  0.00  0.00    +0.000 C 
ATOM      6  C   UNL     1      -0.168  10.678  20.997  0.00  0.00    +0.000 A 
ATOM      7  C   UNL     1       0.288  11.137  19.822  0.00  0.00    +0.000 A 
ATOM      8  C   UNL     1       1.095  10.291  18.963  0.00  0.00    +0.000 A 
ATOM      9  C   UNL     1       1.478   9.054  19.339  0.00  0.00    +0.000 A 
ATOM     10  C   UNL     1       0.992   8.562  20.683  0.00  0.00    +0.000 A 
ATOM     11  O   UNL     1       1.292   7.482  21.178  0.00  0.00    +0.000 OA
ATOM     12  N   UNL     1       0.169   9.413  21.389  0.00  0.00    +0.000 N 
ATOM     13  H   UNL     1      -0.162   9.040  22.273  0.00  0.00    +0.000 HD
ENDBRANCH   1   9
BRANCH   3  14
ATOM     14  C   UNL     1       3.399   5.914  18.224  0.00  0.00    +0.000 A 
ATOM     15  C   UNL     1       4.765   6.055  17.932  0.00  0.00    +0.000 A 
ATOM     16  C   UNL     1       5.483   5.107  17.203  0.00  0.00    +0.000 A 
ATOM     17  C   UNL     1       4.832   4.000  16.698  0.00  0.00    +0.000 A 
ATOM     18  C   UNL     1       3.475   3.832  16.957  0.00  0.00    +0.000 A 
ATOM     19  C   UNL     1       2.751   4.745  17.758  0.00  0.00    +0.000 A 
BRANCH  19  20
ATOM     20  O   UNL     1       1.435   4.508  18.134  0.00  0.00    +0.000 OA
BRANCH  20  21
ATOM     21  C   UNL     1       1.277   3.345  18.979  0.00  0.00    +0.000 C 
BRANCH  21  22
ATOM     22  C   UNL     1       1.034   3.723  20.409  0.00  0.00    +0.000 C 
ATOM     23  C   UNL     1       1.448   2.748  21.493  0.00  0.00    +0.000 C 
ATOM     24  C   UNL     1       2.186   4.046  21.329  0.00  0.00    +0.000 C 
ENDBRANCH  21  22
ENDBRANCH  20  21
ENDBRANCH  19  20
ENDBRANCH   3  14
TORSDOF 5
ENDMDL
MODEL 5
REMARK VINA RESULT:      -7.5      2.220      6.778
REMARK  Name = 
REMARK  6 active torsions:
REMARK  status: ('A' for Active; 'I' for Inactive)
REMARK    1  A    between atoms: C_1  and  C_2
REMARK    2  A    between atoms: C_5  and  C_6
REMARK    3  A    between atoms: N_8  and  C_9
REMARK    4  A    between atoms: C_14  and  O_15
REMARK    5  A    between atoms: O_15  and  C_16
REMARK    6  A    between atoms: C_16  and  C_17
REMARK                            x       y       z     vdW  Elec       q    Type
REMARK                         _______ _______ _______ _____ _____    ______ ____
ROOT
ATOM      1  C   UNL     1       3.300   6.521  18.948  0.00  0.00    +0.000 C 
ATOM      2  O   UNL     1       3.766   5.738  19.771  0.00  0.00    +0.000 OA
ATOM      3  N   UNL     1       3.661   6.557  17.603  0.00  0.00    +0.000 N 
ATOM      4  H   UNL     1       3.226   7.216  16.969  0.00  0.00    +0.000 HD
ENDROOT
BRANCH   1   9
ATOM      5  C   UNL     1      -0.484  10.553  20.813  0.00  0.00    +0.000 C 
ATOM      6  C   UNL     1       0.468   9.473  20.396  0.00  0.00    +0.000 A 
ATOM      7  C   UNL     1       0.767   8.400  21.144  0.00  0.00    +0.000 A 
ATOM      8  C   UNL     1       1.704   7.402  20.664  0.00  0.00    +0.000 A 
ATOM      9  C   UNL     1       2.246   7.471  19.431  0.00  0.00    +0.000 A 
ATOM     10  C   UNL     1       1.872   8.662  18.580  0.00  0.00    +0.000 A 
ATOM     11  O   UNL     1       2.249   8.839  17.428  0.00  0.00    +0.000 OA
ATOM     12  N   UNL     1       1.034   9.592  19.157  0.00  0.00    +0.000 N 
ATOM     13  H   UNL     1       0.827  10.392  18.569  0.00  0.00    +0.000 HD
ENDBRANCH   1   9
BRANCH   3  14
ATOM     14  C   UNL     1       4.648   5.719  16.991  0.00  0.00    +0.000 A 
ATOM     15  C   UNL     1       5.934   6.197  16.694  0.00  0.00    +0.000 A 
ATOM     16  C   UNL     1       6.910   5.409  16.082  0.00  0.00    +0.000 A 
ATOM     17  C   UNL     1       6.602   4.119  15.700  0.00  0.00    +0.000 A 
ATOM     18  C   UNL     1       5.333   3.615  15.966  0.00  0.00    +0.000 A 
ATOM     19  C   UNL     1       4.359   4.375  16.654  0.00  0.00    +0.000 A 
BRANCH  19  20
ATOM     20  O   UNL     1       3.143   3.828  17.044  0.00  0.00    +0.000 OA
BRANCH  20  21
ATOM     21  C   UNL     1       3.279   2.706  17.946  0.00  0.00    +0.000 C 
BRANCH  21  22
ATOM     22  C   UNL     1       1.985   2.379  18.630  0.00  0.00    +0.000 C 
ATOM     23  C   UNL     1       1.880   2.608  20.123  0.00  0.00    +0.000 C 
ATOM     24  C   UNL     1       1.101   3.473  19.175  0.00  0.00    +0.000 C 
ENDBRANCH  21  22
ENDBRANCH  20  21
ENDBRANCH  19  20
ENDBRANCH   3  14
TORSDOF 5
ENDMDL
MODEL 6
REMARK VINA RESULT:      -7.4      2.955      7.060
REMARK  Name = 
REMARK  6 active torsions:
REMARK  status: ('A' for Active; 'I' for Inactive)
REMARK    1  A    between atoms: C_1  and  C_2
REMARK    2  A    between atoms: C_5  and  C_6
REMARK    3  A    between atoms: N_8  and  C_9
REMARK    4  A    between atoms: C_14  and  O_15
REMARK    5  A    between atoms: O_15  and  C_16
REMARK    6  A    between atoms: C_16  and  C_17
REMARK                            x       y       z     vdW  Elec       q    Type
REMARK                         _______ _______ _______ _____ _____    ______ ____
ROOT
ATOM      1  C   UNL     1       2.093   7.863  19.291  0.00  0.00    +0.000 C 
ATOM      2  O   UNL     1       2.338   7.300  20.354  0.00  0.00    +0.000 OA
ATOM      3  N   UNL     1       2.534   7.422  18.045  0.00  0.00    +0.000 N 
ATOM      4  H   UNL     1       2.283   7.921  17.201  0.00  0.00    +0.000 HD
ENDROOT
BRANCH   1   9
ATOM      5  C   UNL     1      -0.890  12.871  19.583  0.00  0.00    +0.000 C 
ATOM      6  C   UNL     1      -0.171  11.555  19.563  0.00  0.00    +0.000 A 
ATOM      7  C   UNL     1      -0.385  10.566  20.444  0.00  0.00    +0.000 A 
ATOM      8  C   UNL     1       0.359   9.324  20.354  0.00  0.00    +0.000 A 
ATOM      9  C   UNL     1       1.228   9.085  19.350  0.00  0.00    +0.000 A 
ATOM     10  C   UNL     1       1.431  10.190  18.340  0.00  0.00    +0.000 A 
ATOM     11  O   UNL     1       2.151  10.106  17.353  0.00  0.00    +0.000 OA
ATOM     12  N   UNL     1       0.734  11.359  18.558  0.00  0.00    +0.000 N 
ATOM     13  H   UNL     1       0.916  12.090  17.877  0.00  0.00    +0.000 HD
ENDBRANCH   1   9
BRANCH   3  14
ATOM     14  C   UNL     1       3.365   6.276  17.823  0.00  0.00    +0.000 A 
ATOM     15  C   UNL     1       4.743   6.404  17.589  0.00  0.00    +0.000 A 
ATOM     16  C   UNL     1       5.574   5.308  17.351  0.00  0.00    +0.000 A 
ATOM     17  C   UNL     1       5.028   4.041  17.292  0.00  0.00    +0.000 A 
ATOM     18  C   UNL     1       3.663   3.877  17.506  0.00  0.00    +0.000 A 
ATOM     19  C   UNL     1       2.823   4.969  17.824  0.00  0.00    +0.000 A 
BRANCH  19  20
ATOM     20  O   UNL     1       1.491   4.791  18.176  0.00  0.00    +0.000 OA
BRANCH  20  21
ATOM     21  C   UNL     1       1.248   3.574  18.917  0.00  0.00    +0.000 C 
BRANCH  21  22
ATOM     22  C   UNL     1       1.036   3.841  20.377  0.00  0.00    +0.000 C 
ATOM     23  C   UNL     1       1.346   2.735  21.365  0.00  0.00    +0.000 C 
ATOM     24  C   UNL     1       2.209   3.962  21.318  0.00  0.00    +0.000 C 
ENDBRANCH  21  22
ENDBRANCH  20  21
ENDBRANCH  19  20
ENDBRANCH   3  14
TORSDOF 5
ENDMDL
MODEL 7
REMARK VINA RESULT:      -7.4      2.798      7.451
REMARK  Name = 
REMARK  6 active torsions:
REMARK  status: ('A' for Active; 'I' for Inactive)
REMARK    1  A    between atoms: C_1  and  C_2
REMARK    2  A    between atoms: C_5  and  C_6
REMARK    3  A    between atoms: N_8  and  C_9
REMARK    4  A    between atoms: C_14  and  O_15
REMARK    5  A    between atoms: O_15  and  C_16
REMARK    6  A    between atoms: C_16  and  C_17
REMARK                            x       y       z     vdW  Elec       q    Type
REMARK                         _______ _______ _______ _____ _____    ______ ____
ROOT
ATOM      1  C   UNL     1       2.171   8.226  18.437  0.00  0.00    +0.000 C 
ATOM      2  O   UNL     1       1.999   8.667  17.304  0.00  0.00    +0.000 OA
ATOM      3  N   UNL     1       2.993   7.143  18.745  0.00  0.00    +0.000 N 
ATOM      4  H   UNL     1       3.107   6.838  19.704  0.00  0.00    +0.000 HD
ENDROOT
BRANCH   1   9
ATOM      5  C   UNL     1      -0.896  10.682  22.752  0.00  0.00    +0.000 C 
ATOM      6  C   UNL     1      -0.101  10.122  21.610  0.00  0.00    +0.000 A 
ATOM      7  C   UNL     1       0.240  10.818  20.516  0.00  0.00    +0.000 A 
ATOM      8  C   UNL     1       1.009  10.196  19.455  0.00  0.00    +0.000 A 
ATOM      9  C   UNL     1       1.472   8.934  19.558  0.00  0.00    +0.000 A 
ATOM     10  C   UNL     1       1.117   8.172  20.813  0.00  0.00    +0.000 A 
ATOM     11  O   UNL     1       1.500   7.036  21.069  0.00  0.00    +0.000 OA
ATOM     12  N   UNL     1       0.319   8.826  21.726  0.00  0.00    +0.000 N 
ATOM     13  H   UNL     1       0.076   8.275  22.543  0.00  0.00    +0.000 HD
ENDBRANCH   1   9
BRANCH   3  14
ATOM     14  C   UNL     1       3.724   6.365  17.791  0.00  0.00    +0.000 A 
ATOM     15  C   UNL     1       4.700   6.944  16.965  0.00  0.00    +0.000 A 
ATOM     16  C   UNL     1       5.415   6.214  16.014  0.00  0.00    +0.000 A 
ATOM     17  C   UNL     1       5.132   4.876  15.830  0.00  0.00    +0.000 A 
ATOM     18  C   UNL     1       4.162   4.270  16.623  0.00  0.00    +0.000 A 
ATOM     19  C   UNL     1       3.484   4.978  17.641  0.00  0.00    +0.000 A 
BRANCH  19  20
ATOM     20  O   UNL     1       2.619   4.344  18.524  0.00  0.00    +0.000 OA
BRANCH  20  21
ATOM     21  C   UNL     1       3.298   3.593  19.557  0.00  0.00    +0.000 C 
BRANCH  21  22
ATOM     22  C   UNL     1       2.359   2.693  20.303  0.00  0.00    +0.000 C 
ATOM     23  C   UNL     1       1.984   3.060  21.724  0.00  0.00    +0.000 C 
ATOM     24  C   UNL     1       0.957   3.142  20.632  0.00  0.00    +0.000 C 
ENDBRANCH  21  22
ENDBRANCH  20  21
ENDBRANCH  19  20
ENDBRANCH   3  14
TORSDOF 5
ENDMDL
MODEL 8
REMARK VINA RESULT:      -7.3      2.242      6.330
REMARK  Name = 
REMARK  6 active torsions:
REMARK  status: ('A' for Active; 'I' for Inactive)
REMARK    1  A    between atoms: C_1  and  C_2
REMARK    2  A    between atoms: C_5  and  C_6
REMARK    3  A    between atoms: N_8  and  C_9
REMARK    4  A    between atoms: C_14  and  O_15
REMARK    5  A    between atoms: O_15  and  C_16
REMARK    6  A    between atoms: C_16  and  C_17
REMARK                            x       y       z     vdW  Elec       q    Type
REMARK                         _______ _______ _______ _____ _____    ______ ____
ROOT
ATOM      1  C   UNL     1       2.036   7.059  19.303  0.00  0.00    +0.000 C 
ATOM      2  O   UNL     1       2.105   6.612  20.444  0.00  0.00    +0.000 OA
ATOM      3  N   UNL     1       2.251   6.308  18.148  0.00  0.00    +0.000 N 
ATOM      4  H   UNL     1       2.161   6.732  17.233  0.00  0.00    +0.000 HD
ENDROOT
BRANCH   1   9
ATOM      5  C   UNL     1       1.008  12.776  18.735  0.00  0.00    +0.000 C 
ATOM      6  C   UNL     1       1.223  11.306  18.943  0.00  0.00    +0.000 A 
ATOM      7  C   UNL     1       0.765  10.618  20.000  0.00  0.00    +0.000 A 
ATOM      8  C   UNL     1       1.022   9.196  20.123  0.00  0.00    +0.000 A 
ATOM      9  C   UNL     1       1.656   8.501  19.156  0.00  0.00    +0.000 A 
ATOM     10  C   UNL     1       2.132   9.278  17.951  0.00  0.00    +0.000 A 
ATOM     11  O   UNL     1       2.682   8.779  16.976  0.00  0.00    +0.000 OA
ATOM     12  N   UNL     1       1.905  10.637  17.965  0.00  0.00    +0.000 N 
ATOM     13  H   UNL     1       2.263  11.131  17.154  0.00  0.00    +0.000 HD
ENDBRANCH   1   9
BRANCH   3  14
ATOM     14  C   UNL     1       2.620   4.925  18.120  0.00  0.00    +0.000 A 
ATOM     15  C   UNL     1       1.654   3.909  18.043  0.00  0.00    +0.000 A 
ATOM     16  C   UNL     1       1.983   2.553  18.033  0.00  0.00    +0.000 A 
ATOM     17  C   UNL     1       3.305   2.173  18.151  0.00  0.00    +0.000 A 
ATOM     18  C   UNL     1       4.290   3.152  18.242  0.00  0.00    +0.000 A 
ATOM     19  C   UNL     1       3.978   4.529  18.177  0.00  0.00    +0.000 A 
BRANCH  19  20
ATOM     20  O   UNL     1       4.967   5.503  18.127  0.00  0.00    +0.000 OA
BRANCH  20  21
ATOM     21  C   UNL     1       6.093   5.139  17.295  0.00  0.00    +0.000 C 
BRANCH  21  22
ATOM     22  C   UNL     1       5.836   5.430  15.847  0.00  0.00    +0.000 C 
ATOM     23  C   UNL     1       6.853   4.963  14.826  0.00  0.00    +0.000 C 
ATOM     24  C   UNL     1       5.498   4.319  14.884  0.00  0.00    +0.000 C 
ENDBRANCH  21  22
ENDBRANCH  20  21
ENDBRANCH  19  20
ENDBRANCH   3  14
TORSDOF 5
ENDMDL
MODEL 9
REMARK VINA RESULT:      -7.3      2.979      7.335
REMARK  Name = 
REMARK  6 active torsions:
REMARK  status: ('A' for Active; 'I' for Inactive)
REMARK    1  A    between atoms: C_1  and  C_2
REMARK    2  A    between atoms: C_5  and  C_6
REMARK    3  A    between atoms: N_8  and  C_9
REMARK    4  A    between atoms: C_14  and  O_15
REMARK    5  A    between atoms: O_15  and  C_16
REMARK    6  A    between atoms: C_16  and  C_17
REMARK                            x       y       z     vdW  Elec       q    Type
REMARK                         _______ _______ _______ _____ _____    ______ ____
ROOT
ATOM      1  C   UNL     1       2.099   7.860  18.861  0.00  0.00    +0.000 C 
ATOM      2  O   UNL     1       2.170   8.281  17.710  0.00  0.00    +0.000 OA
ATOM      3  N   UNL     1       2.734   6.708  19.320  0.00  0.00    +0.000 N 
ATOM      4  H   UNL     1       2.651   6.423  20.288  0.00  0.00    +0.000 HD
ENDROOT
BRANCH   1   9
ATOM      5  C   UNL     1      -0.653  11.334  22.659  0.00  0.00    +0.000 C 
ATOM      6  C   UNL     1       0.043  10.381  21.733  0.00  0.00    +0.000 A 
ATOM      7  C   UNL     1       0.367   9.119  22.053  0.00  0.00    +0.000 A 
ATOM      8  C   UNL     1       1.044   8.266  21.096  0.00  0.00    +0.000 A 
ATOM      9  C   UNL     1       1.303   8.674  19.837  0.00  0.00    +0.000 A 
ATOM     10  C   UNL     1       0.898  10.083  19.474  0.00  0.00    +0.000 A 
ATOM     11  O   UNL     1       1.027  10.579  18.361  0.00  0.00    +0.000 OA
ATOM     12  N   UNL     1       0.330  10.838  20.477  0.00  0.00    +0.000 N 
ATOM     13  H   UNL     1       0.096  11.788  20.207  0.00  0.00    +0.000 HD
ENDBRANCH   1   9
BRANCH   3  14
ATOM     14  C   UNL     1       3.527   5.827  18.516  0.00  0.00    +0.000 A 
ATOM     15  C   UNL     1       4.903   6.034  18.339  0.00  0.00    +0.000 A 
ATOM     16  C   UNL     1       5.697   5.203  17.547  0.00  0.00    +0.000 A 
ATOM     17  C   UNL     1       5.113   4.156  16.862  0.00  0.00    +0.000 A 
ATOM     18  C   UNL     1       3.747   3.927  17.003  0.00  0.00    +0.000 A 
ATOM     19  C   UNL     1       2.946   4.714  17.862  0.00  0.00    +0.000 A 
BRANCH  19  20
ATOM     20  O   UNL     1       1.616   4.402  18.112  0.00  0.00    +0.000 OA
BRANCH  20  21
ATOM     21  C   UNL     1       1.444   3.240  18.956  0.00  0.00    +0.000 C 
BRANCH  21  22
ATOM     22  C   UNL     1       1.075   3.617  20.359  0.00  0.00    +0.000 C 
ATOM     23  C   UNL     1       1.376   2.635  21.473  0.00  0.00    +0.000 C 
ATOM     24  C   UNL     1       2.140   3.924  21.383  0.00  0.00    +0.000 C 
ENDBRANCH  21  22
ENDBRANCH  20  21
ENDBRANCH  19  20
ENDBRANCH   3  14
TORSDOF 5
ENDMDL
