MODEL 1
REMARK VINA RESULT:      -8.0      0.000      0.000
REMARK  Name = 
REMARK  4 active torsions:
REMARK  status: ('A' for Active; 'I' for Inactive)
REMARK    1  A    between atoms: S_2  and  N_4
REMARK    2  A    between atoms: S_2  and  C_17
REMARK    3  A    between atoms: N_4  and  C_5
REMARK    4  A    between atoms: C_8  and  N_9
REMARK                            x       y       z     vdW  Elec       q    Type
REMARK                         _______ _______ _______ _____ _____    ______ ____
ROOT
ATOM      1  N   UNL     1       3.126   4.624  18.903  0.00  0.00    +0.000 N 
ATOM      2  H   UNL     1       2.537   3.857  19.230  0.00  0.00    +0.000 HD
ENDROOT
BRANCH   1   3
ATOM      3  C   UNL     1       2.677   5.950  19.146  0.00  0.00    +0.000 A 
ATOM      4  C   UNL     1       2.050   6.251  20.345  0.00  0.00    +0.000 A 
ATOM      5  C   UNL     1       1.522   7.531  20.556  0.00  0.00    +0.000 A 
ATOM      6  C   UNL     1       1.581   8.535  19.575  0.00  0.00    +0.000 A 
ATOM      7  C   UNL     1       2.239   8.194  18.381  0.00  0.00    +0.000 A 
ATOM      8  C   UNL     1       2.789   6.925  18.165  0.00  0.00    +0.000 A 
BRANCH   6   9
ATOM      9  N   UNL     1       0.949   9.753  19.751  0.00  0.00    +0.000 N 
ATOM     10  C   UNL     1       0.773  10.339  21.096  0.00  0.00    +0.000 C 
ATOM     11  C   UNL     1      -0.540  11.140  21.125  0.00  0.00    +0.000 C 
ATOM     12  O   UNL     1      -0.547  12.167  20.118  0.00  0.00    +0.000 OA
ATOM     13  C   UNL     1      -0.406  11.580  18.815  0.00  0.00    +0.000 C 
ATOM     14  C   UNL     1       0.897  10.772  18.685  0.00  0.00    +0.000 C 
ENDBRANCH   6   9
ENDBRANCH   1   3
BRANCH   1  16
ATOM     15  O   UNL     1       5.317   5.329  19.954  0.00  0.00    +0.000 OA
ATOM     16  S   UNL     1       4.777   4.292  19.098  0.00  0.00    +0.000 S 
ATOM     17  O   UNL     1       4.910   2.901  19.470  0.00  0.00    +0.000 OA
BRANCH  16  18
ATOM     18  C   UNL     1       5.470   4.561  17.487  0.00  0.00    +0.000 A 
ATOM     19  C   UNL     1       4.780   4.102  16.361  0.00  0.00    +0.000 A 
ATOM     20  F   UNL     1       3.582   3.515  16.457  0.00  0.00    +0.000 F 
ATOM     21  C   UNL     1       5.318   4.237  15.084  0.00  0.00    +0.000 A 
ATOM     22  C   UNL     1       6.560   4.831  14.928  0.00  0.00    +0.000 A 
ATOM     23  F   UNL     1       7.085   4.956  13.702  0.00  0.00    +0.000 F 
ATOM     24  C   UNL     1       7.267   5.296  16.026  0.00  0.00    +0.000 A 
ATOM     25  C   UNL     1       6.727   5.163  17.313  0.00  0.00    +0.000 A 
ATOM     26 BR   UNL     1       7.782   5.895  18.718  0.00  0.00    +0.000 Br
ENDBRANCH  16  18
ENDBRANCH   1  16
TORSDOF 4
ENDMDL
MODEL 2
REMARK VINA RESULT:      -8.0      0.340      1.017
REMARK  Name = 
REMARK  4 active torsions:
REMARK  status: ('A' for Active; 'I' for Inactive)
REMARK    1  A    between atoms: S_2  and  N_4
REMARK    2  A    between atoms: S_2  and  C_17
REMARK    3  A    between atoms: N_4  and  C_5
REMARK    4  A    between atoms: C_8  and  N_9
REMARK                            x       y       z     vdW  Elec       q    Type
REMARK                         _______ _______ _______ _____ _____    ______ ____
ROOT
ATOM      1  N   UNL     1       3.148   4.604  18.918  0.00  0.00    +0.000 N 
ATOM      2  H   UNL     1       2.571   3.835  19.260  0.00  0.00    +0.000 HD
ENDROOT
BRANCH   1   3
ATOM      3  C   UNL     1       2.688   5.928  19.153  0.00  0.00    +0.000 A 
ATOM      4  C   UNL     1       2.068   6.234  20.354  0.00  0.00    +0.000 A 
ATOM      5  C   UNL     1       1.529   7.510  20.557  0.00  0.00    +0.000 A 
ATOM      6  C   UNL     1       1.571   8.506  19.566  0.00  0.00    +0.000 A 
ATOM      7  C   UNL     1       2.223   8.160  18.371  0.00  0.00    +0.000 A 
ATOM      8  C   UNL     1       2.783   6.895  18.161  0.00  0.00    +0.000 A 
BRANCH   6   9
ATOM      9  N   UNL     1       0.928   9.720  19.735  0.00  0.00    +0.000 N 
ATOM     10  C   UNL     1       0.521  10.539  18.576  0.00  0.00    +0.000 C 
ATOM     11  C   UNL     1       0.612  12.027  18.958  0.00  0.00    +0.000 C 
ATOM     12  O   UNL     1      -0.207  12.322  20.103  0.00  0.00    +0.000 OA
ATOM     13  C   UNL     1       0.219  11.540  21.230  0.00  0.00    +0.000 C 
ATOM     14  C   UNL     1       0.142  10.030  20.944  0.00  0.00    +0.000 C 
ENDBRANCH   6   9
ENDBRANCH   1   3
BRANCH   1  16
ATOM     15  O   UNL     1       5.340   5.332  19.952  0.00  0.00    +0.000 OA
ATOM     16  S   UNL     1       4.805   4.290  19.098  0.00  0.00    +0.000 S 
ATOM     17  O   UNL     1       4.957   2.901  19.466  0.00  0.00    +0.000 OA
BRANCH  16  18
ATOM     18  C   UNL     1       5.481   4.571  17.482  0.00  0.00    +0.000 A 
ATOM     19  C   UNL     1       4.785   4.106  16.362  0.00  0.00    +0.000 A 
ATOM     20  F   UNL     1       3.596   3.505  16.466  0.00  0.00    +0.000 F 
ATOM     21  C   UNL     1       5.311   4.250  15.080  0.00  0.00    +0.000 A 
ATOM     22  C   UNL     1       6.545   4.859  14.914  0.00  0.00    +0.000 A 
ATOM     23  F   UNL     1       7.058   4.992  13.683  0.00  0.00    +0.000 F 
ATOM     24  C   UNL     1       7.256   5.330  16.007  0.00  0.00    +0.000 A 
ATOM     25  C   UNL     1       6.729   5.188  17.298  0.00  0.00    +0.000 A 
ATOM     26 BR   UNL     1       7.787   5.930  18.695  0.00  0.00    +0.000 Br
ENDBRANCH  16  18
ENDBRANCH   1  16
TORSDOF 4
ENDMDL
MODEL 3
REMARK VINA RESULT:      -8.0      0.884      1.397
REMARK  Name = 
REMARK  4 active torsions:
REMARK  status: ('A' for Active; 'I' for Inactive)
REMARK    1  A    between atoms: S_2  and  N_4
REMARK    2  A    between atoms: S_2  and  C_17
REMARK    3  A    between atoms: N_4  and  C_5
REMARK    4  A    between atoms: C_8  and  N_9
REMARK                            x       y       z     vdW  Elec       q    Type
REMARK                         _______ _______ _______ _____ _____    ______ ____
ROOT
ATOM      1  N   UNL     1       3.095   4.688  18.639  0.00  0.00    +0.000 N 
ATOM      2  H   UNL     1       2.585   3.805  18.616  0.00  0.00    +0.000 HD
ENDROOT
BRANCH   1   3
ATOM      3  C   UNL     1       2.444   5.810  19.220  0.00  0.00    +0.000 A 
ATOM      4  C   UNL     1       2.487   7.036  18.575  0.00  0.00    +0.000 A 
ATOM      5  C   UNL     1       1.929   8.166  19.185  0.00  0.00    +0.000 A 
ATOM      6  C   UNL     1       1.337   8.114  20.458  0.00  0.00    +0.000 A 
ATOM      7  C   UNL     1       1.300   6.850  21.070  0.00  0.00    +0.000 A 
ATOM      8  C   UNL     1       1.836   5.708  20.464  0.00  0.00    +0.000 A 
BRANCH   6   9
ATOM      9  N   UNL     1       0.901   9.260  21.099  0.00  0.00    +0.000 N 
ATOM     10  C   UNL     1       0.746   9.306  22.567  0.00  0.00    +0.000 C 
ATOM     11  C   UNL     1      -0.420  10.246  22.918  0.00  0.00    +0.000 C 
ATOM     12  O   UNL     1      -0.205  11.565  22.388  0.00  0.00    +0.000 OA
ATOM     13  C   UNL     1      -0.086  11.509  20.957  0.00  0.00    +0.000 C 
ATOM     14  C   UNL     1       1.074  10.602  20.512  0.00  0.00    +0.000 C 
ENDBRANCH   6   9
ENDBRANCH   1   3
BRANCH   1  16
ATOM     15  O   UNL     1       5.167   5.588  19.778  0.00  0.00    +0.000 OA
ATOM     16  S   UNL     1       4.745   4.469  18.960  0.00  0.00    +0.000 S 
ATOM     17  O   UNL     1       4.931   3.115  19.431  0.00  0.00    +0.000 OA
BRANCH  16  18
ATOM     18  C   UNL     1       5.529   4.678  17.382  0.00  0.00    +0.000 A 
ATOM     19  C   UNL     1       4.905   4.172  16.238  0.00  0.00    +0.000 A 
ATOM     20  F   UNL     1       3.706   3.583  16.288  0.00  0.00    +0.000 F 
ATOM     21  C   UNL     1       5.516   4.259  14.989  0.00  0.00    +0.000 A 
ATOM     22  C   UNL     1       6.764   4.852  14.881  0.00  0.00    +0.000 A 
ATOM     23  F   UNL     1       7.358   4.931  13.683  0.00  0.00    +0.000 F 
ATOM     24  C   UNL     1       7.406   5.363  15.998  0.00  0.00    +0.000 A 
ATOM     25  C   UNL     1       6.793   5.278  17.257  0.00  0.00    +0.000 A 
ATOM     26 BR   UNL     1       7.763   6.070  18.689  0.00  0.00    +0.000 Br
ENDBRANCH  16  18
ENDBRANCH   1  16
TORSDOF 4
ENDMDL
MODEL 4
REMARK VINA RESULT:      -7.9      0.601      1.474
REMARK  Name = 
REMARK  4 active torsions:
REMARK  status: ('A' for Active; 'I' for Inactive)
REMARK    1  A    between atoms: S_2  and  N_4
REMARK    2  A    between atoms: S_2  and  C_17
REMARK    3  A    between atoms: N_4  and  C_5
REMARK    4  A    between atoms: C_8  and  N_9
REMARK                            x       y       z     vdW  Elec       q    Type
REMARK                         _______ _______ _______ _____ _____    ______ ____
ROOT
ATOM      1  N   UNL     1       3.158   4.514  18.867  0.00  0.00    +0.000 N 
ATOM      2  H   UNL     1       2.635   3.720  19.238  0.00  0.00    +0.000 HD
ENDROOT
BRANCH   1   3
ATOM      3  C   UNL     1       2.586   5.807  19.014  0.00  0.00    +0.000 A 
ATOM      4  C   UNL     1       2.650   6.706  17.962  0.00  0.00    +0.000 A 
ATOM      5  C   UNL     1       2.173   8.013  18.129  0.00  0.00    +0.000 A 
ATOM      6  C   UNL     1       1.644   8.465  19.350  0.00  0.00    +0.000 A 
ATOM      7  C   UNL     1       1.582   7.517  20.385  0.00  0.00    +0.000 A 
ATOM      8  C   UNL     1       2.037   6.203  20.226  0.00  0.00    +0.000 A 
BRANCH   6   9
ATOM      9  N   UNL     1       1.291   9.790  19.536  0.00  0.00    +0.000 N 
ATOM     10  C   UNL     1       1.345  10.761  18.424  0.00  0.00    +0.000 C 
ATOM     11  C   UNL     1       1.708  12.146  18.987  0.00  0.00    +0.000 C 
ATOM     12  O   UNL     1       0.763  12.568  19.986  0.00  0.00    +0.000 OA
ATOM     13  C   UNL     1       0.743  11.630  21.074  0.00  0.00    +0.000 C 
ATOM     14  C   UNL     1       0.368  10.213  20.605  0.00  0.00    +0.000 C 
ENDBRANCH   6   9
ENDBRANCH   1   3
BRANCH   1  16
ATOM     15  O   UNL     1       5.255   5.481  19.901  0.00  0.00    +0.000 OA
ATOM     16  S   UNL     1       4.829   4.349  19.103  0.00  0.00    +0.000 S 
ATOM     17  O   UNL     1       5.082   3.001  19.561  0.00  0.00    +0.000 OA
BRANCH  16  18
ATOM     18  C   UNL     1       5.524   4.584  17.488  0.00  0.00    +0.000 A 
ATOM     19  C   UNL     1       4.834   4.101  16.371  0.00  0.00    +0.000 A 
ATOM     20  F   UNL     1       3.637   3.516  16.478  0.00  0.00    +0.000 F 
ATOM     21  C   UNL     1       5.374   4.209  15.092  0.00  0.00    +0.000 A 
ATOM     22  C   UNL     1       6.616   4.800  14.924  0.00  0.00    +0.000 A 
ATOM     23  F   UNL     1       7.143   4.899  13.696  0.00  0.00    +0.000 F 
ATOM     24  C   UNL     1       7.322   5.288  16.013  0.00  0.00    +0.000 A 
ATOM     25  C   UNL     1       6.781   5.183  17.302  0.00  0.00    +0.000 A 
ATOM     26 BR   UNL     1       7.833   5.945  18.692  0.00  0.00    +0.000 Br
ENDBRANCH  16  18
ENDBRANCH   1  16
TORSDOF 4
ENDMDL
MODEL 5
REMARK VINA RESULT:      -7.5      1.553      2.052
REMARK  Name = 
REMARK  4 active torsions:
REMARK  status: ('A' for Active; 'I' for Inactive)
REMARK    1  A    between atoms: S_2  and  N_4
REMARK    2  A    between atoms: S_2  and  C_17
REMARK    3  A    between atoms: N_4  and  C_5
REMARK    4  A    between atoms: C_8  and  N_9
REMARK                            x       y       z     vdW  Elec       q    Type
REMARK                         _______ _______ _______ _____ _____    ______ ____
ROOT
ATOM      1  N   UNL     1       3.365   4.618  19.052  0.00  0.00    +0.000 N 
ATOM      2  H   UNL     1       2.840   3.848  19.468  0.00  0.00    +0.000 HD
ENDROOT
BRANCH   1   3
ATOM      3  C   UNL     1       2.862   5.934  19.235  0.00  0.00    +0.000 A 
ATOM      4  C   UNL     1       2.208   6.259  20.413  0.00  0.00    +0.000 A 
ATOM      5  C   UNL     1       1.628   7.524  20.565  0.00  0.00    +0.000 A 
ATOM      6  C   UNL     1       1.661   8.489  19.544  0.00  0.00    +0.000 A 
ATOM      7  C   UNL     1       2.347   8.126  18.373  0.00  0.00    +0.000 A 
ATOM      8  C   UNL     1       2.949   6.872  18.216  0.00  0.00    +0.000 A 
BRANCH   6   9
ATOM      9  N   UNL     1       0.979   9.688  19.662  0.00  0.00    +0.000 N 
ATOM     10  C   UNL     1       1.058  10.721  18.609  0.00  0.00    +0.000 C 
ATOM     11  C   UNL     1       0.956  12.110  19.263  0.00  0.00    +0.000 C 
ATOM     12  O   UNL     1      -0.262  12.243  20.017  0.00  0.00    +0.000 OA
ATOM     13  C   UNL     1      -0.312  11.251  21.054  0.00  0.00    +0.000 C 
ATOM     14  C   UNL     1      -0.235   9.822  20.489  0.00  0.00    +0.000 C 
ENDBRANCH   6   9
ENDBRANCH   1   3
BRANCH   1  16
ATOM     15  O   UNL     1       5.595   5.572  19.773  0.00  0.00    +0.000 OA
ATOM     16  S   UNL     1       5.041   4.382  19.159  0.00  0.00    +0.000 S 
ATOM     17  O   UNL     1       5.271   3.085  19.753  0.00  0.00    +0.000 OA
BRANCH  16  18
ATOM     18  C   UNL     1       5.591   4.387  17.472  0.00  0.00    +0.000 A 
ATOM     19  C   UNL     1       6.855   4.904  17.168  0.00  0.00    +0.000 A 
ATOM     20  F   UNL     1       7.686   5.345  18.118  0.00  0.00    +0.000 F 
ATOM     21  C   UNL     1       7.299   4.984  15.851  0.00  0.00    +0.000 A 
ATOM     22  C   UNL     1       6.475   4.548  14.826  0.00  0.00    +0.000 A 
ATOM     23  F   UNL     1       6.896   4.631  13.556  0.00  0.00    +0.000 F 
ATOM     24  C   UNL     1       5.218   4.030  15.098  0.00  0.00    +0.000 A 
ATOM     25  C   UNL     1       4.768   3.947  16.423  0.00  0.00    +0.000 A 
ATOM     26 BR   UNL     1       3.048   3.164  16.651  0.00  0.00    +0.000 Br
ENDBRANCH  16  18
ENDBRANCH   1  16
TORSDOF 4
ENDMDL
MODEL 6
REMARK VINA RESULT:      -7.3      1.039      1.507
REMARK  Name = 
REMARK  4 active torsions:
REMARK  status: ('A' for Active; 'I' for Inactive)
REMARK    1  A    between atoms: S_2  and  N_4
REMARK    2  A    between atoms: S_2  and  C_17
REMARK    3  A    between atoms: N_4  and  C_5
REMARK    4  A    between atoms: C_8  and  N_9
REMARK                            x       y       z     vdW  Elec       q    Type
REMARK                         _______ _______ _______ _____ _____    ______ ____
ROOT
ATOM      1  N   UNL     1       3.100   5.346  18.270  0.00  0.00    +0.000 N 
ATOM      2  H   UNL     1       2.498   4.555  18.042  0.00  0.00    +0.000 HD
ENDROOT
BRANCH   1   3
ATOM      3  C   UNL     1       2.530   6.416  19.011  0.00  0.00    +0.000 A 
ATOM      4  C   UNL     1       2.075   6.189  20.300  0.00  0.00    +0.000 A 
ATOM      5  C   UNL     1       1.427   7.213  21.003  0.00  0.00    +0.000 A 
ATOM      6  C   UNL     1       1.194   8.477  20.437  0.00  0.00    +0.000 A 
ATOM      7  C   UNL     1       1.686   8.671  19.136  0.00  0.00    +0.000 A 
ATOM      8  C   UNL     1       2.352   7.664  18.428  0.00  0.00    +0.000 A 
BRANCH   6   9
ATOM      9  N   UNL     1       0.447   9.437  21.098  0.00  0.00    +0.000 N 
ATOM     10  C   UNL     1       0.140  10.737  20.467  0.00  0.00    +0.000 C 
ATOM     11  C   UNL     1       0.069  11.818  21.559  0.00  0.00    +0.000 C 
ATOM     12  O   UNL     1      -0.915  11.490  22.555  0.00  0.00    +0.000 OA
ATOM     13  C   UNL     1      -0.587  10.239  23.180  0.00  0.00    +0.000 C 
ATOM     14  C   UNL     1      -0.514   9.089  22.161  0.00  0.00    +0.000 C 
ENDBRANCH   6   9
ENDBRANCH   1   3
BRANCH   1  16
ATOM     15  O   UNL     1       5.261   5.921  19.454  0.00  0.00    +0.000 OA
ATOM     16  S   UNL     1       4.679   4.862  18.654  0.00  0.00    +0.000 S 
ATOM     17  O   UNL     1       4.617   3.513  19.170  0.00  0.00    +0.000 OA
BRANCH  16  18
ATOM     18  C   UNL     1       5.533   4.882  17.100  0.00  0.00    +0.000 A 
ATOM     19  C   UNL     1       4.984   4.198  16.010  0.00  0.00    +0.000 A 
ATOM     20  F   UNL     1       3.803   3.575  16.088  0.00  0.00    +0.000 F 
ATOM     21  C   UNL     1       5.652   4.136  14.790  0.00  0.00    +0.000 A 
ATOM     22  C   UNL     1       6.884   4.757  14.656  0.00  0.00    +0.000 A 
ATOM     23  F   UNL     1       7.534   4.693  13.486  0.00  0.00    +0.000 F 
ATOM     24  C   UNL     1       7.453   5.443  15.718  0.00  0.00    +0.000 A 
ATOM     25  C   UNL     1       6.781   5.508  16.948  0.00  0.00    +0.000 A 
ATOM     26 BR   UNL     1       7.652   6.528  18.298  0.00  0.00    +0.000 Br
ENDBRANCH  16  18
ENDBRANCH   1  16
TORSDOF 4
ENDMDL
MODEL 7
REMARK VINA RESULT:      -7.3      1.195      1.677
REMARK  Name = 
REMARK  4 active torsions:
REMARK  status: ('A' for Active; 'I' for Inactive)
REMARK    1  A    between atoms: S_2  and  N_4
REMARK    2  A    between atoms: S_2  and  C_17
REMARK    3  A    between atoms: N_4  and  C_5
REMARK    4  A    between atoms: C_8  and  N_9
REMARK                            x       y       z     vdW  Elec       q    Type
REMARK                         _______ _______ _______ _____ _____    ______ ____
ROOT
ATOM      1  N   UNL     1       4.006   5.566  19.828  0.00  0.00    +0.000 N 
ATOM      2  H   UNL     1       4.959   5.819  20.090  0.00  0.00    +0.000 HD
ENDROOT
BRANCH   1   3
ATOM      3  C   UNL     1       3.114   6.619  19.488  0.00  0.00    +0.000 A 
ATOM      4  C   UNL     1       3.245   7.259  18.266  0.00  0.00    +0.000 A 
ATOM      5  C   UNL     1       2.432   8.358  17.961  0.00  0.00    +0.000 A 
ATOM      6  C   UNL     1       1.487   8.863  18.870  0.00  0.00    +0.000 A 
ATOM      7  C   UNL     1       1.374   8.176  20.090  0.00  0.00    +0.000 A 
ATOM      8  C   UNL     1       2.167   7.064  20.400  0.00  0.00    +0.000 A 
BRANCH   6   9
ATOM      9  N   UNL     1       0.778  10.022  18.604  0.00  0.00    +0.000 N 
ATOM     10  C   UNL     1       1.462  11.323  18.464  0.00  0.00    +0.000 C 
ATOM     11  C   UNL     1       0.532  12.435  18.977  0.00  0.00    +0.000 C 
ATOM     12  O   UNL     1      -0.719  12.439  18.267  0.00  0.00    +0.000 OA
ATOM     13  C   UNL     1      -1.386  11.178  18.438  0.00  0.00    +0.000 C 
ATOM     14  C   UNL     1      -0.533  10.002  17.930  0.00  0.00    +0.000 C 
ENDBRANCH   6   9
ENDBRANCH   1   3
BRANCH   1  16
ATOM     15  O   UNL     1       4.584   3.106  19.693  0.00  0.00    +0.000 OA
ATOM     16  S   UNL     1       3.950   4.144  18.905  0.00  0.00    +0.000 S 
ATOM     17  O   UNL     1       2.594   3.972  18.435  0.00  0.00    +0.000 OA
BRANCH  16  18
ATOM     18  C   UNL     1       5.033   4.467  17.538  0.00  0.00    +0.000 A 
ATOM     19  C   UNL     1       4.607   4.158  16.242  0.00  0.00    +0.000 A 
ATOM     20  F   UNL     1       3.384   3.677  15.995  0.00  0.00    +0.000 F 
ATOM     21  C   UNL     1       5.449   4.337  15.148  0.00  0.00    +0.000 A 
ATOM     22  C   UNL     1       6.731   4.825  15.347  0.00  0.00    +0.000 A 
ATOM     23  F   UNL     1       7.547   4.991  14.297  0.00  0.00    +0.000 F 
ATOM     24  C   UNL     1       7.180   5.141  16.620  0.00  0.00    +0.000 A 
ATOM     25  C   UNL     1       6.334   4.963  17.724  0.00  0.00    +0.000 A 
ATOM     26 BR   UNL     1       7.062   5.490  19.401  0.00  0.00    +0.000 Br
ENDBRANCH  16  18
ENDBRANCH   1  16
TORSDOF 4
ENDMDL
MODEL 8
REMARK VINA RESULT:      -7.2      1.617      2.319
REMARK  Name = 
REMARK  4 active torsions:
REMARK  status: ('A' for Active; 'I' for Inactive)
REMARK    1  A    between atoms: S_2  and  N_4
REMARK    2  A    between atoms: S_2  and  C_17
REMARK    3  A    between atoms: N_4  and  C_5
REMARK    4  A    between atoms: C_8  and  N_9
REMARK                            x       y       z     vdW  Elec       q    Type
REMARK                         _______ _______ _______ _____ _____    ______ ____
ROOT
ATOM      1  N   UNL     1       3.313   4.550  19.014  0.00  0.00    +0.000 N 
ATOM      2  H   UNL     1       2.842   3.769  19.471  0.00  0.00    +0.000 HD
ENDROOT
BRANCH   1   3
ATOM      3  C   UNL     1       2.710   5.834  19.114  0.00  0.00    +0.000 A 
ATOM      4  C   UNL     1       2.757   6.697  18.031  0.00  0.00    +0.000 A 
ATOM      5  C   UNL     1       2.249   7.997  18.151  0.00  0.00    +0.000 A 
ATOM      6  C   UNL     1       1.704   8.479  19.354  0.00  0.00    +0.000 A 
ATOM      7  C   UNL     1       1.660   7.566  20.421  0.00  0.00    +0.000 A 
ATOM      8  C   UNL     1       2.147   6.258  20.309  0.00  0.00    +0.000 A 
BRANCH   6   9
ATOM      9  N   UNL     1       1.318   9.800  19.493  0.00  0.00    +0.000 N 
ATOM     10  C   UNL     1       1.508  10.773  18.397  0.00  0.00    +0.000 C 
ATOM     11  C   UNL     1       1.783  12.160  19.003  0.00  0.00    +0.000 C 
ATOM     12  O   UNL     1       0.713  12.573  19.870  0.00  0.00    +0.000 OA
ATOM     13  C   UNL     1       0.560  11.634  20.946  0.00  0.00    +0.000 C 
ATOM     14  C   UNL     1       0.261  10.214  20.433  0.00  0.00    +0.000 C 
ENDBRANCH   6   9
ENDBRANCH   1   3
BRANCH   1  16
ATOM     15  O   UNL     1       5.450   5.688  19.750  0.00  0.00    +0.000 OA
ATOM     16  S   UNL     1       5.000   4.449  19.147  0.00  0.00    +0.000 S 
ATOM     17  O   UNL     1       5.322   3.182  19.766  0.00  0.00    +0.000 OA
BRANCH  16  18
ATOM     18  C   UNL     1       5.574   4.471  17.469  0.00  0.00    +0.000 A 
ATOM     19  C   UNL     1       6.798   5.080  17.174  0.00  0.00    +0.000 A 
ATOM     20  F   UNL     1       7.579   5.597  18.129  0.00  0.00    +0.000 F 
ATOM     21  C   UNL     1       7.255   5.175  15.862  0.00  0.00    +0.000 A 
ATOM     22  C   UNL     1       6.481   4.663  14.833  0.00  0.00    +0.000 A 
ATOM     23  F   UNL     1       6.914   4.759  13.568  0.00  0.00    +0.000 F 
ATOM     24  C   UNL     1       5.264   4.054  15.095  0.00  0.00    +0.000 A 
ATOM     25  C   UNL     1       4.802   3.955  16.415  0.00  0.00    +0.000 A 
ATOM     26 BR   UNL     1       3.144   3.046  16.631  0.00  0.00    +0.000 Br
ENDBRANCH  16  18
ENDBRANCH   1  16
TORSDOF 4
ENDMDL
MODEL 9
REMARK VINA RESULT:      -7.2      2.170      2.876
REMARK  Name = 
REMARK  4 active torsions:
REMARK  status: ('A' for Active; 'I' for Inactive)
REMARK    1  A    between atoms: S_2  and  N_4
REMARK    2  A    between atoms: S_2  and  C_17
REMARK    3  A    between atoms: N_4  and  C_5
REMARK    4  A    between atoms: C_8  and  N_9
REMARK                            x       y       z     vdW  Elec       q    Type
REMARK                         _______ _______ _______ _____ _____    ______ ____
ROOT
ATOM      1  N   UNL     1       3.135   7.426  18.016  0.00  0.00    +0.000 N 
ATOM      2  H   UNL     1       3.349   7.633  17.040  0.00  0.00    +0.000 HD
ENDROOT
BRANCH   1   3
ATOM      3  C   UNL     1       2.142   8.217  18.655  0.00  0.00    +0.000 A 
ATOM      4  C   UNL     1       1.481   9.199  17.934  0.00  0.00    +0.000 A 
ATOM      5  C   UNL     1       0.569  10.044  18.579  0.00  0.00    +0.000 A 
ATOM      6  C   UNL     1       0.308   9.951  19.956  0.00  0.00    +0.000 A 
ATOM      7  C   UNL     1       0.986   8.933  20.646  0.00  0.00    +0.000 A 
ATOM      8  C   UNL     1       1.885   8.068  20.011  0.00  0.00    +0.000 A 
BRANCH   6   9
ATOM      9  N   UNL     1      -0.502  10.870  20.601  0.00  0.00    +0.000 N 
ATOM     10  C   UNL     1      -1.561  11.600  19.874  0.00  0.00    +0.000 C 
ATOM     11  C   UNL     1      -1.718  13.000  20.493  0.00  0.00    +0.000 C 
ATOM     12  O   UNL     1      -2.026  12.920  21.895  0.00  0.00    +0.000 OA
ATOM     13  C   UNL     1      -0.974  12.234  22.592  0.00  0.00    +0.000 C 
ATOM     14  C   UNL     1      -0.758  10.809  22.052  0.00  0.00    +0.000 C 
ENDBRANCH   6   9
ENDBRANCH   1   3
BRANCH   1  16
ATOM     15  O   UNL     1       3.804   5.592  19.625  0.00  0.00    +0.000 OA
ATOM     16  S   UNL     1       3.160   5.762  18.338  0.00  0.00    +0.000 S 
ATOM     17  O   UNL     1       1.827   5.247  18.121  0.00  0.00    +0.000 OA
BRANCH  16  18
ATOM     18  C   UNL     1       4.274   5.098  17.128  0.00  0.00    +0.000 A 
ATOM     19  C   UNL     1       4.976   5.974  16.294  0.00  0.00    +0.000 A 
ATOM     20  F   UNL     1       4.875   7.302  16.417  0.00  0.00    +0.000 F 
ATOM     21  C   UNL     1       5.812   5.494  15.290  0.00  0.00    +0.000 A 
ATOM     22  C   UNL     1       5.947   4.126  15.112  0.00  0.00    +0.000 A 
ATOM     23  F   UNL     1       6.745   3.660  14.141  0.00  0.00    +0.000 F 
ATOM     24  C   UNL     1       5.265   3.234  15.925  0.00  0.00    +0.000 A 
ATOM     25  C   UNL     1       4.423   3.715  16.938  0.00  0.00    +0.000 A 
ATOM     26 BR   UNL     1       3.595   2.378  18.011  0.00  0.00    +0.000 Br
ENDBRANCH  16  18
ENDBRANCH   1  16
TORSDOF 4
ENDMDL
