MODEL 1
REMARK VINA RESULT:      -7.9      0.000      0.000
REMARK  Name = 
REMARK  4 active torsions:
REMARK  status: ('A' for Active; 'I' for Inactive)
REMARK    1  A    between atoms: C_1  and  C_2
REMARK    2  A    between atoms: C_5  and  C_6
REMARK    3  A    between atoms: C_6  and  C_7
REMARK    4  A    between atoms: C_14  and  N_15
REMARK                            x       y       z     vdW  Elec       q    Type
REMARK                         _______ _______ _______ _____ _____    ______ ____
ROOT
ATOM      1  C   UNL     1       1.049   3.939  20.662  0.00  0.00    +0.000 C 
ATOM      2  C   UNL     1       2.383   4.175  20.012  0.00  0.00    +0.000 A 
ATOM      3  C   UNL     1       3.060   3.057  19.489  0.00  0.00    +0.000 A 
ATOM      4  C   UNL     1       4.317   3.180  18.897  0.00  0.00    +0.000 A 
ATOM      5  C   UNL     1       4.937   4.425  18.836  0.00  0.00    +0.000 A 
ATOM      6  C   UNL     1       4.259   5.546  19.344  0.00  0.00    +0.000 A 
ATOM      7  C   UNL     1       2.984   5.451  19.921  0.00  0.00    +0.000 A 
ENDROOT
BRANCH   7   8
ATOM      8  N   UNL     1       2.314   6.593  20.429  0.00  0.00    +0.000 N 
ATOM      9  C   UNL     1       1.885   7.693  19.705  0.00  0.00    +0.000 C 
ATOM     10  O   UNL     1       1.923   7.787  18.480  0.00  0.00    +0.000 OA
ATOM     11  N   UNL     1       1.392   8.742  20.455  0.00  0.00    +0.000 N 
ATOM     12  C   UNL     1       1.209   8.858  21.887  0.00  0.00    +0.000 C 
ATOM     13  C   UNL     1       0.210   9.996  22.031  0.00  0.00    +0.000 C 
ATOM     14  C   UNL     1       0.564  10.930  20.880  0.00  0.00    +0.000 C 
ATOM     15  C   UNL     1       1.098  10.004  19.795  0.00  0.00    +0.000 C 
ATOM     16  H   UNL     1       2.037   6.562  21.396  0.00  0.00    +0.000 HD
ENDBRANCH   7   8
BRANCH   5  17
ATOM     17  C   UNL     1       6.308   4.580  18.217  0.00  0.00    +0.000 C 
BRANCH  17  18
ATOM     18  C   UNL     1       6.312   4.563  16.706  0.00  0.00    +0.000 A 
ATOM     19  C   UNL     1       5.148   4.274  15.994  0.00  0.00    +0.000 A 
ATOM     20  C   UNL     1       5.194   4.260  14.603  0.00  0.00    +0.000 A 
ATOM     21  C   UNL     1       6.389   4.546  13.958  0.00  0.00    +0.000 A 
ATOM     22  C   UNL     1       7.496   4.839  14.736  0.00  0.00    +0.000 A 
ATOM     23  N   UNL     1       7.486   4.854  16.088  0.00  0.00    +0.000 NA
ENDBRANCH  17  18
ENDBRANCH   5  17
TORSDOF 3
ENDMDL
MODEL 2
REMARK VINA RESULT:      -7.9      1.511      1.805
REMARK  Name = 
REMARK  4 active torsions:
REMARK  status: ('A' for Active; 'I' for Inactive)
REMARK    1  A    between atoms: C_1  and  C_2
REMARK    2  A    between atoms: C_5  and  C_6
REMARK    3  A    between atoms: C_6  and  C_7
REMARK    4  A    between atoms: C_14  and  N_15
REMARK                            x       y       z     vdW  Elec       q    Type
REMARK                         _______ _______ _______ _____ _____    ______ ____
ROOT
ATOM      1  C   UNL     1       1.475   4.040  18.751  0.00  0.00    +0.000 C 
ATOM      2  C   UNL     1       2.763   4.456  18.097  0.00  0.00    +0.000 A 
ATOM      3  C   UNL     1       3.515   3.459  17.447  0.00  0.00    +0.000 A 
ATOM      4  C   UNL     1       4.737   3.750  16.841  0.00  0.00    +0.000 A 
ATOM      5  C   UNL     1       5.246   5.045  16.891  0.00  0.00    +0.000 A 
ATOM      6  C   UNL     1       4.492   6.047  17.526  0.00  0.00    +0.000 A 
ATOM      7  C   UNL     1       3.250   5.783  18.120  0.00  0.00    +0.000 A 
ENDROOT
BRANCH   7   8
ATOM      8  N   UNL     1       2.501   6.806  18.758  0.00  0.00    +0.000 N 
ATOM      9  C   UNL     1       2.209   8.059  18.247  0.00  0.00    +0.000 C 
ATOM     10  O   UNL     1       2.464   8.430  17.103  0.00  0.00    +0.000 OA
ATOM     11  N   UNL     1       1.593   8.929  19.125  0.00  0.00    +0.000 N 
ATOM     12  C   UNL     1       1.159   8.721  20.491  0.00  0.00    +0.000 C 
ATOM     13  C   UNL     1       0.151   9.838  20.722  0.00  0.00    +0.000 C 
ATOM     14  C   UNL     1       0.705  10.995  19.899  0.00  0.00    +0.000 C 
ATOM     15  C   UNL     1       1.422  10.320  18.737  0.00  0.00    +0.000 C 
ATOM     16  H   UNL     1       2.058   6.566  19.628  0.00  0.00    +0.000 HD
ENDBRANCH   7   8
BRANCH   5  17
ATOM     17  C   UNL     1       6.578   5.380  16.258  0.00  0.00    +0.000 C 
BRANCH  17  18
ATOM     18  C   UNL     1       6.708   4.943  14.817  0.00  0.00    +0.000 A 
ATOM     19  C   UNL     1       5.812   4.026  14.268  0.00  0.00    +0.000 A 
ATOM     20  C   UNL     1       5.969   3.642  12.939  0.00  0.00    +0.000 A 
ATOM     21  C   UNL     1       7.002   4.189  12.190  0.00  0.00    +0.000 A 
ATOM     22  C   UNL     1       7.838   5.107  12.803  0.00  0.00    +0.000 A 
ATOM     23  N   UNL     1       7.716   5.494  14.092  0.00  0.00    +0.000 NA
ENDBRANCH  17  18
ENDBRANCH   5  17
TORSDOF 3
ENDMDL
MODEL 3
REMARK VINA RESULT:      -7.7      1.579      2.307
REMARK  Name = 
REMARK  4 active torsions:
REMARK  status: ('A' for Active; 'I' for Inactive)
REMARK    1  A    between atoms: C_1  and  C_2
REMARK    2  A    between atoms: C_5  and  C_6
REMARK    3  A    between atoms: C_6  and  C_7
REMARK    4  A    between atoms: C_14  and  N_15
REMARK                            x       y       z     vdW  Elec       q    Type
REMARK                         _______ _______ _______ _____ _____    ______ ____
ROOT
ATOM      1  C   UNL     1       0.965   3.949  20.406  0.00  0.00    +0.000 C 
ATOM      2  C   UNL     1       2.115   4.282  19.497  0.00  0.00    +0.000 A 
ATOM      3  C   UNL     1       2.692   3.228  18.764  0.00  0.00    +0.000 A 
ATOM      4  C   UNL     1       3.782   3.440  17.921  0.00  0.00    +0.000 A 
ATOM      5  C   UNL     1       4.336   4.713  17.811  0.00  0.00    +0.000 A 
ATOM      6  C   UNL     1       3.755   5.771  18.529  0.00  0.00    +0.000 A 
ATOM      7  C   UNL     1       2.643   5.586  19.363  0.00  0.00    +0.000 A 
ENDROOT
BRANCH   7   8
ATOM      8  N   UNL     1       2.068   6.665  20.082  0.00  0.00    +0.000 N 
ATOM      9  C   UNL     1       1.677   7.890  19.567  0.00  0.00    +0.000 C 
ATOM     10  O   UNL     1       1.666   8.179  18.372  0.00  0.00    +0.000 OA
ATOM     11  N   UNL     1       1.284   8.828  20.500  0.00  0.00    +0.000 N 
ATOM     12  C   UNL     1       1.173   8.720  21.940  0.00  0.00    +0.000 C 
ATOM     13  C   UNL     1       0.254   9.873  22.318  0.00  0.00    +0.000 C 
ATOM     14  C   UNL     1       0.614  10.961  21.312  0.00  0.00    +0.000 C 
ATOM     15  C   UNL     1       1.040  10.195  20.067  0.00  0.00    +0.000 C 
ATOM     16  H   UNL     1       1.834   6.493  21.046  0.00  0.00    +0.000 HD
ENDBRANCH   7   8
BRANCH   5  17
ATOM     17  C   UNL     1       5.531   4.965  16.918  0.00  0.00    +0.000 C 
BRANCH  17  18
ATOM     18  C   UNL     1       6.535   5.941  17.484  0.00  0.00    +0.000 A 
ATOM     19  C   UNL     1       7.328   5.592  18.577  0.00  0.00    +0.000 A 
ATOM     20  C   UNL     1       8.237   6.522  19.075  0.00  0.00    +0.000 A 
ATOM     21  C   UNL     1       8.341   7.765  18.466  0.00  0.00    +0.000 A 
ATOM     22  C   UNL     1       7.531   8.028  17.375  0.00  0.00    +0.000 A 
ATOM     23  N   UNL     1       6.635   7.150  16.873  0.00  0.00    +0.000 NA
ENDBRANCH  17  18
ENDBRANCH   5  17
TORSDOF 3
ENDMDL
MODEL 4
REMARK VINA RESULT:      -7.6      1.518      2.214
REMARK  Name = 
REMARK  4 active torsions:
REMARK  status: ('A' for Active; 'I' for Inactive)
REMARK    1  A    between atoms: C_1  and  C_2
REMARK    2  A    between atoms: C_5  and  C_6
REMARK    3  A    between atoms: C_6  and  C_7
REMARK    4  A    between atoms: C_14  and  N_15
REMARK                            x       y       z     vdW  Elec       q    Type
REMARK                         _______ _______ _______ _____ _____    ______ ____
ROOT
ATOM      1  C   UNL     1       0.712   3.519  20.004  0.00  0.00    +0.000 C 
ATOM      2  C   UNL     1       1.958   3.785  19.208  0.00  0.00    +0.000 A 
ATOM      3  C   UNL     1       2.535   2.702  18.517  0.00  0.00    +0.000 A 
ATOM      4  C   UNL     1       3.709   2.852  17.780  0.00  0.00    +0.000 A 
ATOM      5  C   UNL     1       4.347   4.089  17.735  0.00  0.00    +0.000 A 
ATOM      6  C   UNL     1       3.768   5.176  18.411  0.00  0.00    +0.000 A 
ATOM      7  C   UNL     1       2.575   5.055  19.138  0.00  0.00    +0.000 A 
ENDROOT
BRANCH   7   8
ATOM      8  N   UNL     1       2.004   6.163  19.814  0.00  0.00    +0.000 N 
ATOM      9  C   UNL     1       1.803   7.434  19.301  0.00  0.00    +0.000 C 
ATOM     10  O   UNL     1       1.989   7.757  18.129  0.00  0.00    +0.000 OA
ATOM     11  N   UNL     1       1.368   8.379  20.209  0.00  0.00    +0.000 N 
ATOM     12  C   UNL     1       1.043   8.241  21.614  0.00  0.00    +0.000 C 
ATOM     13  C   UNL     1       0.188   9.464  21.907  0.00  0.00    +0.000 C 
ATOM     14  C   UNL     1       0.785  10.541  21.008  0.00  0.00    +0.000 C 
ATOM     15  C   UNL     1       1.314   9.774  19.803  0.00  0.00    +0.000 C 
ATOM     16  H   UNL     1       1.620   5.987  20.727  0.00  0.00    +0.000 HD
ENDBRANCH   7   8
BRANCH   5  17
ATOM     17  C   UNL     1       5.631   4.271  16.957  0.00  0.00    +0.000 C 
BRANCH  17  18
ATOM     18  C   UNL     1       6.566   5.308  17.536  0.00  0.00    +0.000 A 
ATOM     19  C   UNL     1       6.737   6.542  16.909  0.00  0.00    +0.000 A 
ATOM     20  C   UNL     1       7.613   7.468  17.469  0.00  0.00    +0.000 A 
ATOM     21  C   UNL     1       8.283   7.148  18.641  0.00  0.00    +0.000 A 
ATOM     22  C   UNL     1       8.046   5.909  19.211  0.00  0.00    +0.000 A 
ATOM     23  N   UNL     1       7.208   4.986  18.689  0.00  0.00    +0.000 NA
ENDBRANCH  17  18
ENDBRANCH   5  17
TORSDOF 3
ENDMDL
MODEL 5
REMARK VINA RESULT:      -7.5      1.838      7.056
REMARK  Name = 
REMARK  4 active torsions:
REMARK  status: ('A' for Active; 'I' for Inactive)
REMARK    1  A    between atoms: C_1  and  C_2
REMARK    2  A    between atoms: C_5  and  C_6
REMARK    3  A    between atoms: C_6  and  C_7
REMARK    4  A    between atoms: C_14  and  N_15
REMARK                            x       y       z     vdW  Elec       q    Type
REMARK                         _______ _______ _______ _____ _____    ______ ____
ROOT
ATOM      1  C   UNL     1       2.111   2.181  18.097  0.00  0.00    +0.000 C 
ATOM      2  C   UNL     1       2.135   3.516  18.788  0.00  0.00    +0.000 A 
ATOM      3  C   UNL     1       1.333   3.670  19.935  0.00  0.00    +0.000 A 
ATOM      4  C   UNL     1       1.270   4.884  20.620  0.00  0.00    +0.000 A 
ATOM      5  C   UNL     1       1.994   5.980  20.157  0.00  0.00    +0.000 A 
ATOM      6  C   UNL     1       2.806   5.827  19.021  0.00  0.00    +0.000 A 
ATOM      7  C   UNL     1       2.905   4.609  18.331  0.00  0.00    +0.000 A 
ENDROOT
BRANCH   7   8
ATOM      8  N   UNL     1       3.730   4.471  17.186  0.00  0.00    +0.000 N 
ATOM      9  C   UNL     1       5.112   4.553  17.146  0.00  0.00    +0.000 C 
ATOM     10  O   UNL     1       5.841   4.644  18.132  0.00  0.00    +0.000 OA
ATOM     11  N   UNL     1       5.671   4.534  15.884  0.00  0.00    +0.000 N 
ATOM     12  C   UNL     1       5.041   4.396  14.587  0.00  0.00    +0.000 C 
ATOM     13  C   UNL     1       6.180   3.963  13.677  0.00  0.00    +0.000 C 
ATOM     14  C   UNL     1       7.391   4.692  14.248  0.00  0.00    +0.000 C 
ATOM     15  C   UNL     1       7.093   4.805  15.738  0.00  0.00    +0.000 C 
ATOM     16  H   UNL     1       3.276   4.194  16.332  0.00  0.00    +0.000 HD
ENDBRANCH   7   8
BRANCH   5  17
ATOM     17  C   UNL     1       1.927   7.311  20.872  0.00  0.00    +0.000 C 
BRANCH  17  18
ATOM     18  C   UNL     1       1.321   8.426  20.052  0.00  0.00    +0.000 A 
ATOM     19  C   UNL     1       1.757   8.669  18.749  0.00  0.00    +0.000 A 
ATOM     20  C   UNL     1       1.179   9.711  18.027  0.00  0.00    +0.000 A 
ATOM     21  C   UNL     1       0.179  10.473  18.615  0.00  0.00    +0.000 A 
ATOM     22  C   UNL     1      -0.208  10.158  19.906  0.00  0.00    +0.000 A 
ATOM     23  N   UNL     1       0.336   9.158  20.634  0.00  0.00    +0.000 NA
ENDBRANCH  17  18
ENDBRANCH   5  17
TORSDOF 3
ENDMDL
MODEL 6
REMARK VINA RESULT:      -7.4      1.855      7.087
REMARK  Name = 
REMARK  4 active torsions:
REMARK  status: ('A' for Active; 'I' for Inactive)
REMARK    1  A    between atoms: C_1  and  C_2
REMARK    2  A    between atoms: C_5  and  C_6
REMARK    3  A    between atoms: C_6  and  C_7
REMARK    4  A    between atoms: C_14  and  N_15
REMARK                            x       y       z     vdW  Elec       q    Type
REMARK                         _______ _______ _______ _____ _____    ______ ____
ROOT
ATOM      1  C   UNL     1       2.027   2.338  18.135  0.00  0.00    +0.000 C 
ATOM      2  C   UNL     1       2.082   3.673  18.821  0.00  0.00    +0.000 A 
ATOM      3  C   UNL     1       1.280   3.853  19.965  0.00  0.00    +0.000 A 
ATOM      4  C   UNL     1       1.246   5.070  20.645  0.00  0.00    +0.000 A 
ATOM      5  C   UNL     1       1.999   6.145  20.181  0.00  0.00    +0.000 A 
ATOM      6  C   UNL     1       2.812   5.967  19.050  0.00  0.00    +0.000 A 
ATOM      7  C   UNL     1       2.882   4.746  18.364  0.00  0.00    +0.000 A 
ENDROOT
BRANCH   7   8
ATOM      8  N   UNL     1       3.708   4.583  17.223  0.00  0.00    +0.000 N 
ATOM      9  C   UNL     1       5.093   4.603  17.193  0.00  0.00    +0.000 C 
ATOM     10  O   UNL     1       5.818   4.652  18.184  0.00  0.00    +0.000 OA
ATOM     11  N   UNL     1       5.659   4.572  15.934  0.00  0.00    +0.000 N 
ATOM     12  C   UNL     1       5.032   4.475  14.632  0.00  0.00    +0.000 C 
ATOM     13  C   UNL     1       6.157   4.002  13.724  0.00  0.00    +0.000 C 
ATOM     14  C   UNL     1       7.395   4.670  14.311  0.00  0.00    +0.000 C 
ATOM     15  C   UNL     1       7.092   4.781  15.800  0.00  0.00    +0.000 C 
ATOM     16  H   UNL     1       3.248   4.334  16.363  0.00  0.00    +0.000 HD
ENDBRANCH   7   8
BRANCH   5  17
ATOM     17  C   UNL     1       1.963   7.480  20.891  0.00  0.00    +0.000 C 
BRANCH  17  18
ATOM     18  C   UNL     1       1.214   8.560  20.146  0.00  0.00    +0.000 A 
ATOM     19  C   UNL     1       0.145   9.227  20.744  0.00  0.00    +0.000 A 
ATOM     20  C   UNL     1      -0.525  10.211  20.022  0.00  0.00    +0.000 A 
ATOM     21  C   UNL     1      -0.107  10.514  18.734  0.00  0.00    +0.000 A 
ATOM     22  C   UNL     1       0.973   9.819  18.218  0.00  0.00    +0.000 A 
ATOM     23  N   UNL     1       1.640   8.854  18.890  0.00  0.00    +0.000 NA
ENDBRANCH  17  18
ENDBRANCH   5  17
TORSDOF 3
ENDMDL
MODEL 7
REMARK VINA RESULT:      -7.4      1.631      2.192
REMARK  Name = 
REMARK  4 active torsions:
REMARK  status: ('A' for Active; 'I' for Inactive)
REMARK    1  A    between atoms: C_1  and  C_2
REMARK    2  A    between atoms: C_5  and  C_6
REMARK    3  A    between atoms: C_6  and  C_7
REMARK    4  A    between atoms: C_14  and  N_15
REMARK                            x       y       z     vdW  Elec       q    Type
REMARK                         _______ _______ _______ _____ _____    ______ ____
ROOT
ATOM      1  C   UNL     1       1.585   4.669  18.662  0.00  0.00    +0.000 C 
ATOM      2  C   UNL     1       2.912   4.909  17.997  0.00  0.00    +0.000 A 
ATOM      3  C   UNL     1       3.693   3.783  17.676  0.00  0.00    +0.000 A 
ATOM      4  C   UNL     1       4.950   3.915  17.087  0.00  0.00    +0.000 A 
ATOM      5  C   UNL     1       5.465   5.182  16.826  0.00  0.00    +0.000 A 
ATOM      6  C   UNL     1       4.684   6.308  17.131  0.00  0.00    +0.000 A 
ATOM      7  C   UNL     1       3.407   6.200  17.701  0.00  0.00    +0.000 A 
ENDROOT
BRANCH   7   8
ATOM      8  N   UNL     1       2.630   7.348  18.003  0.00  0.00    +0.000 N 
ATOM      9  C   UNL     1       2.209   7.756  19.258  0.00  0.00    +0.000 C 
ATOM     10  O   UNL     1       2.549   7.236  20.319  0.00  0.00    +0.000 OA
ATOM     11  N   UNL     1       1.336   8.825  19.272  0.00  0.00    +0.000 N 
ATOM     12  C   UNL     1       0.823   9.623  18.177  0.00  0.00    +0.000 C 
ATOM     13  C   UNL     1       0.335  10.895  18.856  0.00  0.00    +0.000 C 
ATOM     14  C   UNL     1      -0.176  10.406  20.206  0.00  0.00    +0.000 C 
ATOM     15  C   UNL     1       0.697   9.199  20.524  0.00  0.00    +0.000 C 
ATOM     16  H   UNL     1       2.444   7.981  17.244  0.00  0.00    +0.000 HD
ENDBRANCH   7   8
BRANCH   5  17
ATOM     17  C   UNL     1       6.834   5.350  16.205  0.00  0.00    +0.000 C 
BRANCH  17  18
ATOM     18  C   UNL     1       6.917   4.922  14.758  0.00  0.00    +0.000 A 
ATOM     19  C   UNL     1       6.056   3.947  14.254  0.00  0.00    +0.000 A 
ATOM     20  C   UNL     1       6.168   3.574  12.917  0.00  0.00    +0.000 A 
ATOM     21  C   UNL     1       7.121   4.189  12.117  0.00  0.00    +0.000 A 
ATOM     22  C   UNL     1       7.925   5.160  12.688  0.00  0.00    +0.000 A 
ATOM     23  N   UNL     1       7.846   5.539  13.983  0.00  0.00    +0.000 NA
ENDBRANCH  17  18
ENDBRANCH   5  17
TORSDOF 3
ENDMDL
MODEL 8
REMARK VINA RESULT:      -7.3      0.905      1.083
REMARK  Name = 
REMARK  4 active torsions:
REMARK  status: ('A' for Active; 'I' for Inactive)
REMARK    1  A    between atoms: C_1  and  C_2
REMARK    2  A    between atoms: C_5  and  C_6
REMARK    3  A    between atoms: C_6  and  C_7
REMARK    4  A    between atoms: C_14  and  N_15
REMARK                            x       y       z     vdW  Elec       q    Type
REMARK                         _______ _______ _______ _____ _____    ______ ____
ROOT
ATOM      1  C   UNL     1       2.587   3.756  20.654  0.00  0.00    +0.000 C 
ATOM      2  C   UNL     1       3.573   4.339  19.682  0.00  0.00    +0.000 A 
ATOM      3  C   UNL     1       4.458   3.453  19.039  0.00  0.00    +0.000 A 
ATOM      4  C   UNL     1       5.426   3.912  18.146  0.00  0.00    +0.000 A 
ATOM      5  C   UNL     1       5.544   5.275  17.892  0.00  0.00    +0.000 A 
ATOM      6  C   UNL     1       4.655   6.163  18.520  0.00  0.00    +0.000 A 
ATOM      7  C   UNL     1       3.658   5.723  19.402  0.00  0.00    +0.000 A 
ENDROOT
BRANCH   7   8
ATOM      8  N   UNL     1       2.767   6.632  20.028  0.00  0.00    +0.000 N 
ATOM      9  C   UNL     1       2.089   7.677  19.422  0.00  0.00    +0.000 C 
ATOM     10  O   UNL     1       2.072   7.898  18.213  0.00  0.00    +0.000 OA
ATOM     11  N   UNL     1       1.398   8.511  20.278  0.00  0.00    +0.000 N 
ATOM     12  C   UNL     1       1.233   8.441  21.716  0.00  0.00    +0.000 C 
ATOM     13  C   UNL     1       0.013   9.311  21.980  0.00  0.00    +0.000 C 
ATOM     14  C   UNL     1       0.122  10.410  20.929  0.00  0.00    +0.000 C 
ATOM     15  C   UNL     1       0.817   9.737  19.753  0.00  0.00    +0.000 C 
ATOM     16  H   UNL     1       2.531   6.445  20.988  0.00  0.00    +0.000 HD
ENDBRANCH   7   8
BRANCH   5  17
ATOM     17  C   UNL     1       6.599   5.798  16.942  0.00  0.00    +0.000 C 
BRANCH  17  18
ATOM     18  C   UNL     1       6.542   5.194  15.558  0.00  0.00    +0.000 A 
ATOM     19  C   UNL     1       5.421   4.478  15.140  0.00  0.00    +0.000 A 
ATOM     20  C   UNL     1       5.409   3.930  13.860  0.00  0.00    +0.000 A 
ATOM     21  C   UNL     1       6.505   4.119  13.028  0.00  0.00    +0.000 A 
ATOM     22  C   UNL     1       7.571   4.857  13.512  0.00  0.00    +0.000 A 
ATOM     23  N   UNL     1       7.616   5.396  14.751  0.00  0.00    +0.000 NA
ENDBRANCH  17  18
ENDBRANCH   5  17
TORSDOF 3
ENDMDL
MODEL 9
REMARK VINA RESULT:      -7.3      0.710      1.087
REMARK  Name = 
REMARK  4 active torsions:
REMARK  status: ('A' for Active; 'I' for Inactive)
REMARK    1  A    between atoms: C_1  and  C_2
REMARK    2  A    between atoms: C_5  and  C_6
REMARK    3  A    between atoms: C_6  and  C_7
REMARK    4  A    between atoms: C_14  and  N_15
REMARK                            x       y       z     vdW  Elec       q    Type
REMARK                         _______ _______ _______ _____ _____    ______ ____
ROOT
ATOM      1  C   UNL     1       1.451   3.674  21.181  0.00  0.00    +0.000 C 
ATOM      2  C   UNL     1       2.703   3.970  20.404  0.00  0.00    +0.000 A 
ATOM      3  C   UNL     1       3.496   2.878  20.005  0.00  0.00    +0.000 A 
ATOM      4  C   UNL     1       4.690   3.063  19.308  0.00  0.00    +0.000 A 
ATOM      5  C   UNL     1       5.129   4.351  19.014  0.00  0.00    +0.000 A 
ATOM      6  C   UNL     1       4.334   5.444  19.398  0.00  0.00    +0.000 A 
ATOM      7  C   UNL     1       3.118   5.281  20.077  0.00  0.00    +0.000 A 
ENDROOT
BRANCH   7   8
ATOM      8  N   UNL     1       2.326   6.395  20.458  0.00  0.00    +0.000 N 
ATOM      9  C   UNL     1       1.971   7.470  19.660  0.00  0.00    +0.000 C 
ATOM     10  O   UNL     1       2.197   7.558  18.455  0.00  0.00    +0.000 OA
ATOM     11  N   UNL     1       1.320   8.501  20.308  0.00  0.00    +0.000 N 
ATOM     12  C   UNL     1       0.908   8.618  21.692  0.00  0.00    +0.000 C 
ATOM     13  C   UNL     1      -0.149   9.711  21.661  0.00  0.00    +0.000 C 
ATOM     14  C   UNL     1       0.341  10.653  20.567  0.00  0.00    +0.000 C 
ATOM     15  C   UNL     1       1.080   9.744  19.593  0.00  0.00    +0.000 C 
ATOM     16  H   UNL     1       1.903   6.359  21.369  0.00  0.00    +0.000 HD
ENDBRANCH   7   8
BRANCH   5  17
ATOM     17  C   UNL     1       6.430   4.578  18.276  0.00  0.00    +0.000 C 
BRANCH  17  18
ATOM     18  C   UNL     1       6.307   4.525  16.771  0.00  0.00    +0.000 A 
ATOM     19  C   UNL     1       7.383   4.881  15.957  0.00  0.00    +0.000 A 
ATOM     20  C   UNL     1       7.229   4.826  14.574  0.00  0.00    +0.000 A 
ATOM     21  C   UNL     1       6.018   4.409  14.040  0.00  0.00    +0.000 A 
ATOM     22  C   UNL     1       5.005   4.057  14.916  0.00  0.00    +0.000 A 
ATOM     23  N   UNL     1       5.121   4.105  16.261  0.00  0.00    +0.000 NA
ENDBRANCH  17  18
ENDBRANCH   5  17
TORSDOF 3
ENDMDL
