MODEL 1
REMARK VINA RESULT:      -8.0      0.000      0.000
REMARK  Name = 
REMARK  8 active torsions:
REMARK  status: ('A' for Active; 'I' for Inactive)
REMARK    1  A    between atoms: C_1  and  C_2
REMARK    2  A    between atoms: C_2  and  C_3
REMARK    3  A    between atoms: C_2  and  C_4
REMARK    4  A    between atoms: N_6  and  C_7
REMARK    5  A    between atoms: C_7  and  C_8
REMARK    6  A    between atoms: C_8  and  S_9
REMARK    7  A    between atoms: S_9  and  C_12
REMARK    8  A    between atoms: C_15  and  C_16
REMARK                            x       y       z     vdW  Elec       q    Type
REMARK                         _______ _______ _______ _____ _____    ______ ____
ROOT
ATOM      1  S   UNL     1       5.674   6.033  16.492  0.00  0.00    +0.000 S 
ATOM      2  O   UNL     1       6.303   6.973  17.402  0.00  0.00    +0.000 OA
ATOM      3  O   UNL     1       5.106   6.501  15.236  0.00  0.00    +0.000 OA
ENDROOT
BRANCH   1   4
ATOM      4  C   UNL     1       4.360   5.251  17.399  0.00  0.00    +0.000 A 
ATOM      5  C   UNL     1       3.822   5.859  18.519  0.00  0.00    +0.000 A 
ATOM      6  C   UNL     1       2.792   5.188  19.173  0.00  0.00    +0.000 A 
ATOM      7  C   UNL     1       2.339   3.953  18.684  0.00  0.00    +0.000 A 
ATOM      8  C   UNL     1       2.948   3.444  17.544  0.00  0.00    +0.000 A 
ATOM      9  N   UNL     1       3.957   4.062  16.894  0.00  0.00    +0.000 NA
BRANCH   7  10
ATOM     10  C   UNL     1       1.242   3.171  19.340  0.00  0.00    +0.000 C 
ATOM     11  F   UNL     1       0.442   2.515  18.453  0.00  0.00    +0.000 F 
ATOM     12  F   UNL     1       1.714   2.220  20.190  0.00  0.00    +0.000 F 
ATOM     13  F   UNL     1       0.412   3.957  20.078  0.00  0.00    +0.000 F 
ENDBRANCH   7  10
ENDBRANCH   1   4
BRANCH   1  14
ATOM     14  C   UNL     1       6.858   4.762  16.122  0.00  0.00    +0.000 C 
BRANCH  14  15
ATOM     15  C   UNL     1       7.164   4.681  14.638  0.00  0.00    +0.000 C 
BRANCH  15  18
ATOM     16  C   UNL     1       6.371   3.571  12.574  0.00  0.00    +0.000 C 
ATOM     17  O   UNL     1       7.142   4.216  11.870  0.00  0.00    +0.000 OA
ATOM     18  N   UNL     1       6.284   3.756  13.939  0.00  0.00    +0.000 N 
ATOM     19  H   UNL     1       5.603   3.234  14.474  0.00  0.00    +0.000 HD
BRANCH  16  21
ATOM     20  C   UNL     1       4.279   3.203  11.234  0.00  0.00    +0.000 C 
ATOM     21  C   UNL     1       5.406   2.526  12.014  0.00  0.00    +0.000 C 
ATOM     22  C   UNL     1       6.125   1.523  11.113  0.00  0.00    +0.000 C 
ENDBRANCH  16  21
ENDBRANCH  15  18
ENDBRANCH  14  15
ENDBRANCH   1  14
TORSDOF 6
ENDMDL
MODEL 2
REMARK VINA RESULT:      -7.9      0.790      1.423
REMARK  Name = 
REMARK  8 active torsions:
REMARK  status: ('A' for Active; 'I' for Inactive)
REMARK    1  A    between atoms: C_1  and  C_2
REMARK    2  A    between atoms: C_2  and  C_3
REMARK    3  A    between atoms: C_2  and  C_4
REMARK    4  A    between atoms: N_6  and  C_7
REMARK    5  A    between atoms: C_7  and  C_8
REMARK    6  A    between atoms: C_8  and  S_9
REMARK    7  A    between atoms: S_9  and  C_12
REMARK    8  A    between atoms: C_15  and  C_16
REMARK                            x       y       z     vdW  Elec       q    Type
REMARK                         _______ _______ _______ _____ _____    ______ ____
ROOT
ATOM      1  S   UNL     1       6.114   5.753  17.097  0.00  0.00    +0.000 S 
ATOM      2  O   UNL     1       6.933   6.091  18.245  0.00  0.00    +0.000 OA
ATOM      3  O   UNL     1       5.649   6.798  16.197  0.00  0.00    +0.000 OA
ENDROOT
BRANCH   1   4
ATOM      4  C   UNL     1       4.670   4.929  17.728  0.00  0.00    +0.000 A 
ATOM      5  C   UNL     1       4.095   3.885  17.027  0.00  0.00    +0.000 A 
ATOM      6  C   UNL     1       2.970   3.286  17.588  0.00  0.00    +0.000 A 
ATOM      7  C   UNL     1       2.474   3.743  18.818  0.00  0.00    +0.000 A 
ATOM      8  C   UNL     1       3.140   4.793  19.437  0.00  0.00    +0.000 A 
ATOM      9  N   UNL     1       4.224   5.403  18.914  0.00  0.00    +0.000 NA
BRANCH   7  10
ATOM     10  C   UNL     1       1.264   3.153  19.477  0.00  0.00    +0.000 C 
ATOM     11  F   UNL     1       1.565   2.205  20.408  0.00  0.00    +0.000 F 
ATOM     12  F   UNL     1       0.513   4.086  20.123  0.00  0.00    +0.000 F 
ATOM     13  F   UNL     1       0.430   2.548  18.588  0.00  0.00    +0.000 F 
ENDBRANCH   7  10
ENDBRANCH   1   4
BRANCH   1  14
ATOM     14  C   UNL     1       6.999   4.550  16.134  0.00  0.00    +0.000 C 
BRANCH  14  15
ATOM     15  C   UNL     1       6.937   4.850  14.648  0.00  0.00    +0.000 C 
BRANCH  15  18
ATOM     16  C   UNL     1       6.327   3.613  12.595  0.00  0.00    +0.000 C 
ATOM     17  O   UNL     1       7.193   4.180  11.935  0.00  0.00    +0.000 OA
ATOM     18  N   UNL     1       6.102   3.902  13.925  0.00  0.00    +0.000 N 
ATOM     19  H   UNL     1       5.348   3.442  14.418  0.00  0.00    +0.000 HD
BRANCH  16  21
ATOM     20  C   UNL     1       4.260   3.225  11.220  0.00  0.00    +0.000 C 
ATOM     21  C   UNL     1       5.388   2.558  12.008  0.00  0.00    +0.000 C 
ATOM     22  C   UNL     1       6.138   1.579  11.105  0.00  0.00    +0.000 C 
ENDBRANCH  16  21
ENDBRANCH  15  18
ENDBRANCH  14  15
ENDBRANCH   1  14
TORSDOF 6
ENDMDL
MODEL 3
REMARK VINA RESULT:      -7.8      0.857      1.096
REMARK  Name = 
REMARK  8 active torsions:
REMARK  status: ('A' for Active; 'I' for Inactive)
REMARK    1  A    between atoms: C_1  and  C_2
REMARK    2  A    between atoms: C_2  and  C_3
REMARK    3  A    between atoms: C_2  and  C_4
REMARK    4  A    between atoms: N_6  and  C_7
REMARK    5  A    between atoms: C_7  and  C_8
REMARK    6  A    between atoms: C_8  and  S_9
REMARK    7  A    between atoms: S_9  and  C_12
REMARK    8  A    between atoms: C_15  and  C_16
REMARK                            x       y       z     vdW  Elec       q    Type
REMARK                         _______ _______ _______ _____ _____    ______ ____
ROOT
ATOM      1  S   UNL     1       5.918   5.911  16.820  0.00  0.00    +0.000 S 
ATOM      2  O   UNL     1       6.745   6.677  17.733  0.00  0.00    +0.000 OA
ATOM      3  O   UNL     1       5.270   6.567  15.694  0.00  0.00    +0.000 OA
ENDROOT
BRANCH   1   4
ATOM      4  C   UNL     1       4.634   5.169  17.800  0.00  0.00    +0.000 A 
ATOM      5  C   UNL     1       3.333   5.636  17.722  0.00  0.00    +0.000 A 
ATOM      6  C   UNL     1       2.381   5.000  18.516  0.00  0.00    +0.000 A 
ATOM      7  C   UNL     1       2.760   3.931  19.341  0.00  0.00    +0.000 A 
ATOM      8  C   UNL     1       4.093   3.542  19.330  0.00  0.00    +0.000 A 
ATOM      9  N   UNL     1       5.042   4.144  18.583  0.00  0.00    +0.000 NA
BRANCH   7  10
ATOM     10  C   UNL     1       1.793   3.206  20.228  0.00  0.00    +0.000 C 
ATOM     11  F   UNL     1       0.611   3.865  20.389  0.00  0.00    +0.000 F 
ATOM     12  F   UNL     1       1.471   1.973  19.753  0.00  0.00    +0.000 F 
ATOM     13  F   UNL     1       2.283   3.010  21.482  0.00  0.00    +0.000 F 
ENDBRANCH   7  10
ENDBRANCH   1   4
BRANCH   1  14
ATOM     14  C   UNL     1       6.903   4.575  16.187  0.00  0.00    +0.000 C 
BRANCH  14  15
ATOM     15  C   UNL     1       7.087   4.665  14.683  0.00  0.00    +0.000 C 
BRANCH  15  18
ATOM     16  C   UNL     1       6.345   3.544  12.606  0.00  0.00    +0.000 C 
ATOM     17  O   UNL     1       7.180   4.136  11.928  0.00  0.00    +0.000 OA
ATOM     18  N   UNL     1       6.200   3.765  13.960  0.00  0.00    +0.000 N 
ATOM     19  H   UNL     1       5.469   3.288  14.471  0.00  0.00    +0.000 HD
BRANCH  16  21
ATOM     20  C   UNL     1       4.261   3.248  11.235  0.00  0.00    +0.000 C 
ATOM     21  C   UNL     1       5.360   2.532  12.021  0.00  0.00    +0.000 C 
ATOM     22  C   UNL     1       6.065   1.522  11.115  0.00  0.00    +0.000 C 
ENDBRANCH  16  21
ENDBRANCH  15  18
ENDBRANCH  14  15
ENDBRANCH   1  14
TORSDOF 6
ENDMDL
MODEL 4
REMARK VINA RESULT:      -7.7      2.125      3.188
REMARK  Name = 
REMARK  8 active torsions:
REMARK  status: ('A' for Active; 'I' for Inactive)
REMARK    1  A    between atoms: C_1  and  C_2
REMARK    2  A    between atoms: C_2  and  C_3
REMARK    3  A    between atoms: C_2  and  C_4
REMARK    4  A    between atoms: N_6  and  C_7
REMARK    5  A    between atoms: C_7  and  C_8
REMARK    6  A    between atoms: C_8  and  S_9
REMARK    7  A    between atoms: S_9  and  C_12
REMARK    8  A    between atoms: C_15  and  C_16
REMARK                            x       y       z     vdW  Elec       q    Type
REMARK                         _______ _______ _______ _____ _____    ______ ____
ROOT
ATOM      1  S   UNL     1       7.450   5.241  18.881  0.00  0.00    +0.000 S 
ATOM      2  O   UNL     1       8.215   4.344  18.035  0.00  0.00    +0.000 OA
ATOM      3  O   UNL     1       7.690   5.274  20.316  0.00  0.00    +0.000 OA
ENDROOT
BRANCH   1   4
ATOM      4  C   UNL     1       5.739   4.821  18.649  0.00  0.00    +0.000 A 
ATOM      5  C   UNL     1       5.372   3.851  17.733  0.00  0.00    +0.000 A 
ATOM      6  C   UNL     1       4.013   3.572  17.611  0.00  0.00    +0.000 A 
ATOM      7  C   UNL     1       3.084   4.260  18.406  0.00  0.00    +0.000 A 
ATOM      8  C   UNL     1       3.569   5.207  19.300  0.00  0.00    +0.000 A 
ATOM      9  N   UNL     1       4.877   5.510  19.433  0.00  0.00    +0.000 NA
BRANCH   7  10
ATOM     10  C   UNL     1       1.607   4.020  18.324  0.00  0.00    +0.000 C 
ATOM     11  F   UNL     1       0.940   4.363  19.461  0.00  0.00    +0.000 F 
ATOM     12  F   UNL     1       1.018   4.723  17.319  0.00  0.00    +0.000 F 
ATOM     13  F   UNL     1       1.305   2.713  18.096  0.00  0.00    +0.000 F 
ENDBRANCH   7  10
ENDBRANCH   1   4
BRANCH   1  14
ATOM     14  C   UNL     1       7.655   6.889  18.250  0.00  0.00    +0.000 C 
BRANCH  14  15
ATOM     15  C   UNL     1       6.958   7.079  16.915  0.00  0.00    +0.000 C 
BRANCH  15  18
ATOM     16  C   UNL     1       6.515   5.629  14.960  0.00  0.00    +0.000 C 
ATOM     17  O   UNL     1       5.331   5.951  14.926  0.00  0.00    +0.000 OA
ATOM     18  N   UNL     1       7.383   6.102  15.923  0.00  0.00    +0.000 N 
ATOM     19  H   UNL     1       8.340   5.775  15.940  0.00  0.00    +0.000 HD
BRANCH  16  21
ATOM     20  C   UNL     1       6.068   3.749  13.355  0.00  0.00    +0.000 C 
ATOM     21  C   UNL     1       7.142   4.647  13.970  0.00  0.00    +0.000 C 
ATOM     22  C   UNL     1       7.900   5.376  12.861  0.00  0.00    +0.000 C 
ENDBRANCH  16  21
ENDBRANCH  15  18
ENDBRANCH  14  15
ENDBRANCH   1  14
TORSDOF 6
ENDMDL
MODEL 5
REMARK VINA RESULT:      -7.7      2.181      3.002
REMARK  Name = 
REMARK  8 active torsions:
REMARK  status: ('A' for Active; 'I' for Inactive)
REMARK    1  A    between atoms: C_1  and  C_2
REMARK    2  A    between atoms: C_2  and  C_3
REMARK    3  A    between atoms: C_2  and  C_4
REMARK    4  A    between atoms: N_6  and  C_7
REMARK    5  A    between atoms: C_7  and  C_8
REMARK    6  A    between atoms: C_8  and  S_9
REMARK    7  A    between atoms: S_9  and  C_12
REMARK    8  A    between atoms: C_15  and  C_16
REMARK                            x       y       z     vdW  Elec       q    Type
REMARK                         _______ _______ _______ _____ _____    ______ ____
ROOT
ATOM      1  S   UNL     1       7.269   5.303  19.099  0.00  0.00    +0.000 S 
ATOM      2  O   UNL     1       7.850   4.404  18.119  0.00  0.00    +0.000 OA
ATOM      3  O   UNL     1       7.803   5.352  20.452  0.00  0.00    +0.000 OA
ENDROOT
BRANCH   1   4
ATOM      4  C   UNL     1       5.551   4.866  19.233  0.00  0.00    +0.000 A 
ATOM      5  C   UNL     1       4.575   5.846  19.217  0.00  0.00    +0.000 A 
ATOM      6  C   UNL     1       3.251   5.425  19.319  0.00  0.00    +0.000 A 
ATOM      7  C   UNL     1       2.957   4.057  19.425  0.00  0.00    +0.000 A 
ATOM      8  C   UNL     1       4.020   3.163  19.421  0.00  0.00    +0.000 A 
ATOM      9  N   UNL     1       5.314   3.538  19.335  0.00  0.00    +0.000 NA
BRANCH   7  10
ATOM     10  C   UNL     1       1.558   3.533  19.548  0.00  0.00    +0.000 C 
ATOM     11  F   UNL     1       0.735   4.355  20.257  0.00  0.00    +0.000 F 
ATOM     12  F   UNL     1       0.959   3.355  18.340  0.00  0.00    +0.000 F 
ATOM     13  F   UNL     1       1.508   2.326  20.175  0.00  0.00    +0.000 F 
ENDBRANCH   7  10
ENDBRANCH   1   4
BRANCH   1  14
ATOM     14  C   UNL     1       7.320   6.946  18.425  0.00  0.00    +0.000 C 
BRANCH  14  15
ATOM     15  C   UNL     1       7.493   6.939  16.917  0.00  0.00    +0.000 C 
BRANCH  15  18
ATOM     16  C   UNL     1       6.749   5.394  15.134  0.00  0.00    +0.000 C 
ATOM     17  O   UNL     1       7.862   5.375  14.617  0.00  0.00    +0.000 OA
ATOM     18  N   UNL     1       6.463   6.161  16.244  0.00  0.00    +0.000 N 
ATOM     19  H   UNL     1       5.520   6.182  16.611  0.00  0.00    +0.000 HD
BRANCH  16  21
ATOM     20  C   UNL     1       6.010   3.677  13.456  0.00  0.00    +0.000 C 
ATOM     21  C   UNL     1       5.560   4.604  14.586  0.00  0.00    +0.000 C 
ATOM     22  C   UNL     1       4.877   3.787  15.681  0.00  0.00    +0.000 C 
ENDBRANCH  16  21
ENDBRANCH  15  18
ENDBRANCH  14  15
ENDBRANCH   1  14
TORSDOF 6
ENDMDL
MODEL 6
REMARK VINA RESULT:      -7.7      0.599      1.016
REMARK  Name = 
REMARK  8 active torsions:
REMARK  status: ('A' for Active; 'I' for Inactive)
REMARK    1  A    between atoms: C_1  and  C_2
REMARK    2  A    between atoms: C_2  and  C_3
REMARK    3  A    between atoms: C_2  and  C_4
REMARK    4  A    between atoms: N_6  and  C_7
REMARK    5  A    between atoms: C_7  and  C_8
REMARK    6  A    between atoms: C_8  and  S_9
REMARK    7  A    between atoms: S_9  and  C_12
REMARK    8  A    between atoms: C_15  and  C_16
REMARK                            x       y       z     vdW  Elec       q    Type
REMARK                         _______ _______ _______ _____ _____    ______ ____
ROOT
ATOM      1  S   UNL     1       6.294   5.763  17.169  0.00  0.00    +0.000 S 
ATOM      2  O   UNL     1       7.229   6.019  18.249  0.00  0.00    +0.000 OA
ATOM      3  O   UNL     1       5.851   6.853  16.312  0.00  0.00    +0.000 OA
ENDROOT
BRANCH   1   4
ATOM      4  C   UNL     1       4.840   5.060  17.912  0.00  0.00    +0.000 A 
ATOM      5  C   UNL     1       4.414   5.485  19.158  0.00  0.00    +0.000 A 
ATOM      6  C   UNL     1       3.263   4.893  19.672  0.00  0.00    +0.000 A 
ATOM      7  C   UNL     1       2.586   3.916  18.927  0.00  0.00    +0.000 A 
ATOM      8  C   UNL     1       3.101   3.576  17.683  0.00  0.00    +0.000 A 
ATOM      9  N   UNL     1       4.220   4.121  17.161  0.00  0.00    +0.000 NA
BRANCH   7  10
ATOM     10  C   UNL     1       1.348   3.229  19.420  0.00  0.00    +0.000 C 
ATOM     11  F   UNL     1       1.607   2.177  20.246  0.00  0.00    +0.000 F 
ATOM     12  F   UNL     1       0.533   4.063  20.122  0.00  0.00    +0.000 F 
ATOM     13  F   UNL     1       0.592   2.729  18.406  0.00  0.00    +0.000 F 
ENDBRANCH   7  10
ENDBRANCH   1   4
BRANCH   1  14
ATOM     14  C   UNL     1       6.993   4.498  16.135  0.00  0.00    +0.000 C 
BRANCH  14  15
ATOM     15  C   UNL     1       6.883   4.841  14.661  0.00  0.00    +0.000 C 
BRANCH  15  18
ATOM     16  C   UNL     1       6.319   3.603  12.594  0.00  0.00    +0.000 C 
ATOM     17  O   UNL     1       7.174   4.199  11.944  0.00  0.00    +0.000 OA
ATOM     18  N   UNL     1       6.079   3.876  13.925  0.00  0.00    +0.000 N 
ATOM     19  H   UNL     1       5.335   3.392  14.410  0.00  0.00    +0.000 HD
BRANCH  16  21
ATOM     20  C   UNL     1       4.284   3.170  11.187  0.00  0.00    +0.000 C 
ATOM     21  C   UNL     1       5.413   2.528  11.994  0.00  0.00    +0.000 C 
ATOM     22  C   UNL     1       6.198   1.564  11.105  0.00  0.00    +0.000 C 
ENDBRANCH  16  21
ENDBRANCH  15  18
ENDBRANCH  14  15
ENDBRANCH   1  14
TORSDOF 6
ENDMDL
MODEL 7
REMARK VINA RESULT:      -7.6      3.983      6.558
REMARK  Name = 
REMARK  8 active torsions:
REMARK  status: ('A' for Active; 'I' for Inactive)
REMARK    1  A    between atoms: C_1  and  C_2
REMARK    2  A    between atoms: C_2  and  C_3
REMARK    3  A    between atoms: C_2  and  C_4
REMARK    4  A    between atoms: N_6  and  C_7
REMARK    5  A    between atoms: C_7  and  C_8
REMARK    6  A    between atoms: C_8  and  S_9
REMARK    7  A    between atoms: S_9  and  C_12
REMARK    8  A    between atoms: C_15  and  C_16
REMARK                            x       y       z     vdW  Elec       q    Type
REMARK                         _______ _______ _______ _____ _____    ______ ____
ROOT
ATOM      1  S   UNL     1       7.087   5.691  17.463  0.00  0.00    +0.000 S 
ATOM      2  O   UNL     1       7.806   6.918  17.173  0.00  0.00    +0.000 OA
ATOM      3  O   UNL     1       7.692   4.673  18.309  0.00  0.00    +0.000 OA
ENDROOT
BRANCH   1   4
ATOM      4  C   UNL     1       6.737   4.926  15.897  0.00  0.00    +0.000 A 
ATOM      5  C   UNL     1       5.768   3.943  15.797  0.00  0.00    +0.000 A 
ATOM      6  C   UNL     1       5.546   3.396  14.536  0.00  0.00    +0.000 A 
ATOM      7  C   UNL     1       6.287   3.851  13.435  0.00  0.00    +0.000 A 
ATOM      8  C   UNL     1       7.227   4.850  13.653  0.00  0.00    +0.000 A 
ATOM      9  N   UNL     1       7.475   5.392  14.864  0.00  0.00    +0.000 NA
BRANCH   7  10
ATOM     10  C   UNL     1       6.108   3.302  12.052  0.00  0.00    +0.000 C 
ATOM     11  F   UNL     1       7.202   3.474  11.258  0.00  0.00    +0.000 F 
ATOM     12  F   UNL     1       5.852   1.966  12.049  0.00  0.00    +0.000 F 
ATOM     13  F   UNL     1       5.072   3.885  11.390  0.00  0.00    +0.000 F 
ENDBRANCH   7  10
ENDBRANCH   1   4
BRANCH   1  14
ATOM     14  C   UNL     1       5.519   6.135  18.169  0.00  0.00    +0.000 C 
BRANCH  14  15
ATOM     15  C   UNL     1       5.120   5.209  19.303  0.00  0.00    +0.000 C 
BRANCH  15  18
ATOM     16  C   UNL     1       3.050   3.994  18.704  0.00  0.00    +0.000 C 
ATOM     17  O   UNL     1       2.339   4.937  19.039  0.00  0.00    +0.000 OA
ATOM     18  N   UNL     1       4.424   4.021  18.831  0.00  0.00    +0.000 N 
ATOM     19  H   UNL     1       4.967   3.204  18.584  0.00  0.00    +0.000 HD
BRANCH  16  21
ATOM     20  C   UNL     1       3.460   1.532  18.416  0.00  0.00    +0.000 C 
ATOM     21  C   UNL     1       2.491   2.685  18.147  0.00  0.00    +0.000 C 
ATOM     22  C   UNL     1       1.123   2.358  18.745  0.00  0.00    +0.000 C 
ENDBRANCH  16  21
ENDBRANCH  15  18
ENDBRANCH  14  15
ENDBRANCH   1  14
TORSDOF 6
ENDMDL
MODEL 8
REMARK VINA RESULT:      -7.6      4.057      6.832
REMARK  Name = 
REMARK  8 active torsions:
REMARK  status: ('A' for Active; 'I' for Inactive)
REMARK    1  A    between atoms: C_1  and  C_2
REMARK    2  A    between atoms: C_2  and  C_3
REMARK    3  A    between atoms: C_2  and  C_4
REMARK    4  A    between atoms: N_6  and  C_7
REMARK    5  A    between atoms: C_7  and  C_8
REMARK    6  A    between atoms: C_8  and  S_9
REMARK    7  A    between atoms: S_9  and  C_12
REMARK    8  A    between atoms: C_15  and  C_16
REMARK                            x       y       z     vdW  Elec       q    Type
REMARK                         _______ _______ _______ _____ _____    ______ ____
ROOT
ATOM      1  S   UNL     1       7.052   5.784  17.512  0.00  0.00    +0.000 S 
ATOM      2  O   UNL     1       7.608   7.097  17.242  0.00  0.00    +0.000 OA
ATOM      3  O   UNL     1       7.807   4.817  18.294  0.00  0.00    +0.000 OA
ENDROOT
BRANCH   1   4
ATOM      4  C   UNL     1       6.726   5.036  15.933  0.00  0.00    +0.000 A 
ATOM      5  C   UNL     1       5.658   4.172  15.773  0.00  0.00    +0.000 A 
ATOM      6  C   UNL     1       5.463   3.630  14.504  0.00  0.00    +0.000 A 
ATOM      7  C   UNL     1       6.329   3.975  13.456  0.00  0.00    +0.000 A 
ATOM      8  C   UNL     1       7.362   4.862  13.731  0.00  0.00    +0.000 A 
ATOM      9  N   UNL     1       7.586   5.394  14.951  0.00  0.00    +0.000 NA
BRANCH   7  10
ATOM     10  C   UNL     1       6.186   3.426  12.068  0.00  0.00    +0.000 C 
ATOM     11  F   UNL     1       6.378   2.079  12.000  0.00  0.00    +0.000 F 
ATOM     12  F   UNL     1       4.953   3.654  11.540  0.00  0.00    +0.000 F 
ATOM     13  F   UNL     1       7.076   3.973  11.197  0.00  0.00    +0.000 F 
ENDBRANCH   7  10
ENDBRANCH   1   4
BRANCH   1  14
ATOM     14  C   UNL     1       5.474   6.015  18.295  0.00  0.00    +0.000 C 
BRANCH  14  15
ATOM     15  C   UNL     1       5.286   5.090  19.484  0.00  0.00    +0.000 C 
BRANCH  15  18
ATOM     16  C   UNL     1       3.787   3.145  19.781  0.00  0.00    +0.000 C 
ATOM     17  O   UNL     1       4.731   2.378  19.945  0.00  0.00    +0.000 OA
ATOM     18  N   UNL     1       3.961   4.487  19.513  0.00  0.00    +0.000 N 
ATOM     19  H   UNL     1       3.155   5.073  19.341  0.00  0.00    +0.000 HD
BRANCH  16  21
ATOM     20  C   UNL     1       1.430   3.822  20.329  0.00  0.00    +0.000 C 
ATOM     21  C   UNL     1       2.327   2.691  19.822  0.00  0.00    +0.000 C 
ATOM     22  C   UNL     1       1.845   2.227  18.449  0.00  0.00    +0.000 C 
ENDBRANCH  16  21
ENDBRANCH  15  18
ENDBRANCH  14  15
ENDBRANCH   1  14
TORSDOF 6
ENDMDL
MODEL 9
REMARK VINA RESULT:      -7.5      1.004      1.788
REMARK  Name = 
REMARK  8 active torsions:
REMARK  status: ('A' for Active; 'I' for Inactive)
REMARK    1  A    between atoms: C_1  and  C_2
REMARK    2  A    between atoms: C_2  and  C_3
REMARK    3  A    between atoms: C_2  and  C_4
REMARK    4  A    between atoms: N_6  and  C_7
REMARK    5  A    between atoms: C_7  and  C_8
REMARK    6  A    between atoms: C_8  and  S_9
REMARK    7  A    between atoms: S_9  and  C_12
REMARK    8  A    between atoms: C_15  and  C_16
REMARK                            x       y       z     vdW  Elec       q    Type
REMARK                         _______ _______ _______ _____ _____    ______ ____
ROOT
ATOM      1  S   UNL     1       5.990   5.535  17.033  0.00  0.00    +0.000 S 
ATOM      2  O   UNL     1       7.124   4.748  17.480  0.00  0.00    +0.000 OA
ATOM      3  O   UNL     1       5.938   6.963  17.307  0.00  0.00    +0.000 OA
ENDROOT
BRANCH   1   4
ATOM      4  C   UNL     1       4.546   4.809  17.775  0.00  0.00    +0.000 A 
ATOM      5  C   UNL     1       3.680   4.040  17.018  0.00  0.00    +0.000 A 
ATOM      6  C   UNL     1       2.574   3.500  17.670  0.00  0.00    +0.000 A 
ATOM      7  C   UNL     1       2.383   3.741  19.039  0.00  0.00    +0.000 A 
ATOM      8  C   UNL     1       3.324   4.520  19.699  0.00  0.00    +0.000 A 
ATOM      9  N   UNL     1       4.399   5.068  19.094  0.00  0.00    +0.000 NA
BRANCH   7  10
ATOM     10  C   UNL     1       1.212   3.200  19.804  0.00  0.00    +0.000 C 
ATOM     11  F   UNL     1       1.571   2.365  20.819  0.00  0.00    +0.000 F 
ATOM     12  F   UNL     1       0.463   4.181  20.374  0.00  0.00    +0.000 F 
ATOM     13  F   UNL     1       0.362   2.486  19.018  0.00  0.00    +0.000 F 
ENDBRANCH   7  10
ENDBRANCH   1   4
BRANCH   1  14
ATOM     14  C   UNL     1       5.827   5.303  15.280  0.00  0.00    +0.000 C 
BRANCH  14  15
ATOM     15  C   UNL     1       6.604   4.095  14.789  0.00  0.00    +0.000 C 
BRANCH  15  18
ATOM     16  C   UNL     1       6.429   3.648  12.362  0.00  0.00    +0.000 C 
ATOM     17  O   UNL     1       7.350   4.418  12.103  0.00  0.00    +0.000 OA
ATOM     18  N   UNL     1       5.969   3.453  13.648  0.00  0.00    +0.000 N 
ATOM     19  H   UNL     1       5.178   2.843  13.810  0.00  0.00    +0.000 HD
BRANCH  16  21
ATOM     20  C   UNL     1       5.970   1.362  11.427  0.00  0.00    +0.000 C 
ATOM     21  C   UNL     1       5.677   2.857  11.292  0.00  0.00    +0.000 C 
ATOM     22  C   UNL     1       4.170   3.096  11.373  0.00  0.00    +0.000 C 
ENDBRANCH  16  21
ENDBRANCH  15  18
ENDBRANCH  14  15
ENDBRANCH   1  14
TORSDOF 6
ENDMDL
