MODEL 1
REMARK VINA RESULT:      -7.4      0.000      0.000
REMARK  Name = 
REMARK  10 active torsions:
REMARK  status: ('A' for Active; 'I' for Inactive)
REMARK    1  A    between atoms: C_1  and  C_2
REMARK    2  A    between atoms: C_2  and  C_3
REMARK    3  A    between atoms: C_3  and  N_4
REMARK    4  A    between atoms: C_5  and  C_6
REMARK    5  A    between atoms: C_6  and  O_7
REMARK    6  A    between atoms: O_7  and  C_8
REMARK    7  A    between atoms: C_11  and  C_12
REMARK    8  A    between atoms: C_12  and  O_14
REMARK    9  A    between atoms: O_14  and  C_15
REMARK   10  A    between atoms: C_15  and  C_16
REMARK                            x       y       z     vdW  Elec       q    Type
REMARK                         _______ _______ _______ _____ _____    ______ ____
ROOT
ATOM      1  C   UNL     1       2.091   8.208  18.328  0.00  0.00    +0.000 C 
ENDROOT
BRANCH   1   3
ATOM      2  N   UNL     1       0.695  10.018  19.498  0.00  0.00    +0.000 N 
ATOM      3  C   UNL     1       1.397   8.824  19.511  0.00  0.00    +0.000 A 
ATOM      4  C   UNL     1       1.265   8.299  20.786  0.00  0.00    +0.000 A 
ATOM      5  C   UNL     1       0.484   9.184  21.568  0.00  0.00    +0.000 A 
ATOM      6  C   UNL     1       0.032   9.156  22.903  0.00  0.00    +0.000 A 
ATOM      7  C   UNL     1      -0.748  10.207  23.388  0.00  0.00    +0.000 A 
ATOM      8  C   UNL     1      -1.082  11.276  22.562  0.00  0.00    +0.000 A 
ATOM      9  C   UNL     1      -0.648  11.320  21.232  0.00  0.00    +0.000 A 
ATOM     10  C   UNL     1       0.138  10.258  20.749  0.00  0.00    +0.000 A 
BRANCH   2  11
ATOM     11  C   UNL     1       0.482  10.892  18.348  0.00  0.00    +0.000 C 
BRANCH  11  13
ATOM     12  C   UNL     1      -1.575   9.811  17.357  0.00  0.00    +0.000 C 
ATOM     13  C   UNL     1      -0.995  11.064  17.998  0.00  0.00    +0.000 C 
ENDBRANCH  11  13
ENDBRANCH   2  11
ENDBRANCH   1   3
BRANCH   1  14
ATOM     14  O   UNL     1       2.453   6.871  18.703  0.00  0.00    +0.000 OA
BRANCH  14  15
ATOM     15  C   UNL     1       3.430   6.271  17.952  0.00  0.00    +0.000 A 
ATOM     16  C   UNL     1       3.659   4.897  17.899  0.00  0.00    +0.000 A 
ATOM     17  C   UNL     1       4.747   4.400  17.169  0.00  0.00    +0.000 A 
ATOM     18  C   UNL     1       5.600   5.270  16.480  0.00  0.00    +0.000 A 
ATOM     19  C   UNL     1       5.308   6.639  16.460  0.00  0.00    +0.000 A 
ATOM     20  C   UNL     1       4.221   7.132  17.191  0.00  0.00    +0.000 A 
BRANCH  18  21
ATOM     21  C   UNL     1       6.865   4.717  15.918  0.00  0.00    +0.000 C 
ATOM     22  O   UNL     1       7.822   4.390  16.601  0.00  0.00    +0.000 OA
BRANCH  21  23
ATOM     23  O   UNL     1       6.841   4.821  14.569  0.00  0.00    +0.000 OA
BRANCH  23  24
ATOM     24  C   UNL     1       6.050   3.837  13.885  0.00  0.00    +0.000 C 
ATOM     25  C   UNL     1       6.563   3.756  12.456  0.00  0.00    +0.000 C 
ENDBRANCH  23  24
ENDBRANCH  21  23
ENDBRANCH  18  21
ENDBRANCH  14  15
ENDBRANCH   1  14
TORSDOF 8
ENDMDL
MODEL 2
REMARK VINA RESULT:      -7.3      3.211      5.215
REMARK  Name = 
REMARK  10 active torsions:
REMARK  status: ('A' for Active; 'I' for Inactive)
REMARK    1  A    between atoms: C_1  and  C_2
REMARK    2  A    between atoms: C_2  and  C_3
REMARK    3  A    between atoms: C_3  and  N_4
REMARK    4  A    between atoms: C_5  and  C_6
REMARK    5  A    between atoms: C_6  and  O_7
REMARK    6  A    between atoms: O_7  and  C_8
REMARK    7  A    between atoms: C_11  and  C_12
REMARK    8  A    between atoms: C_12  and  O_14
REMARK    9  A    between atoms: O_14  and  C_15
REMARK   10  A    between atoms: C_15  and  C_16
REMARK                            x       y       z     vdW  Elec       q    Type
REMARK                         _______ _______ _______ _____ _____    ______ ____
ROOT
ATOM      1  C   UNL     1       5.720   6.122  17.977  0.00  0.00    +0.000 C 
ENDROOT
BRANCH   1   3
ATOM      2  N   UNL     1       3.310   5.583  18.683  0.00  0.00    +0.000 N 
ATOM      3  C   UNL     1       4.673   5.338  18.719  0.00  0.00    +0.000 A 
ATOM      4  C   UNL     1       4.853   4.209  19.501  0.00  0.00    +0.000 A 
ATOM      5  C   UNL     1       3.591   3.761  19.959  0.00  0.00    +0.000 A 
ATOM      6  C   UNL     1       3.179   2.679  20.761  0.00  0.00    +0.000 A 
ATOM      7  C   UNL     1       1.821   2.501  21.035  0.00  0.00    +0.000 A 
ATOM      8  C   UNL     1       0.877   3.383  20.517  0.00  0.00    +0.000 A 
ATOM      9  C   UNL     1       1.265   4.462  19.713  0.00  0.00    +0.000 A 
ATOM     10  C   UNL     1       2.634   4.635  19.442  0.00  0.00    +0.000 A 
BRANCH   2  11
ATOM     11  C   UNL     1       2.632   6.625  17.918  0.00  0.00    +0.000 C 
BRANCH  11  13
ATOM     12  C   UNL     1       1.931   9.052  17.886  0.00  0.00    +0.000 C 
ATOM     13  C   UNL     1       2.307   7.861  18.756  0.00  0.00    +0.000 C 
ENDBRANCH  11  13
ENDBRANCH   2  11
ENDBRANCH   1   3
BRANCH   1  14
ATOM     14  O   UNL     1       6.607   5.169  17.372  0.00  0.00    +0.000 OA
BRANCH  14  15
ATOM     15  C   UNL     1       6.306   4.785  16.091  0.00  0.00    +0.000 A 
ATOM     16  C   UNL     1       5.108   4.186  15.703  0.00  0.00    +0.000 A 
ATOM     17  C   UNL     1       4.944   3.749  14.382  0.00  0.00    +0.000 A 
ATOM     18  C   UNL     1       5.968   3.919  13.442  0.00  0.00    +0.000 A 
ATOM     19  C   UNL     1       7.130   4.606  13.816  0.00  0.00    +0.000 A 
ATOM     20  C   UNL     1       7.290   5.041  15.136  0.00  0.00    +0.000 A 
BRANCH  18  21
ATOM     21  C   UNL     1       5.836   3.233  12.125  0.00  0.00    +0.000 C 
ATOM     22  O   UNL     1       6.568   2.328  11.758  0.00  0.00    +0.000 OA
BRANCH  21  23
ATOM     23  O   UNL     1       4.931   3.891  11.365  0.00  0.00    +0.000 OA
BRANCH  23  24
ATOM     24  C   UNL     1       3.795   3.121  10.944  0.00  0.00    +0.000 C 
ATOM     25  C   UNL     1       3.064   3.931   9.886  0.00  0.00    +0.000 C 
ENDBRANCH  23  24
ENDBRANCH  21  23
ENDBRANCH  18  21
ENDBRANCH  14  15
ENDBRANCH   1  14
TORSDOF 8
ENDMDL
MODEL 3
REMARK VINA RESULT:      -7.2      2.743      8.622
REMARK  Name = 
REMARK  10 active torsions:
REMARK  status: ('A' for Active; 'I' for Inactive)
REMARK    1  A    between atoms: C_1  and  C_2
REMARK    2  A    between atoms: C_2  and  C_3
REMARK    3  A    between atoms: C_3  and  N_4
REMARK    4  A    between atoms: C_5  and  C_6
REMARK    5  A    between atoms: C_6  and  O_7
REMARK    6  A    between atoms: O_7  and  C_8
REMARK    7  A    between atoms: C_11  and  C_12
REMARK    8  A    between atoms: C_12  and  O_14
REMARK    9  A    between atoms: O_14  and  C_15
REMARK   10  A    between atoms: C_15  and  C_16
REMARK                            x       y       z     vdW  Elec       q    Type
REMARK                         _______ _______ _______ _____ _____    ______ ____
ROOT
ATOM      1  C   UNL     1       2.282   5.807  19.079  0.00  0.00    +0.000 C 
ENDROOT
BRANCH   1   3
ATOM      2  N   UNL     1       3.538   4.380  17.353  0.00  0.00    +0.000 N 
ATOM      3  C   UNL     1       3.435   5.496  18.166  0.00  0.00    +0.000 A 
ATOM      4  C   UNL     1       4.553   6.276  17.913  0.00  0.00    +0.000 A 
ATOM      5  C   UNL     1       5.355   5.628  16.943  0.00  0.00    +0.000 A 
ATOM      6  C   UNL     1       6.572   5.958  16.316  0.00  0.00    +0.000 A 
ATOM      7  C   UNL     1       7.118   5.087  15.370  0.00  0.00    +0.000 A 
ATOM      8  C   UNL     1       6.466   3.901  15.045  0.00  0.00    +0.000 A 
ATOM      9  C   UNL     1       5.253   3.558  15.654  0.00  0.00    +0.000 A 
ATOM     10  C   UNL     1       4.708   4.439  16.605  0.00  0.00    +0.000 A 
BRANCH   2  11
ATOM     11  C   UNL     1       2.554   3.310  17.213  0.00  0.00    +0.000 C 
BRANCH  11  13
ATOM     12  C   UNL     1       1.763   2.087  19.277  0.00  0.00    +0.000 C 
ATOM     13  C   UNL     1       2.804   2.144  18.168  0.00  0.00    +0.000 C 
ENDBRANCH  11  13
ENDBRANCH   2  11
ENDBRANCH   1   3
BRANCH   1  14
ATOM     14  O   UNL     1       2.656   6.959  19.850  0.00  0.00    +0.000 OA
BRANCH  14  15
ATOM     15  C   UNL     1       1.840   8.055  19.743  0.00  0.00    +0.000 A 
ATOM     16  C   UNL     1       1.097   8.597  20.791  0.00  0.00    +0.000 A 
ATOM     17  C   UNL     1       0.223   9.663  20.545  0.00  0.00    +0.000 A 
ATOM     18  C   UNL     1       0.097  10.200  19.258  0.00  0.00    +0.000 A 
ATOM     19  C   UNL     1       0.916   9.713  18.232  0.00  0.00    +0.000 A 
ATOM     20  C   UNL     1       1.787   8.647  18.481  0.00  0.00    +0.000 A 
BRANCH  18  21
ATOM     21  C   UNL     1      -1.008  11.169  19.004  0.00  0.00    +0.000 C 
ATOM     22  O   UNL     1      -0.993  12.327  19.387  0.00  0.00    +0.000 OA
BRANCH  21  23
ATOM     23  O   UNL     1      -2.066  10.514  18.472  0.00  0.00    +0.000 OA
BRANCH  23  24
ATOM     24  C   UNL     1      -2.575  11.053  17.242  0.00  0.00    +0.000 C 
ATOM     25  C   UNL     1      -2.503   9.950  16.199  0.00  0.00    +0.000 C 
ENDBRANCH  23  24
ENDBRANCH  21  23
ENDBRANCH  18  21
ENDBRANCH  14  15
ENDBRANCH   1  14
TORSDOF 8
ENDMDL
MODEL 4
REMARK VINA RESULT:      -7.1      2.982      9.401
REMARK  Name = 
REMARK  10 active torsions:
REMARK  status: ('A' for Active; 'I' for Inactive)
REMARK    1  A    between atoms: C_1  and  C_2
REMARK    2  A    between atoms: C_2  and  C_3
REMARK    3  A    between atoms: C_3  and  N_4
REMARK    4  A    between atoms: C_5  and  C_6
REMARK    5  A    between atoms: C_6  and  O_7
REMARK    6  A    between atoms: O_7  and  C_8
REMARK    7  A    between atoms: C_11  and  C_12
REMARK    8  A    between atoms: C_12  and  O_14
REMARK    9  A    between atoms: O_14  and  C_15
REMARK   10  A    between atoms: C_15  and  C_16
REMARK                            x       y       z     vdW  Elec       q    Type
REMARK                         _______ _______ _______ _____ _____    ______ ____
ROOT
ATOM      1  C   UNL     1       2.244   6.857  19.809  0.00  0.00    +0.000 C 
ENDROOT
BRANCH   1   3
ATOM      2  N   UNL     1       3.323   5.026  18.369  0.00  0.00    +0.000 N 
ATOM      3  C   UNL     1       3.135   6.355  18.707  0.00  0.00    +0.000 A 
ATOM      4  C   UNL     1       3.862   7.104  17.796  0.00  0.00    +0.000 A 
ATOM      5  C   UNL     1       4.512   6.226  16.895  0.00  0.00    +0.000 A 
ATOM      6  C   UNL     1       5.356   6.427  15.785  0.00  0.00    +0.000 A 
ATOM      7  C   UNL     1       5.842   5.323  15.080  0.00  0.00    +0.000 A 
ATOM      8  C   UNL     1       5.496   4.032  15.467  0.00  0.00    +0.000 A 
ATOM      9  C   UNL     1       4.654   3.811  16.564  0.00  0.00    +0.000 A 
ATOM     10  C   UNL     1       4.167   4.927  17.269  0.00  0.00    +0.000 A 
BRANCH   2  11
ATOM     11  C   UNL     1       2.691   3.869  18.997  0.00  0.00    +0.000 C 
BRANCH  11  13
ATOM     12  C   UNL     1       0.710   2.302  19.027  0.00  0.00    +0.000 C 
ATOM     13  C   UNL     1       1.404   3.440  18.293  0.00  0.00    +0.000 C 
ENDBRANCH  11  13
ENDBRANCH   2  11
ENDBRANCH   1   3
BRANCH   1  14
ATOM     14  O   UNL     1       1.636   8.069  19.339  0.00  0.00    +0.000 OA
BRANCH  14  15
ATOM     15  C   UNL     1       1.108   8.897  20.295  0.00  0.00    +0.000 A 
ATOM     16  C   UNL     1       0.848   8.522  21.613  0.00  0.00    +0.000 A 
ATOM     17  C   UNL     1       0.219   9.423  22.482  0.00  0.00    +0.000 A 
ATOM     18  C   UNL     1      -0.141  10.704  22.043  0.00  0.00    +0.000 A 
ATOM     19  C   UNL     1       0.209  11.105  20.748  0.00  0.00    +0.000 A 
ATOM     20  C   UNL     1       0.837  10.202  19.883  0.00  0.00    +0.000 A 
BRANCH  18  21
ATOM     21  C   UNL     1      -1.010  11.532  22.927  0.00  0.00    +0.000 C 
ATOM     22  O   UNL     1      -2.094  11.163  23.347  0.00  0.00    +0.000 OA
BRANCH  21  23
ATOM     23  O   UNL     1      -0.498  12.781  23.017  0.00  0.00    +0.000 OA
BRANCH  23  24
ATOM     24  C   UNL     1      -1.396  13.787  23.509  0.00  0.00    +0.000 C 
ATOM     25  C   UNL     1      -1.852  14.612  22.317  0.00  0.00    +0.000 C 
ENDBRANCH  23  24
ENDBRANCH  21  23
ENDBRANCH  18  21
ENDBRANCH  14  15
ENDBRANCH   1  14
TORSDOF 8
ENDMDL
MODEL 5
REMARK VINA RESULT:      -7.1      2.329      4.382
REMARK  Name = 
REMARK  10 active torsions:
REMARK  status: ('A' for Active; 'I' for Inactive)
REMARK    1  A    between atoms: C_1  and  C_2
REMARK    2  A    between atoms: C_2  and  C_3
REMARK    3  A    between atoms: C_3  and  N_4
REMARK    4  A    between atoms: C_5  and  C_6
REMARK    5  A    between atoms: C_6  and  O_7
REMARK    6  A    between atoms: O_7  and  C_8
REMARK    7  A    between atoms: C_11  and  C_12
REMARK    8  A    between atoms: C_12  and  O_14
REMARK    9  A    between atoms: O_14  and  C_15
REMARK   10  A    between atoms: C_15  and  C_16
REMARK                            x       y       z     vdW  Elec       q    Type
REMARK                         _______ _______ _______ _____ _____    ______ ____
ROOT
ATOM      1  C   UNL     1       3.939   4.247  18.727  0.00  0.00    +0.000 C 
ENDROOT
BRANCH   1   3
ATOM      2  N   UNL     1       2.430   5.983  19.869  0.00  0.00    +0.000 N 
ATOM      3  C   UNL     1       3.224   5.567  18.814  0.00  0.00    +0.000 A 
ATOM      4  C   UNL     1       3.278   6.622  17.917  0.00  0.00    +0.000 A 
ATOM      5  C   UNL     1       2.500   7.693  18.421  0.00  0.00    +0.000 A 
ATOM      6  C   UNL     1       2.210   8.987  17.946  0.00  0.00    +0.000 A 
ATOM      7  C   UNL     1       1.391   9.830  18.700  0.00  0.00    +0.000 A 
ATOM      8  C   UNL     1       0.865   9.400  19.915  0.00  0.00    +0.000 A 
ATOM      9  C   UNL     1       1.146   8.120  20.407  0.00  0.00    +0.000 A 
ATOM     10  C   UNL     1       1.972   7.275  19.643  0.00  0.00    +0.000 A 
BRANCH   2  11
ATOM     11  C   UNL     1       2.146   5.238  21.092  0.00  0.00    +0.000 C 
BRANCH  11  13
ATOM     12  C   UNL     1       1.776   2.782  21.555  0.00  0.00    +0.000 C 
ATOM     13  C   UNL     1       1.247   4.025  20.855  0.00  0.00    +0.000 C 
ENDBRANCH  11  13
ENDBRANCH   2  11
ENDBRANCH   1   3
BRANCH   1  14
ATOM     14  O   UNL     1       5.342   4.535  18.637  0.00  0.00    +0.000 OA
BRANCH  14  15
ATOM     15  C   UNL     1       5.898   4.469  17.386  0.00  0.00    +0.000 A 
ATOM     16  C   UNL     1       7.103   5.069  17.020  0.00  0.00    +0.000 A 
ATOM     17  C   UNL     1       7.530   5.015  15.688  0.00  0.00    +0.000 A 
ATOM     18  C   UNL     1       6.765   4.353  14.719  0.00  0.00    +0.000 A 
ATOM     19  C   UNL     1       5.607   3.673  15.113  0.00  0.00    +0.000 A 
ATOM     20  C   UNL     1       5.182   3.729  16.445  0.00  0.00    +0.000 A 
BRANCH  18  21
ATOM     21  C   UNL     1       7.142   4.524  13.287  0.00  0.00    +0.000 C 
ATOM     22  O   UNL     1       7.769   5.481  12.862  0.00  0.00    +0.000 OA
BRANCH  21  23
ATOM     23  O   UNL     1       6.526   3.576  12.544  0.00  0.00    +0.000 OA
BRANCH  23  24
ATOM     24  C   UNL     1       5.407   4.027  11.765  0.00  0.00    +0.000 C 
ATOM     25  C   UNL     1       4.535   2.815  11.481  0.00  0.00    +0.000 C 
ENDBRANCH  23  24
ENDBRANCH  21  23
ENDBRANCH  18  21
ENDBRANCH  14  15
ENDBRANCH   1  14
TORSDOF 8
ENDMDL
MODEL 6
REMARK VINA RESULT:      -7.1      2.660      8.968
REMARK  Name = 
REMARK  10 active torsions:
REMARK  status: ('A' for Active; 'I' for Inactive)
REMARK    1  A    between atoms: C_1  and  C_2
REMARK    2  A    between atoms: C_2  and  C_3
REMARK    3  A    between atoms: C_3  and  N_4
REMARK    4  A    between atoms: C_5  and  C_6
REMARK    5  A    between atoms: C_6  and  O_7
REMARK    6  A    between atoms: O_7  and  C_8
REMARK    7  A    between atoms: C_11  and  C_12
REMARK    8  A    between atoms: C_12  and  O_14
REMARK    9  A    between atoms: O_14  and  C_15
REMARK   10  A    between atoms: C_15  and  C_16
REMARK                            x       y       z     vdW  Elec       q    Type
REMARK                         _______ _______ _______ _____ _____    ______ ____
ROOT
ATOM      1  C   UNL     1       4.912   4.131  18.064  0.00  0.00    +0.000 C 
ENDROOT
BRANCH   1   3
ATOM      2  N   UNL     1       6.533   5.050  16.298  0.00  0.00    +0.000 N 
ATOM      3  C   UNL     1       5.461   4.256  16.670  0.00  0.00    +0.000 A 
ATOM      4  C   UNL     1       5.063   3.569  15.535  0.00  0.00    +0.000 A 
ATOM      5  C   UNL     1       5.891   3.951  14.453  0.00  0.00    +0.000 A 
ATOM      6  C   UNL     1       5.947   3.574  13.096  0.00  0.00    +0.000 A 
ATOM      7  C   UNL     1       6.911   4.145  12.262  0.00  0.00    +0.000 A 
ATOM      8  C   UNL     1       7.813   5.078  12.764  0.00  0.00    +0.000 A 
ATOM      9  C   UNL     1       7.777   5.462  14.110  0.00  0.00    +0.000 A 
ATOM     10  C   UNL     1       6.804   4.883  14.945  0.00  0.00    +0.000 A 
BRANCH   2  11
ATOM     11  C   UNL     1       7.337   5.897  17.174  0.00  0.00    +0.000 C 
BRANCH  11  13
ATOM     12  C   UNL     1       7.883   8.315  17.661  0.00  0.00    +0.000 C 
ATOM     13  C   UNL     1       6.793   7.320  17.287  0.00  0.00    +0.000 C 
ENDBRANCH  11  13
ENDBRANCH   2  11
ENDBRANCH   1   3
BRANCH   1  14
ATOM     14  O   UNL     1       3.498   4.365  17.980  0.00  0.00    +0.000 OA
BRANCH  14  15
ATOM     15  C   UNL     1       3.021   5.461  18.651  0.00  0.00    +0.000 A 
ATOM     16  C   UNL     1       2.507   5.437  19.947  0.00  0.00    +0.000 A 
ATOM     17  C   UNL     1       1.960   6.601  20.500  0.00  0.00    +0.000 A 
ATOM     18  C   UNL     1       1.936   7.796  19.769  0.00  0.00    +0.000 A 
ATOM     19  C   UNL     1       2.540   7.835  18.506  0.00  0.00    +0.000 A 
ATOM     20  C   UNL     1       3.084   6.669  17.956  0.00  0.00    +0.000 A 
BRANCH  18  21
ATOM     21  C   UNL     1       1.140   8.935  20.308  0.00  0.00    +0.000 C 
ATOM     22  O   UNL     1       1.012   9.166  21.499  0.00  0.00    +0.000 OA
BRANCH  21  23
ATOM     23  O   UNL     1       0.457   9.523  19.299  0.00  0.00    +0.000 OA
BRANCH  23  24
ATOM     24  C   UNL     1      -0.669  10.321  19.693  0.00  0.00    +0.000 C 
ATOM     25  C   UNL     1      -1.406  10.724  18.426  0.00  0.00    +0.000 C 
ENDBRANCH  23  24
ENDBRANCH  21  23
ENDBRANCH  18  21
ENDBRANCH  14  15
ENDBRANCH   1  14
TORSDOF 8
ENDMDL
MODEL 7
REMARK VINA RESULT:      -7.0      3.002      9.006
REMARK  Name = 
REMARK  10 active torsions:
REMARK  status: ('A' for Active; 'I' for Inactive)
REMARK    1  A    between atoms: C_1  and  C_2
REMARK    2  A    between atoms: C_2  and  C_3
REMARK    3  A    between atoms: C_3  and  N_4
REMARK    4  A    between atoms: C_5  and  C_6
REMARK    5  A    between atoms: C_6  and  O_7
REMARK    6  A    between atoms: O_7  and  C_8
REMARK    7  A    between atoms: C_11  and  C_12
REMARK    8  A    between atoms: C_12  and  O_14
REMARK    9  A    between atoms: O_14  and  C_15
REMARK   10  A    between atoms: C_15  and  C_16
REMARK                            x       y       z     vdW  Elec       q    Type
REMARK                         _______ _______ _______ _____ _____    ______ ____
ROOT
ATOM      1  C   UNL     1       2.192   7.343  19.429  0.00  0.00    +0.000 C 
ENDROOT
BRANCH   1   3
ATOM      2  N   UNL     1       3.289   5.302  18.322  0.00  0.00    +0.000 N 
ATOM      3  C   UNL     1       3.119   6.670  18.455  0.00  0.00    +0.000 A 
ATOM      4  C   UNL     1       3.905   7.265  17.482  0.00  0.00    +0.000 A 
ATOM      5  C   UNL     1       4.573   6.254  16.750  0.00  0.00    +0.000 A 
ATOM      6  C   UNL     1       5.472   6.276  15.665  0.00  0.00    +0.000 A 
ATOM      7  C   UNL     1       5.962   5.073  15.152  0.00  0.00    +0.000 A 
ATOM      8  C   UNL     1       5.567   3.859  15.704  0.00  0.00    +0.000 A 
ATOM      9  C   UNL     1       4.671   3.815  16.779  0.00  0.00    +0.000 A 
ATOM     10  C   UNL     1       4.180   5.030  17.291  0.00  0.00    +0.000 A 
BRANCH   2  11
ATOM     11  C   UNL     1       2.601   4.261  19.079  0.00  0.00    +0.000 C 
BRANCH  11  13
ATOM     12  C   UNL     1       0.937   2.377  18.828  0.00  0.00    +0.000 C 
ATOM     13  C   UNL     1       1.313   3.790  18.406  0.00  0.00    +0.000 C 
ENDBRANCH  11  13
ENDBRANCH   2  11
ENDBRANCH   1   3
BRANCH   1  14
ATOM     14  O   UNL     1       2.213   8.746  19.128  0.00  0.00    +0.000 OA
BRANCH  14  15
ATOM     15  C   UNL     1       0.995   9.366  19.029  0.00  0.00    +0.000 A 
ATOM     16  C   UNL     1       0.254   9.477  17.853  0.00  0.00    +0.000 A 
ATOM     17  C   UNL     1      -0.937  10.214  17.847  0.00  0.00    +0.000 A 
ATOM     18  C   UNL     1      -1.399  10.832  19.017  0.00  0.00    +0.000 A 
ATOM     19  C   UNL     1      -0.700  10.636  20.213  0.00  0.00    +0.000 A 
ATOM     20  C   UNL     1       0.490   9.900  20.215  0.00  0.00    +0.000 A 
BRANCH  18  21
ATOM     21  C   UNL     1      -2.536  11.790  18.904  0.00  0.00    +0.000 C 
ATOM     22  O   UNL     1      -2.930  12.482  19.829  0.00  0.00    +0.000 OA
BRANCH  21  23
ATOM     23  O   UNL     1      -3.150  11.620  17.711  0.00  0.00    +0.000 OA
BRANCH  23  24
ATOM     24  C   UNL     1      -4.462  11.039  17.764  0.00  0.00    +0.000 C 
ATOM     25  C   UNL     1      -5.446  12.098  17.295  0.00  0.00    +0.000 C 
ENDBRANCH  23  24
ENDBRANCH  21  23
ENDBRANCH  18  21
ENDBRANCH  14  15
ENDBRANCH   1  14
TORSDOF 8
ENDMDL
MODEL 8
REMARK VINA RESULT:      -7.0      2.127      3.808
REMARK  Name = 
REMARK  10 active torsions:
REMARK  status: ('A' for Active; 'I' for Inactive)
REMARK    1  A    between atoms: C_1  and  C_2
REMARK    2  A    between atoms: C_2  and  C_3
REMARK    3  A    between atoms: C_3  and  N_4
REMARK    4  A    between atoms: C_5  and  C_6
REMARK    5  A    between atoms: C_6  and  O_7
REMARK    6  A    between atoms: O_7  and  C_8
REMARK    7  A    between atoms: C_11  and  C_12
REMARK    8  A    between atoms: C_12  and  O_14
REMARK    9  A    between atoms: O_14  and  C_15
REMARK   10  A    between atoms: C_15  and  C_16
REMARK                            x       y       z     vdW  Elec       q    Type
REMARK                         _______ _______ _______ _____ _____    ______ ____
ROOT
ATOM      1  C   UNL     1       1.227   9.768  18.361  0.00  0.00    +0.000 C 
ENDROOT
BRANCH   1   3
ATOM      2  N   UNL     1      -0.704  11.171  19.307  0.00  0.00    +0.000 N 
ATOM      3  C   UNL     1      -0.200  10.237  18.418  0.00  0.00    +0.000 A 
ATOM      4  C   UNL     1      -1.241   9.891  17.572  0.00  0.00    +0.000 A 
ATOM      5  C   UNL     1      -2.399  10.612  17.950  0.00  0.00    +0.000 A 
ATOM      6  C   UNL     1      -3.715  10.664  17.450  0.00  0.00    +0.000 A 
ATOM      7  C   UNL     1      -4.651  11.504  18.058  0.00  0.00    +0.000 A 
ATOM      8  C   UNL     1      -4.290  12.287  19.150  0.00  0.00    +0.000 A 
ATOM      9  C   UNL     1      -2.986  12.254  19.659  0.00  0.00    +0.000 A 
ATOM     10  C   UNL     1      -2.048  11.406  19.042  0.00  0.00    +0.000 A 
BRANCH   2  11
ATOM     11  C   UNL     1       0.043  11.884  20.339  0.00  0.00    +0.000 C 
BRANCH  11  13
ATOM     12  C   UNL     1      -0.235  10.079  22.085  0.00  0.00    +0.000 C 
ATOM     13  C   UNL     1      -0.431  11.552  21.753  0.00  0.00    +0.000 C 
ENDBRANCH  11  13
ENDBRANCH   2  11
ENDBRANCH   1   3
BRANCH   1  14
ATOM     14  O   UNL     1       1.367   8.729  19.342  0.00  0.00    +0.000 OA
BRANCH  14  15
ATOM     15  C   UNL     1       2.261   7.732  19.048  0.00  0.00    +0.000 A 
ATOM     16  C   UNL     1       2.466   6.595  19.829  0.00  0.00    +0.000 A 
ATOM     17  C   UNL     1       3.473   5.685  19.483  0.00  0.00    +0.000 A 
ATOM     18  C   UNL     1       4.270   5.900  18.351  0.00  0.00    +0.000 A 
ATOM     19  C   UNL     1       3.995   6.993  17.520  0.00  0.00    +0.000 A 
ATOM     20  C   UNL     1       2.988   7.900  17.870  0.00  0.00    +0.000 A 
BRANCH  18  21
ATOM     21  C   UNL     1       5.469   5.035  18.160  0.00  0.00    +0.000 C 
ATOM     22  O   UNL     1       5.655   3.993  18.767  0.00  0.00    +0.000 OA
BRANCH  21  23
ATOM     23  O   UNL     1       6.366   5.678  17.377  0.00  0.00    +0.000 OA
BRANCH  23  24
ATOM     24  C   UNL     1       7.515   6.209  18.056  0.00  0.00    +0.000 C 
ATOM     25  C   UNL     1       7.664   7.659  17.628  0.00  0.00    +0.000 C 
ENDBRANCH  23  24
ENDBRANCH  21  23
ENDBRANCH  18  21
ENDBRANCH  14  15
ENDBRANCH   1  14
TORSDOF 8
ENDMDL
MODEL 9
REMARK VINA RESULT:      -7.0      3.241      9.615
REMARK  Name = 
REMARK  10 active torsions:
REMARK  status: ('A' for Active; 'I' for Inactive)
REMARK    1  A    between atoms: C_1  and  C_2
REMARK    2  A    between atoms: C_2  and  C_3
REMARK    3  A    between atoms: C_3  and  N_4
REMARK    4  A    between atoms: C_5  and  C_6
REMARK    5  A    between atoms: C_6  and  O_7
REMARK    6  A    between atoms: O_7  and  C_8
REMARK    7  A    between atoms: C_11  and  C_12
REMARK    8  A    between atoms: C_12  and  O_14
REMARK    9  A    between atoms: O_14  and  C_15
REMARK   10  A    between atoms: C_15  and  C_16
REMARK                            x       y       z     vdW  Elec       q    Type
REMARK                         _______ _______ _______ _____ _____    ______ ____
ROOT
ATOM      1  C   UNL     1       1.711   7.583  20.436  0.00  0.00    +0.000 C 
ENDROOT
BRANCH   1   3
ATOM      2  N   UNL     1       2.416   5.409  19.265  0.00  0.00    +0.000 N 
ATOM      3  C   UNL     1       2.502   6.780  19.441  0.00  0.00    +0.000 A 
ATOM      4  C   UNL     1       3.390   7.248  18.486  0.00  0.00    +0.000 A 
ATOM      5  C   UNL     1       3.862   6.154  17.722  0.00  0.00    +0.000 A 
ATOM      6  C   UNL     1       4.754   6.042  16.637  0.00  0.00    +0.000 A 
ATOM      7  C   UNL     1       5.016   4.786  16.086  0.00  0.00    +0.000 A 
ATOM      8  C   UNL     1       4.399   3.649  16.601  0.00  0.00    +0.000 A 
ATOM      9  C   UNL     1       3.506   3.739  17.675  0.00  0.00    +0.000 A 
ATOM     10  C   UNL     1       3.246   5.008  18.225  0.00  0.00    +0.000 A 
BRANCH   2  11
ATOM     11  C   UNL     1       1.543   4.491  19.990  0.00  0.00    +0.000 C 
BRANCH  11  13
ATOM     12  C   UNL     1       2.436   2.625  21.440  0.00  0.00    +0.000 C 
ATOM     13  C   UNL     1       2.094   4.106  21.362  0.00  0.00    +0.000 C 
ENDBRANCH  11  13
ENDBRANCH   2  11
ENDBRANCH   1   3
BRANCH   1  14
ATOM     14  O   UNL     1       1.323   8.799  19.780  0.00  0.00    +0.000 OA
BRANCH  14  15
ATOM     15  C   UNL     1       0.533   9.655  20.503  0.00  0.00    +0.000 A 
ATOM     16  C   UNL     1       0.137  10.922  20.076  0.00  0.00    +0.000 A 
ATOM     17  C   UNL     1      -0.594  11.750  20.937  0.00  0.00    +0.000 A 
ATOM     18  C   UNL     1      -0.944  11.312  22.221  0.00  0.00    +0.000 A 
ATOM     19  C   UNL     1      -0.625  10.005  22.606  0.00  0.00    +0.000 A 
ATOM     20  C   UNL     1       0.106   9.181  21.744  0.00  0.00    +0.000 A 
BRANCH  18  21
ATOM     21  C   UNL     1      -1.513  12.308  23.173  0.00  0.00    +0.000 C 
ATOM     22  O   UNL     1      -0.900  13.282  23.579  0.00  0.00    +0.000 OA
BRANCH  21  23
ATOM     23  O   UNL     1      -2.701  11.858  23.638  0.00  0.00    +0.000 OA
BRANCH  23  24
ATOM     24  C   UNL     1      -3.796  12.782  23.545  0.00  0.00    +0.000 C 
ATOM     25  C   UNL     1      -4.143  12.929  22.073  0.00  0.00    +0.000 C 
ENDBRANCH  23  24
ENDBRANCH  21  23
ENDBRANCH  18  21
ENDBRANCH  14  15
ENDBRANCH   1  14
TORSDOF 8
ENDMDL
