MODEL 1
REMARK VINA RESULT:      -9.4      0.000      0.000
REMARK  Name = 
REMARK  3 active torsions:
REMARK  status: ('A' for Active; 'I' for Inactive)
REMARK    1  A    between atoms: O_1  and  C_2
REMARK    2  A    between atoms: C_7  and  C_8
REMARK    3  A    between atoms: C_13  and  C_14
REMARK                            x       y       z     vdW  Elec       q    Type
REMARK                         _______ _______ _______ _____ _____    ______ ____
ROOT
ATOM      1  C   UNL     1       4.264   4.916  17.526  0.00  0.00    +0.000 A 
ATOM      2  N   UNL     1       5.470   4.602  16.969  0.00  0.00    +0.000 NA
ATOM      3  C   UNL     1       6.259   5.625  16.586  0.00  0.00    +0.000 A 
ATOM      4  C   UNL     1       5.863   6.937  16.693  0.00  0.00    +0.000 A 
ATOM      5  N   UNL     1       4.655   7.282  17.182  0.00  0.00    +0.000 NA
ATOM      6  C   UNL     1       3.838   6.270  17.612  0.00  0.00    +0.000 A 
ENDROOT
BRANCH   6   7
ATOM      7  C   UNL     1       2.495   6.817  18.251  0.00  0.00    +0.000 C 
ATOM      8  C   UNL     1       2.288   6.769  19.792  0.00  0.00    +0.000 C 
ATOM      9  N   UNL     1       1.794   8.093  19.708  0.00  0.00    +0.000 N 
ATOM     10  C   UNL     1       1.108   8.953  20.552  0.00  0.00    +0.000 A 
ATOM     11  C   UNL     1       0.970   8.656  21.899  0.00  0.00    +0.000 A 
ATOM     12  C   UNL     1       0.232   9.507  22.710  0.00  0.00    +0.000 A 
ATOM     13  C   UNL     1      -0.393  10.623  22.142  0.00  0.00    +0.000 A 
ATOM     14  C   UNL     1      -1.212  11.475  22.899  0.00  0.00    +0.000 A 
ATOM     15  C   UNL     1      -1.861  12.545  22.291  0.00  0.00    +0.000 A 
ATOM     16  C   UNL     1      -1.678  12.786  20.935  0.00  0.00    +0.000 A 
ATOM     17  C   UNL     1      -0.839  11.953  20.191  0.00  0.00    +0.000 A 
ATOM     18  C   UNL     1      -0.198  10.866  20.769  0.00  0.00    +0.000 A 
ATOM     19  N   UNL     1       0.556  10.060  20.008  0.00  0.00    +0.000 NA
ATOM     20  C   UNL     1       2.285   8.339  18.410  0.00  0.00    +0.000 C 
ENDBRANCH   6   7
BRANCH   1  26
ATOM     21  C   UNL     1       4.007   2.924  19.113  0.00  0.00    +0.000 A 
ATOM     22  C   UNL     1       3.199   1.967  19.745  0.00  0.00    +0.000 A 
ATOM     23  C   UNL     1       1.856   1.845  19.399  0.00  0.00    +0.000 A 
ATOM     24  C   UNL     1       1.360   2.593  18.346  0.00  0.00    +0.000 A 
ATOM     25  C   UNL     1       2.206   3.475  17.670  0.00  0.00    +0.000 A 
ATOM     26  C   UNL     1       3.510   3.767  18.099  0.00  0.00    +0.000 A 
BRANCH  21  27
ATOM     27  O   UNL     1       5.303   3.025  19.541  0.00  0.00    +0.000 OA
ATOM     28  H   UNL     1       5.634   3.904  19.297  0.00  0.00    +0.000 HD
ENDBRANCH  21  27
ENDBRANCH   1  26
TORSDOF 3
ENDMDL
MODEL 2
REMARK VINA RESULT:      -9.0      1.752      3.717
REMARK  Name = 
REMARK  3 active torsions:
REMARK  status: ('A' for Active; 'I' for Inactive)
REMARK    1  A    between atoms: O_1  and  C_2
REMARK    2  A    between atoms: C_7  and  C_8
REMARK    3  A    between atoms: C_13  and  C_14
REMARK                            x       y       z     vdW  Elec       q    Type
REMARK                         _______ _______ _______ _____ _____    ______ ____
ROOT
ATOM      1  C   UNL     1       4.177   3.753  18.495  0.00  0.00    +0.000 A 
ATOM      2  N   UNL     1       4.110   2.489  17.986  0.00  0.00    +0.000 NA
ATOM      3  C   UNL     1       2.963   1.806  18.176  0.00  0.00    +0.000 A 
ATOM      4  C   UNL     1       1.913   2.324  18.897  0.00  0.00    +0.000 A 
ATOM      5  N   UNL     1       1.967   3.545  19.464  0.00  0.00    +0.000 NA
ATOM      6  C   UNL     1       3.104   4.281  19.265  0.00  0.00    +0.000 A 
ENDROOT
BRANCH   6   7
ATOM      7  C   UNL     1       2.998   5.729  19.900  0.00  0.00    +0.000 C 
ATOM      8  C   UNL     1       2.784   6.969  18.987  0.00  0.00    +0.000 C 
ATOM      9  N   UNL     1       1.810   7.411  19.914  0.00  0.00    +0.000 N 
ATOM     10  C   UNL     1       1.123   8.593  20.146  0.00  0.00    +0.000 A 
ATOM     11  C   UNL     1       1.147   9.617  19.211  0.00  0.00    +0.000 A 
ATOM     12  C   UNL     1       0.496  10.809  19.492  0.00  0.00    +0.000 A 
ATOM     13  C   UNL     1      -0.134  10.969  20.731  0.00  0.00    +0.000 A 
ATOM     14  C   UNL     1      -0.744  12.180  21.099  0.00  0.00    +0.000 A 
ATOM     15  C   UNL     1      -1.314  12.322  22.360  0.00  0.00    +0.000 A 
ATOM     16  C   UNL     1      -1.304  11.254  23.249  0.00  0.00    +0.000 A 
ATOM     17  C   UNL     1      -0.722  10.042  22.869  0.00  0.00    +0.000 A 
ATOM     18  C   UNL     1      -0.126   9.882  21.626  0.00  0.00    +0.000 A 
ATOM     19  N   UNL     1       0.468   8.720  21.321  0.00  0.00    +0.000 NA
ATOM     20  C   UNL     1       1.683   6.174  20.579  0.00  0.00    +0.000 C 
ENDBRANCH   6   7
BRANCH   1  26
ATOM     21  C   UNL     1       5.697   4.892  16.778  0.00  0.00    +0.000 A 
ATOM     22  C   UNL     1       6.746   5.773  16.475  0.00  0.00    +0.000 A 
ATOM     23  C   UNL     1       7.499   6.344  17.497  0.00  0.00    +0.000 A 
ATOM     24  C   UNL     1       7.278   5.942  18.803  0.00  0.00    +0.000 A 
ATOM     25  C   UNL     1       6.289   4.995  19.074  0.00  0.00    +0.000 A 
ATOM     26  C   UNL     1       5.385   4.532  18.105  0.00  0.00    +0.000 A 
BRANCH  21  27
ATOM     27  O   UNL     1       4.964   4.411  15.727  0.00  0.00    +0.000 OA
ATOM     28  H   UNL     1       4.959   3.442  15.781  0.00  0.00    +0.000 HD
ENDBRANCH  21  27
ENDBRANCH   1  26
TORSDOF 3
ENDMDL
MODEL 3
REMARK VINA RESULT:      -8.9      1.245      2.276
REMARK  Name = 
REMARK  3 active torsions:
REMARK  status: ('A' for Active; 'I' for Inactive)
REMARK    1  A    between atoms: O_1  and  C_2
REMARK    2  A    between atoms: C_7  and  C_8
REMARK    3  A    between atoms: C_13  and  C_14
REMARK                            x       y       z     vdW  Elec       q    Type
REMARK                         _______ _______ _______ _____ _____    ______ ____
ROOT
ATOM      1  C   UNL     1       4.627   4.286  16.763  0.00  0.00    +0.000 A 
ATOM      2  N   UNL     1       5.160   3.336  15.941  0.00  0.00    +0.000 NA
ATOM      3  C   UNL     1       6.168   3.715  15.131  0.00  0.00    +0.000 A 
ATOM      4  C   UNL     1       6.620   5.013  15.080  0.00  0.00    +0.000 A 
ATOM      5  N   UNL     1       6.078   5.990  15.834  0.00  0.00    +0.000 NA
ATOM      6  C   UNL     1       5.072   5.635  16.694  0.00  0.00    +0.000 A 
ENDROOT
BRANCH   6   7
ATOM      7  C   UNL     1       4.592   6.853  17.587  0.00  0.00    +0.000 C 
ATOM      8  C   UNL     1       3.545   7.862  17.036  0.00  0.00    +0.000 C 
ATOM      9  N   UNL     1       2.892   7.779  18.289  0.00  0.00    +0.000 N 
ATOM     10  C   UNL     1       1.901   8.496  18.942  0.00  0.00    +0.000 A 
ATOM     11  C   UNL     1       1.135   9.426  18.255  0.00  0.00    +0.000 A 
ATOM     12  C   UNL     1       0.187  10.168  18.944  0.00  0.00    +0.000 A 
ATOM     13  C   UNL     1       0.053   9.992  20.326  0.00  0.00    +0.000 A 
ATOM     14  C   UNL     1      -0.837  10.769  21.086  0.00  0.00    +0.000 A 
ATOM     15  C   UNL     1      -0.905  10.606  22.466  0.00  0.00    +0.000 A 
ATOM     16  C   UNL     1      -0.110   9.654  23.091  0.00  0.00    +0.000 A 
ATOM     17  C   UNL     1       0.753   8.863  22.328  0.00  0.00    +0.000 A 
ATOM     18  C   UNL     1       0.858   9.022  20.954  0.00  0.00    +0.000 A 
ATOM     19  N   UNL     1       1.737   8.281  20.266  0.00  0.00    +0.000 NA
ATOM     20  C   UNL     1       3.566   6.617  18.717  0.00  0.00    +0.000 C 
ENDBRANCH   6   7
BRANCH   1  26
ATOM     21  C   UNL     1       4.006   3.232  19.012  0.00  0.00    +0.000 A 
ATOM     22  C   UNL     1       3.051   2.933  19.994  0.00  0.00    +0.000 A 
ATOM     23  C   UNL     1       1.704   3.206  19.769  0.00  0.00    +0.000 A 
ATOM     24  C   UNL     1       1.308   3.662  18.523  0.00  0.00    +0.000 A 
ATOM     25  C   UNL     1       2.266   3.866  17.529  0.00  0.00    +0.000 A 
ATOM     26  C   UNL     1       3.647   3.782  17.765  0.00  0.00    +0.000 A 
BRANCH  21  27
ATOM     27  O   UNL     1       5.316   2.987  19.323  0.00  0.00    +0.000 OA
ATOM     28  H   UNL     1       5.788   2.777  18.501  0.00  0.00    +0.000 HD
ENDBRANCH  21  27
ENDBRANCH   1  26
TORSDOF 3
ENDMDL
MODEL 4
REMARK VINA RESULT:      -8.9      1.533      3.548
REMARK  Name = 
REMARK  3 active torsions:
REMARK  status: ('A' for Active; 'I' for Inactive)
REMARK    1  A    between atoms: O_1  and  C_2
REMARK    2  A    between atoms: C_7  and  C_8
REMARK    3  A    between atoms: C_13  and  C_14
REMARK                            x       y       z     vdW  Elec       q    Type
REMARK                         _______ _______ _______ _____ _____    ______ ____
ROOT
ATOM      1  C   UNL     1       3.977   3.770  18.463  0.00  0.00    +0.000 A 
ATOM      2  N   UNL     1       3.905   2.472  18.046  0.00  0.00    +0.000 NA
ATOM      3  C   UNL     1       2.874   1.733  18.502  0.00  0.00    +0.000 A 
ATOM      4  C   UNL     1       1.953   2.230  19.393  0.00  0.00    +0.000 A 
ATOM      5  N   UNL     1       2.027   3.488  19.871  0.00  0.00    +0.000 NA
ATOM      6  C   UNL     1       3.043   4.279  19.406  0.00  0.00    +0.000 A 
ENDROOT
BRANCH   6   7
ATOM      7  C   UNL     1       2.956   5.757  19.972  0.00  0.00    +0.000 C 
ATOM      8  C   UNL     1       2.714   6.951  19.006  0.00  0.00    +0.000 C 
ATOM      9  N   UNL     1       1.769   7.440  19.940  0.00  0.00    +0.000 N 
ATOM     10  C   UNL     1       1.090   8.632  20.134  0.00  0.00    +0.000 A 
ATOM     11  C   UNL     1       1.085   9.609  19.149  0.00  0.00    +0.000 A 
ATOM     12  C   UNL     1       0.442  10.815  19.391  0.00  0.00    +0.000 A 
ATOM     13  C   UNL     1      -0.149  11.036  20.640  0.00  0.00    +0.000 A 
ATOM     14  C   UNL     1      -0.747  12.265  20.966  0.00  0.00    +0.000 A 
ATOM     15  C   UNL     1      -1.277  12.470  22.235  0.00  0.00    +0.000 A 
ATOM     16  C   UNL     1      -1.240  11.447  23.175  0.00  0.00    +0.000 A 
ATOM     17  C   UNL     1      -0.670  10.217  22.838  0.00  0.00    +0.000 A 
ATOM     18  C   UNL     1      -0.113   9.995  21.586  0.00  0.00    +0.000 A 
ATOM     19  N   UNL     1       0.471   8.818  21.321  0.00  0.00    +0.000 NA
ATOM     20  C   UNL     1       1.663   6.237  20.668  0.00  0.00    +0.000 C 
ENDBRANCH   6   7
BRANCH   1  26
ATOM     21  C   UNL     1       6.203   5.033  18.424  0.00  0.00    +0.000 A 
ATOM     22  C   UNL     1       7.237   5.657  17.711  0.00  0.00    +0.000 A 
ATOM     23  C   UNL     1       7.131   5.835  16.334  0.00  0.00    +0.000 A 
ATOM     24  C   UNL     1       5.947   5.499  15.700  0.00  0.00    +0.000 A 
ATOM     25  C   UNL     1       4.895   4.964  16.446  0.00  0.00    +0.000 A 
ATOM     26  C   UNL     1       5.021   4.596  17.794  0.00  0.00    +0.000 A 
BRANCH  21  27
ATOM     27  O   UNL     1       6.399   4.843  19.766  0.00  0.00    +0.000 OA
ATOM     28  H   UNL     1       7.116   4.199  19.877  0.00  0.00    +0.000 HD
ENDBRANCH  21  27
ENDBRANCH   1  26
TORSDOF 3
ENDMDL
MODEL 5
REMARK VINA RESULT:      -8.8      1.617      2.370
REMARK  Name = 
REMARK  3 active torsions:
REMARK  status: ('A' for Active; 'I' for Inactive)
REMARK    1  A    between atoms: O_1  and  C_2
REMARK    2  A    between atoms: C_7  and  C_8
REMARK    3  A    between atoms: C_13  and  C_14
REMARK                            x       y       z     vdW  Elec       q    Type
REMARK                         _______ _______ _______ _____ _____    ______ ____
ROOT
ATOM      1  C   UNL     1       3.778   4.418  17.655  0.00  0.00    +0.000 A 
ATOM      2  N   UNL     1       4.240   3.406  16.865  0.00  0.00    +0.000 NA
ATOM      3  C   UNL     1       5.181   3.716  15.951  0.00  0.00    +0.000 A 
ATOM      4  C   UNL     1       5.631   5.002  15.769  0.00  0.00    +0.000 A 
ATOM      5  N   UNL     1       5.154   6.036  16.490  0.00  0.00    +0.000 NA
ATOM      6  C   UNL     1       4.220   5.755  17.451  0.00  0.00    +0.000 A 
ENDROOT
BRANCH   6   7
ATOM      7  C   UNL     1       3.818   7.039  18.288  0.00  0.00    +0.000 C 
ATOM      8  C   UNL     1       3.014   8.188  17.616  0.00  0.00    +0.000 C 
ATOM      9  N   UNL     1       2.200   8.217  18.774  0.00  0.00    +0.000 N 
ATOM     10  C   UNL     1       1.252   9.080  19.300  0.00  0.00    +0.000 A 
ATOM     11  C   UNL     1       0.730  10.109  18.530  0.00  0.00    +0.000 A 
ATOM     12  C   UNL     1      -0.177  10.991  19.099  0.00  0.00    +0.000 A 
ATOM     13  C   UNL     1      -0.513  10.851  20.450  0.00  0.00    +0.000 A 
ATOM     14  C   UNL     1      -1.367  11.759  21.096  0.00  0.00    +0.000 A 
ATOM     15  C   UNL     1      -1.637  11.621  22.454  0.00  0.00    +0.000 A 
ATOM     16  C   UNL     1      -1.081  10.566  23.167  0.00  0.00    +0.000 A 
ATOM     17  C   UNL     1      -0.256   9.648  22.514  0.00  0.00    +0.000 A 
ATOM     18  C   UNL     1       0.048   9.776  21.166  0.00  0.00    +0.000 A 
ATOM     19  N   UNL     1       0.888   8.904  20.589  0.00  0.00    +0.000 NA
ATOM     20  C   UNL     1       2.630   6.971  19.273  0.00  0.00    +0.000 C 
ENDBRANCH   6   7
BRANCH   1  26
ATOM     21  C   UNL     1       1.513   3.700  18.606  0.00  0.00    +0.000 A 
ATOM     22  C   UNL     1       0.748   3.140  19.640  0.00  0.00    +0.000 A 
ATOM     23  C   UNL     1       1.340   2.834  20.863  0.00  0.00    +0.000 A 
ATOM     24  C   UNL     1       2.657   3.198  21.084  0.00  0.00    +0.000 A 
ATOM     25  C   UNL     1       3.374   3.837  20.071  0.00  0.00    +0.000 A 
ATOM     26  C   UNL     1       2.880   3.998  18.767  0.00  0.00    +0.000 A 
BRANCH  21  27
ATOM     27  O   UNL     1       0.878   3.924  17.414  0.00  0.00    +0.000 OA
ATOM     28  H   UNL     1       1.545   3.912  16.710  0.00  0.00    +0.000 HD
ENDBRANCH  21  27
ENDBRANCH   1  26
TORSDOF 3
ENDMDL
MODEL 6
REMARK VINA RESULT:      -8.5      3.469      8.506
REMARK  Name = 
REMARK  3 active torsions:
REMARK  status: ('A' for Active; 'I' for Inactive)
REMARK    1  A    between atoms: O_1  and  C_2
REMARK    2  A    between atoms: C_7  and  C_8
REMARK    3  A    between atoms: C_13  and  C_14
REMARK                            x       y       z     vdW  Elec       q    Type
REMARK                         _______ _______ _______ _____ _____    ______ ____
ROOT
ATOM      1  C   UNL     1      -0.584  12.356  18.582  0.00  0.00    +0.000 A 
ATOM      2  N   UNL     1      -0.477  13.708  18.737  0.00  0.00    +0.000 NA
ATOM      3  C   UNL     1       0.758  14.211  18.934  0.00  0.00    +0.000 A 
ATOM      4  C   UNL     1       1.870  13.409  19.032  0.00  0.00    +0.000 A 
ATOM      5  N   UNL     1       1.794  12.066  18.943  0.00  0.00    +0.000 NA
ATOM      6  C   UNL     1       0.560  11.520  18.711  0.00  0.00    +0.000 A 
ENDROOT
BRANCH   6   7
ATOM      7  C   UNL     1       0.626   9.947  18.531  0.00  0.00    +0.000 C 
ATOM      8  C   UNL     1       1.813   9.298  17.764  0.00  0.00    +0.000 C 
ATOM      9  N   UNL     1       1.880   8.335  18.800  0.00  0.00    +0.000 N 
ATOM     10  C   UNL     1       2.510   7.114  18.982  0.00  0.00    +0.000 A 
ATOM     11  C   UNL     1       3.497   6.693  18.103  0.00  0.00    +0.000 A 
ATOM     12  C   UNL     1       4.072   5.442  18.277  0.00  0.00    +0.000 A 
ATOM     13  C   UNL     1       3.613   4.615  19.308  0.00  0.00    +0.000 A 
ATOM     14  C   UNL     1       4.107   3.312  19.484  0.00  0.00    +0.000 A 
ATOM     15  C   UNL     1       3.590   2.498  20.486  0.00  0.00    +0.000 A 
ATOM     16  C   UNL     1       2.601   2.983  21.333  0.00  0.00    +0.000 A 
ATOM     17  C   UNL     1       2.134   4.290  21.173  0.00  0.00    +0.000 A 
ATOM     18  C   UNL     1       2.616   5.115  20.167  0.00  0.00    +0.000 A 
ATOM     19  N   UNL     1       2.102   6.344  20.014  0.00  0.00    +0.000 NA
ATOM     20  C   UNL     1       1.084   9.060  19.710  0.00  0.00    +0.000 C 
ENDBRANCH   6   7
BRANCH   1  26
ATOM     21  C   UNL     1      -3.089  12.009  18.981  0.00  0.00    +0.000 A 
ATOM     22  C   UNL     1      -4.366  11.693  18.496  0.00  0.00    +0.000 A 
ATOM     23  C   UNL     1      -4.530  11.251  17.187  0.00  0.00    +0.000 A 
ATOM     24  C   UNL     1      -3.409  11.013  16.410  0.00  0.00    +0.000 A 
ATOM     25  C   UNL     1      -2.140  11.248  16.944  0.00  0.00    +0.000 A 
ATOM     26  C   UNL     1      -1.934  11.866  18.186  0.00  0.00    +0.000 A 
BRANCH  21  27
ATOM     27  O   UNL     1      -3.009  12.490  20.260  0.00  0.00    +0.000 OA
ATOM     28  H   UNL     1      -2.080  12.698  20.447  0.00  0.00    +0.000 HD
ENDBRANCH  21  27
ENDBRANCH   1  26
TORSDOF 3
ENDMDL
MODEL 7
REMARK VINA RESULT:      -8.3      1.728      2.149
REMARK  Name = 
REMARK  3 active torsions:
REMARK  status: ('A' for Active; 'I' for Inactive)
REMARK    1  A    between atoms: O_1  and  C_2
REMARK    2  A    between atoms: C_7  and  C_8
REMARK    3  A    between atoms: C_13  and  C_14
REMARK                            x       y       z     vdW  Elec       q    Type
REMARK                         _______ _______ _______ _____ _____    ______ ____
ROOT
ATOM      1  C   UNL     1       3.730   5.016  18.347  0.00  0.00    +0.000 A 
ATOM      2  N   UNL     1       4.874   4.320  18.084  0.00  0.00    +0.000 NA
ATOM      3  C   UNL     1       5.848   4.965  17.410  0.00  0.00    +0.000 A 
ATOM      4  C   UNL     1       5.694   6.251  16.951  0.00  0.00    +0.000 A 
ATOM      5  N   UNL     1       4.555   6.948  17.141  0.00  0.00    +0.000 NA
ATOM      6  C   UNL     1       3.555   6.337  17.850  0.00  0.00    +0.000 A 
ENDROOT
BRANCH   6   7
ATOM      7  C   UNL     1       2.316   7.296  18.084  0.00  0.00    +0.000 C 
ATOM      8  C   UNL     1       1.838   7.616  19.529  0.00  0.00    +0.000 C 
ATOM      9  N   UNL     1       1.738   8.972  19.134  0.00  0.00    +0.000 N 
ATOM     10  C   UNL     1       1.169  10.121  19.661  0.00  0.00    +0.000 A 
ATOM     11  C   UNL     1       0.724  10.148  20.974  0.00  0.00    +0.000 A 
ATOM     12  C   UNL     1       0.110  11.294  21.459  0.00  0.00    +0.000 A 
ATOM     13  C   UNL     1      -0.086  12.381  20.601  0.00  0.00    +0.000 A 
ATOM     14  C   UNL     1      -0.768  13.536  21.017  0.00  0.00    +0.000 A 
ATOM     15  C   UNL     1      -0.993  14.577  20.121  0.00  0.00    +0.000 A 
ATOM     16  C   UNL     1      -0.518  14.485  18.819  0.00  0.00    +0.000 A 
ATOM     17  C   UNL     1       0.185  13.346  18.417  0.00  0.00    +0.000 A 
ATOM     18  C   UNL     1       0.403  12.285  19.284  0.00  0.00    +0.000 A 
ATOM     19  N   UNL     1       1.035  11.188  18.843  0.00  0.00    +0.000 NA
ATOM     20  C   UNL     1       2.495   8.825  17.954  0.00  0.00    +0.000 C 
ENDBRANCH   6   7
BRANCH   1  26
ATOM     21  C   UNL     1       1.609   3.655  18.798  0.00  0.00    +0.000 A 
ATOM     22  C   UNL     1       0.822   2.875  19.659  0.00  0.00    +0.000 A 
ATOM     23  C   UNL     1       1.184   2.723  20.994  0.00  0.00    +0.000 A 
ATOM     24  C   UNL     1       2.257   3.444  21.489  0.00  0.00    +0.000 A 
ATOM     25  C   UNL     1       2.972   4.286  20.634  0.00  0.00    +0.000 A 
ATOM     26  C   UNL     1       2.762   4.329  19.248  0.00  0.00    +0.000 A 
BRANCH  21  27
ATOM     27  O   UNL     1       1.223   3.716  17.486  0.00  0.00    +0.000 OA
ATOM     28  H   UNL     1       0.978   2.821  17.202  0.00  0.00    +0.000 HD
ENDBRANCH  21  27
ENDBRANCH   1  26
TORSDOF 3
ENDMDL
MODEL 8
REMARK VINA RESULT:      -8.2      0.949      1.313
REMARK  Name = 
REMARK  3 active torsions:
REMARK  status: ('A' for Active; 'I' for Inactive)
REMARK    1  A    between atoms: O_1  and  C_2
REMARK    2  A    between atoms: C_7  and  C_8
REMARK    3  A    between atoms: C_13  and  C_14
REMARK                            x       y       z     vdW  Elec       q    Type
REMARK                         _______ _______ _______ _____ _____    ______ ____
ROOT
ATOM      1  C   UNL     1       4.467   4.956  17.550  0.00  0.00    +0.000 A 
ATOM      2  N   UNL     1       5.659   4.721  16.929  0.00  0.00    +0.000 NA
ATOM      3  C   UNL     1       6.310   5.785  16.419  0.00  0.00    +0.000 A 
ATOM      4  C   UNL     1       5.787   7.056  16.463  0.00  0.00    +0.000 A 
ATOM      5  N   UNL     1       4.585   7.316  17.015  0.00  0.00    +0.000 NA
ATOM      6  C   UNL     1       3.909   6.264  17.573  0.00  0.00    +0.000 A 
ENDROOT
BRANCH   6   7
ATOM      7  C   UNL     1       2.562   6.723  18.271  0.00  0.00    +0.000 C 
ATOM      8  C   UNL     1       2.449   6.730  19.821  0.00  0.00    +0.000 C 
ATOM      9  N   UNL     1       1.835   8.001  19.713  0.00  0.00    +0.000 N 
ATOM     10  C   UNL     1       1.125   8.838  20.560  0.00  0.00    +0.000 A 
ATOM     11  C   UNL     1       1.092   8.594  21.925  0.00  0.00    +0.000 A 
ATOM     12  C   UNL     1       0.329   9.416  22.743  0.00  0.00    +0.000 A 
ATOM     13  C   UNL     1      -0.424  10.445  22.168  0.00  0.00    +0.000 A 
ATOM     14  C   UNL     1      -1.271  11.259  22.938  0.00  0.00    +0.000 A 
ATOM     15  C   UNL     1      -2.046  12.238  22.326  0.00  0.00    +0.000 A 
ATOM     16  C   UNL     1      -1.964  12.430  20.953  0.00  0.00    +0.000 A 
ATOM     17  C   UNL     1      -1.098  11.638  20.194  0.00  0.00    +0.000 A 
ATOM     18  C   UNL     1      -0.331  10.639  20.776  0.00  0.00    +0.000 A 
ATOM     19  N   UNL     1       0.446   9.866  20.005  0.00  0.00    +0.000 NA
ATOM     20  C   UNL     1       2.227   8.227  18.377  0.00  0.00    +0.000 C 
ENDBRANCH   6   7
BRANCH   1  26
ATOM     21  C   UNL     1       2.748   3.076  17.797  0.00  0.00    +0.000 A 
ATOM     22  C   UNL     1       2.332   1.877  18.395  0.00  0.00    +0.000 A 
ATOM     23  C   UNL     1       3.053   1.335  19.455  0.00  0.00    +0.000 A 
ATOM     24  C   UNL     1       4.110   2.052  19.988  0.00  0.00    +0.000 A 
ATOM     25  C   UNL     1       4.451   3.288  19.435  0.00  0.00    +0.000 A 
ATOM     26  C   UNL     1       3.876   3.785  18.256  0.00  0.00    +0.000 A 
BRANCH  21  27
ATOM     27  O   UNL     1       2.023   3.521  16.725  0.00  0.00    +0.000 OA
ATOM     28  H   UNL     1       1.135   3.132  16.778  0.00  0.00    +0.000 HD
ENDBRANCH  21  27
ENDBRANCH   1  26
TORSDOF 3
ENDMDL
