MODEL 1
REMARK VINA RESULT:      -8.7      0.000      0.000
REMARK  Name = 
REMARK  7 active torsions:
REMARK  status: ('A' for Active; 'I' for Inactive)
REMARK    1  A    between atoms: C_1  and  O_2
REMARK    2  A    between atoms: O_2  and  C_3
REMARK    3  A    between atoms: C_5  and  C_6
REMARK    4  A    between atoms: C_11  and  C_12
REMARK    5  A    between atoms: C_17  and  C_18
REMARK    6  A    between atoms: C_26  and  N_27
REMARK    7  A    between atoms: C_30  and  C_31
REMARK                            x       y       z     vdW  Elec       q    Type
REMARK                         _______ _______ _______ _____ _____    ______ ____
ROOT
ATOM      1  C   UNL     1       2.346   6.681  19.744  0.00  0.00    +0.000 A 
ATOM      2  C   UNL     1       1.653   5.483  19.875  0.00  0.00    +0.000 A 
ATOM      3  N   UNL     1       2.593   4.551  19.661  0.00  0.00    +0.000 N 
ATOM      4  C   UNL     1       3.780   5.148  19.391  0.00  0.00    +0.000 A 
ATOM      5  N   UNL     1       3.685   6.453  19.441  0.00  0.00    +0.000 NA
ATOM      6  C   UNL     1       4.859   4.154  19.145  0.00  0.00    +0.000 C 
ATOM      7  C   UNL     1       4.093   2.792  19.276  0.00  0.00    +0.000 C 
ATOM      8  C   UNL     1       2.635   3.108  19.659  0.00  0.00    +0.000 C 
ENDROOT
BRANCH   1  11
ATOM      9  C   UNL     1       1.027   9.627  21.410  0.00  0.00    +0.000 A 
ATOM     10  N   UNL     1       1.510   8.380  21.201  0.00  0.00    +0.000 NA
ATOM     11  C   UNL     1       1.762   8.001  19.925  0.00  0.00    +0.000 A 
ATOM     12  C   UNL     1       1.511   8.825  18.838  0.00  0.00    +0.000 A 
ATOM     13  C   UNL     1       0.981  10.095  19.067  0.00  0.00    +0.000 A 
ATOM     14  C   UNL     1       0.742  10.523  20.379  0.00  0.00    +0.000 A 
BRANCH  14  15
ATOM     15  N   UNL     1       0.293  11.850  20.617  0.00  0.00    +0.000 N 
ATOM     16  C   UNL     1       1.051  12.977  20.847  0.00  0.00    +0.000 A 
ATOM     17  N   UNL     1       0.326  14.071  20.942  0.00  0.00    +0.000 NA
ATOM     18  C   UNL     1      -0.965  13.659  20.779  0.00  0.00    +0.000 A 
ATOM     19  C   UNL     1      -2.076  14.636  20.819  0.00  0.00    +0.000 C 
ATOM     20  C   UNL     1      -1.014  12.296  20.592  0.00  0.00    +0.000 A 
ENDBRANCH  14  15
BRANCH   9  22
ATOM     21  C   UNL     1      -0.556   9.482  23.115  0.00  0.00    +0.000 C 
ATOM     22  O   UNL     1       0.727   9.956  22.711  0.00  0.00    +0.000 OA
ENDBRANCH   9  22
ENDBRANCH   1  11
BRANCH   6  23
ATOM     23  C   UNL     1       5.549   4.313  17.798  0.00  0.00    +0.000 A 
ATOM     24  C   UNL     1       4.883   3.814  16.651  0.00  0.00    +0.000 A 
ATOM     25  C   UNL     1       5.461   3.854  15.383  0.00  0.00    +0.000 A 
ATOM     26  C   UNL     1       6.724   4.397  15.221  0.00  0.00    +0.000 A 
ATOM     27  C   UNL     1       7.390   4.923  16.324  0.00  0.00    +0.000 A 
ATOM     28  C   UNL     1       6.820   4.910  17.622  0.00  0.00    +0.000 A 
BRANCH  28  29
ATOM     29  C   UNL     1       7.672   5.559  18.699  0.00  0.00    +0.000 C 
ATOM     30  F   UNL     1       8.766   4.870  19.110  0.00  0.00    +0.000 F 
ATOM     31  F   UNL     1       8.145   6.775  18.298  0.00  0.00    +0.000 F 
ATOM     32  F   UNL     1       6.957   5.807  19.834  0.00  0.00    +0.000 F 
ENDBRANCH  28  29
ENDBRANCH   6  23
TORSDOF 5
ENDMDL
MODEL 2
REMARK VINA RESULT:      -8.7      1.071      1.756
REMARK  Name = 
REMARK  7 active torsions:
REMARK  status: ('A' for Active; 'I' for Inactive)
REMARK    1  A    between atoms: C_1  and  O_2
REMARK    2  A    between atoms: O_2  and  C_3
REMARK    3  A    between atoms: C_5  and  C_6
REMARK    4  A    between atoms: C_11  and  C_12
REMARK    5  A    between atoms: C_17  and  C_18
REMARK    6  A    between atoms: C_26  and  N_27
REMARK    7  A    between atoms: C_30  and  C_31
REMARK                            x       y       z     vdW  Elec       q    Type
REMARK                         _______ _______ _______ _____ _____    ______ ____
ROOT
ATOM      1  C   UNL     1       2.310   6.515  19.858  0.00  0.00    +0.000 A 
ATOM      2  C   UNL     1       1.615   5.311  19.878  0.00  0.00    +0.000 A 
ATOM      3  N   UNL     1       2.552   4.403  19.567  0.00  0.00    +0.000 N 
ATOM      4  C   UNL     1       3.738   5.022  19.347  0.00  0.00    +0.000 A 
ATOM      5  N   UNL     1       3.646   6.315  19.523  0.00  0.00    +0.000 NA
ATOM      6  C   UNL     1       4.812   4.054  18.998  0.00  0.00    +0.000 C 
ATOM      7  C   UNL     1       4.045   2.687  19.003  0.00  0.00    +0.000 C 
ATOM      8  C   UNL     1       2.591   2.967  19.427  0.00  0.00    +0.000 C 
ENDROOT
BRANCH   1  11
ATOM      9  C   UNL     1       1.040   9.885  19.385  0.00  0.00    +0.000 A 
ATOM     10  N   UNL     1       1.633   8.693  19.145  0.00  0.00    +0.000 NA
ATOM     11  C   UNL     1       1.730   7.812  20.169  0.00  0.00    +0.000 A 
ATOM     12  C   UNL     1       1.278   8.103  21.448  0.00  0.00    +0.000 A 
ATOM     13  C   UNL     1       0.700   9.349  21.689  0.00  0.00    +0.000 A 
ATOM     14  C   UNL     1       0.559  10.265  20.638  0.00  0.00    +0.000 A 
BRANCH  14  15
ATOM     15  N   UNL     1      -0.116  11.495  20.861  0.00  0.00    +0.000 N 
ATOM     16  C   UNL     1       0.420  12.704  21.246  0.00  0.00    +0.000 A 
ATOM     17  N   UNL     1      -0.471  13.672  21.278  0.00  0.00    +0.000 NA
ATOM     18  C   UNL     1      -1.647  13.088  20.910  0.00  0.00    +0.000 A 
ATOM     19  C   UNL     1      -2.890  13.887  20.826  0.00  0.00    +0.000 C 
ATOM     20  C   UNL     1      -1.461  11.746  20.663  0.00  0.00    +0.000 A 
ENDBRANCH  14  15
BRANCH   9  22
ATOM     21  C   UNL     1       2.252  11.463  18.170  0.00  0.00    +0.000 C 
ATOM     22  O   UNL     1       1.013  10.776  18.338  0.00  0.00    +0.000 OA
ENDBRANCH   9  22
ENDBRANCH   1  11
BRANCH   6  23
ATOM     23  C   UNL     1       5.493   4.341  17.667  0.00  0.00    +0.000 A 
ATOM     24  C   UNL     1       4.836   3.920  16.484  0.00  0.00    +0.000 A 
ATOM     25  C   UNL     1       5.406   4.079  15.223  0.00  0.00    +0.000 A 
ATOM     26  C   UNL     1       6.654   4.666  15.103  0.00  0.00    +0.000 A 
ATOM     27  C   UNL     1       7.311   5.119  16.244  0.00  0.00    +0.000 A 
ATOM     28  C   UNL     1       6.747   4.984  17.538  0.00  0.00    +0.000 A 
BRANCH  28  29
ATOM     29  C   UNL     1       7.586   5.566  18.663  0.00  0.00    +0.000 C 
ATOM     30  F   UNL     1       6.963   5.755  19.853  0.00  0.00    +0.000 F 
ATOM     31  F   UNL     1       8.663   4.775  18.944  0.00  0.00    +0.000 F 
ATOM     32  F   UNL     1       8.108   6.783  18.333  0.00  0.00    +0.000 F 
ENDBRANCH  28  29
ENDBRANCH   6  23
TORSDOF 5
ENDMDL
MODEL 3
REMARK VINA RESULT:      -8.7      0.550      1.053
REMARK  Name = 
REMARK  7 active torsions:
REMARK  status: ('A' for Active; 'I' for Inactive)
REMARK    1  A    between atoms: C_1  and  O_2
REMARK    2  A    between atoms: O_2  and  C_3
REMARK    3  A    between atoms: C_5  and  C_6
REMARK    4  A    between atoms: C_11  and  C_12
REMARK    5  A    between atoms: C_17  and  C_18
REMARK    6  A    between atoms: C_26  and  N_27
REMARK    7  A    between atoms: C_30  and  C_31
REMARK                            x       y       z     vdW  Elec       q    Type
REMARK                         _______ _______ _______ _____ _____    ______ ____
ROOT
ATOM      1  C   UNL     1       2.351   6.696  19.747  0.00  0.00    +0.000 A 
ATOM      2  C   UNL     1       1.663   5.497  19.891  0.00  0.00    +0.000 A 
ATOM      3  N   UNL     1       2.604   4.566  19.673  0.00  0.00    +0.000 N 
ATOM      4  C   UNL     1       3.787   5.165  19.389  0.00  0.00    +0.000 A 
ATOM      5  N   UNL     1       3.688   6.469  19.433  0.00  0.00    +0.000 NA
ATOM      6  C   UNL     1       4.866   4.172  19.140  0.00  0.00    +0.000 C 
ATOM      7  C   UNL     1       4.105   2.809  19.285  0.00  0.00    +0.000 C 
ATOM      8  C   UNL     1       2.649   3.123  19.679  0.00  0.00    +0.000 C 
ENDROOT
BRANCH   1  11
ATOM      9  C   UNL     1       1.026   9.642  21.407  0.00  0.00    +0.000 A 
ATOM     10  N   UNL     1       1.511   8.396  21.200  0.00  0.00    +0.000 NA
ATOM     11  C   UNL     1       1.765   8.015  19.925  0.00  0.00    +0.000 A 
ATOM     12  C   UNL     1       1.515   8.837  18.837  0.00  0.00    +0.000 A 
ATOM     13  C   UNL     1       0.983  10.107  19.063  0.00  0.00    +0.000 A 
ATOM     14  C   UNL     1       0.741  10.536  20.375  0.00  0.00    +0.000 A 
BRANCH  14  15
ATOM     15  N   UNL     1       0.291  11.863  20.610  0.00  0.00    +0.000 N 
ATOM     16  C   UNL     1      -1.006  12.318  20.702  0.00  0.00    +0.000 A 
ATOM     17  N   UNL     1      -1.080  13.594  21.017  0.00  0.00    +0.000 NA
ATOM     18  C   UNL     1       0.215  14.009  21.131  0.00  0.00    +0.000 A 
ATOM     19  C   UNL     1       0.526  15.411  21.487  0.00  0.00    +0.000 C 
ATOM     20  C   UNL     1       1.078  12.968  20.871  0.00  0.00    +0.000 A 
ENDBRANCH  14  15
BRANCH   9  22
ATOM     21  C   UNL     1      -0.538   9.455  23.126  0.00  0.00    +0.000 C 
ATOM     22  O   UNL     1       0.724   9.972  22.707  0.00  0.00    +0.000 OA
ENDBRANCH   9  22
ENDBRANCH   1  11
BRANCH   6  23
ATOM     23  C   UNL     1       5.544   4.325  17.786  0.00  0.00    +0.000 A 
ATOM     24  C   UNL     1       4.871   3.817  16.648  0.00  0.00    +0.000 A 
ATOM     25  C   UNL     1       5.437   3.851  15.375  0.00  0.00    +0.000 A 
ATOM     26  C   UNL     1       6.697   4.397  15.199  0.00  0.00    +0.000 A 
ATOM     27  C   UNL     1       7.371   4.933  16.294  0.00  0.00    +0.000 A 
ATOM     28  C   UNL     1       6.812   4.926  17.596  0.00  0.00    +0.000 A 
BRANCH  28  29
ATOM     29  C   UNL     1       7.670   5.585  18.662  0.00  0.00    +0.000 C 
ATOM     30  F   UNL     1       8.191   6.801  18.360  0.00  0.00    +0.000 F 
ATOM     31  F   UNL     1       6.973   5.772  19.821  0.00  0.00    +0.000 F 
ATOM     32  F   UNL     1       8.740   4.811  19.005  0.00  0.00    +0.000 F 
ENDBRANCH  28  29
ENDBRANCH   6  23
TORSDOF 5
ENDMDL
MODEL 4
REMARK VINA RESULT:      -8.6      1.182      1.774
REMARK  Name = 
REMARK  7 active torsions:
REMARK  status: ('A' for Active; 'I' for Inactive)
REMARK    1  A    between atoms: C_1  and  O_2
REMARK    2  A    between atoms: O_2  and  C_3
REMARK    3  A    between atoms: C_5  and  C_6
REMARK    4  A    between atoms: C_11  and  C_12
REMARK    5  A    between atoms: C_17  and  C_18
REMARK    6  A    between atoms: C_26  and  N_27
REMARK    7  A    between atoms: C_30  and  C_31
REMARK                            x       y       z     vdW  Elec       q    Type
REMARK                         _______ _______ _______ _____ _____    ______ ____
ROOT
ATOM      1  C   UNL     1       2.287   6.471  19.944  0.00  0.00    +0.000 A 
ATOM      2  C   UNL     1       1.648   5.241  20.052  0.00  0.00    +0.000 A 
ATOM      3  N   UNL     1       2.619   4.357  19.779  0.00  0.00    +0.000 N 
ATOM      4  C   UNL     1       3.772   5.013  19.497  0.00  0.00    +0.000 A 
ATOM      5  N   UNL     1       3.625   6.310  19.596  0.00  0.00    +0.000 NA
ATOM      6  C   UNL     1       4.883   4.074  19.186  0.00  0.00    +0.000 C 
ATOM      7  C   UNL     1       4.178   2.677  19.290  0.00  0.00    +0.000 C 
ATOM      8  C   UNL     1       2.720   2.919  19.725  0.00  0.00    +0.000 C 
ENDROOT
BRANCH   1  11
ATOM      9  C   UNL     1       0.992   9.807  19.321  0.00  0.00    +0.000 A 
ATOM     10  N   UNL     1       1.629   8.625  19.148  0.00  0.00    +0.000 NA
ATOM     11  C   UNL     1       1.655   7.759  20.188  0.00  0.00    +0.000 A 
ATOM     12  C   UNL     1       1.087   8.053  21.419  0.00  0.00    +0.000 A 
ATOM     13  C   UNL     1       0.464   9.288  21.593  0.00  0.00    +0.000 A 
ATOM     14  C   UNL     1       0.396  10.189  20.522  0.00  0.00    +0.000 A 
BRANCH  14  15
ATOM     15  N   UNL     1      -0.322  11.406  20.670  0.00  0.00    +0.000 N 
ATOM     16  C   UNL     1      -1.559  11.733  20.158  0.00  0.00    +0.000 A 
ATOM     17  N   UNL     1      -1.981  12.914  20.556  0.00  0.00    +0.000 NA
ATOM     18  C   UNL     1      -0.988  13.399  21.356  0.00  0.00    +0.000 A 
ATOM     19  C   UNL     1      -1.119  14.725  21.999  0.00  0.00    +0.000 C 
ATOM     20  C   UNL     1       0.051  12.498  21.431  0.00  0.00    +0.000 A 
ENDBRANCH  14  15
BRANCH   9  22
ATOM     21  C   UNL     1       2.221  11.482  18.263  0.00  0.00    +0.000 C 
ATOM     22  O   UNL     1       1.038  10.685  18.264  0.00  0.00    +0.000 OA
ENDBRANCH   9  22
ENDBRANCH   1  11
BRANCH   6  23
ATOM     23  C   UNL     1       5.526   4.307  17.827  0.00  0.00    +0.000 A 
ATOM     24  C   UNL     1       4.834   3.847  16.680  0.00  0.00    +0.000 A 
ATOM     25  C   UNL     1       5.369   3.955  15.398  0.00  0.00    +0.000 A 
ATOM     26  C   UNL     1       6.616   4.531  15.221  0.00  0.00    +0.000 A 
ATOM     27  C   UNL     1       7.307   5.022  16.326  0.00  0.00    +0.000 A 
ATOM     28  C   UNL     1       6.779   4.938  17.639  0.00  0.00    +0.000 A 
BRANCH  28  29
ATOM     29  C   UNL     1       7.652   5.556  18.717  0.00  0.00    +0.000 C 
ATOM     30  F   UNL     1       8.751   4.852  19.090  0.00  0.00    +0.000 F 
ATOM     31  F   UNL     1       8.123   6.780  18.340  0.00  0.00    +0.000 F 
ATOM     32  F   UNL     1       6.958   5.776  19.871  0.00  0.00    +0.000 F 
ENDBRANCH  28  29
ENDBRANCH   6  23
TORSDOF 5
ENDMDL
MODEL 5
REMARK VINA RESULT:      -8.5      1.027      1.259
REMARK  Name = 
REMARK  7 active torsions:
REMARK  status: ('A' for Active; 'I' for Inactive)
REMARK    1  A    between atoms: C_1  and  O_2
REMARK    2  A    between atoms: O_2  and  C_3
REMARK    3  A    between atoms: C_5  and  C_6
REMARK    4  A    between atoms: C_11  and  C_12
REMARK    5  A    between atoms: C_17  and  C_18
REMARK    6  A    between atoms: C_26  and  N_27
REMARK    7  A    between atoms: C_30  and  C_31
REMARK                            x       y       z     vdW  Elec       q    Type
REMARK                         _______ _______ _______ _____ _____    ______ ____
ROOT
ATOM      1  C   UNL     1       2.556   6.886  19.360  0.00  0.00    +0.000 A 
ATOM      2  C   UNL     1       2.099   5.642  19.781  0.00  0.00    +0.000 A 
ATOM      3  N   UNL     1       3.138   4.828  19.542  0.00  0.00    +0.000 N 
ATOM      4  C   UNL     1       4.156   5.531  18.987  0.00  0.00    +0.000 A 
ATOM      5  N   UNL     1       3.854   6.799  18.865  0.00  0.00    +0.000 NA
ATOM      6  C   UNL     1       5.335   4.671  18.703  0.00  0.00    +0.000 C 
ATOM      7  C   UNL     1       4.835   3.257  19.159  0.00  0.00    +0.000 C 
ATOM      8  C   UNL     1       3.418   3.426  19.741  0.00  0.00    +0.000 C 
ENDROOT
BRANCH   1  11
ATOM      9  C   UNL     1       0.871   9.756  20.813  0.00  0.00    +0.000 A 
ATOM     10  N   UNL     1       1.521   8.576  20.695  0.00  0.00    +0.000 NA
ATOM     11  C   UNL     1       1.795   8.122  19.448  0.00  0.00    +0.000 A 
ATOM     12  C   UNL     1       1.405   8.803  18.304  0.00  0.00    +0.000 A 
ATOM     13  C   UNL     1       0.705  10.001  18.442  0.00  0.00    +0.000 A 
ATOM     14  C   UNL     1       0.438  10.507  19.720  0.00  0.00    +0.000 A 
BRANCH  14  15
ATOM     15  N   UNL     1      -0.189  11.775  19.860  0.00  0.00    +0.000 N 
ATOM     16  C   UNL     1      -1.534  12.054  19.957  0.00  0.00    +0.000 A 
ATOM     17  N   UNL     1      -1.779  13.330  20.167  0.00  0.00    +0.000 NA
ATOM     18  C   UNL     1      -0.553  13.928  20.202  0.00  0.00    +0.000 A 
ATOM     19  C   UNL     1      -0.433  15.385  20.430  0.00  0.00    +0.000 C 
ATOM     20  C   UNL     1       0.441  12.997  20.001  0.00  0.00    +0.000 A 
ENDBRANCH  14  15
BRANCH   9  22
ATOM     21  C   UNL     1      -0.421   9.317  22.704  0.00  0.00    +0.000 C 
ATOM     22  O   UNL     1       0.557  10.155  22.091  0.00  0.00    +0.000 OA
ENDBRANCH   9  22
ENDBRANCH   1  11
BRANCH   6  23
ATOM     23  C   UNL     1       5.780   4.695  17.248  0.00  0.00    +0.000 A 
ATOM     24  C   UNL     1       5.255   3.706  16.379  0.00  0.00    +0.000 A 
ATOM     25  C   UNL     1       5.650   3.604  15.047  0.00  0.00    +0.000 A 
ATOM     26  C   UNL     1       6.583   4.492  14.538  0.00  0.00    +0.000 A 
ATOM     27  C   UNL     1       7.094   5.495  15.358  0.00  0.00    +0.000 A 
ATOM     28  C   UNL     1       6.698   5.630  16.712  0.00  0.00    +0.000 A 
BRANCH  28  29
ATOM     29  C   UNL     1       7.329   6.801  17.447  0.00  0.00    +0.000 C 
ATOM     30  F   UNL     1       8.021   6.510  18.577  0.00  0.00    +0.000 F 
ATOM     31  F   UNL     1       8.209   7.476  16.651  0.00  0.00    +0.000 F 
ATOM     32  F   UNL     1       6.400   7.727  17.823  0.00  0.00    +0.000 F 
ENDBRANCH  28  29
ENDBRANCH   6  23
TORSDOF 5
ENDMDL
MODEL 6
REMARK VINA RESULT:      -8.5      1.111      1.487
REMARK  Name = 
REMARK  7 active torsions:
REMARK  status: ('A' for Active; 'I' for Inactive)
REMARK    1  A    between atoms: C_1  and  O_2
REMARK    2  A    between atoms: O_2  and  C_3
REMARK    3  A    between atoms: C_5  and  C_6
REMARK    4  A    between atoms: C_11  and  C_12
REMARK    5  A    between atoms: C_17  and  C_18
REMARK    6  A    between atoms: C_26  and  N_27
REMARK    7  A    between atoms: C_30  and  C_31
REMARK                            x       y       z     vdW  Elec       q    Type
REMARK                         _______ _______ _______ _____ _____    ______ ____
ROOT
ATOM      1  C   UNL     1       2.335   6.601  18.664  0.00  0.00    +0.000 A 
ATOM      2  C   UNL     1       1.519   5.492  18.471  0.00  0.00    +0.000 A 
ATOM      3  N   UNL     1       2.386   4.511  18.179  0.00  0.00    +0.000 N 
ATOM      4  C   UNL     1       3.650   5.002  18.170  0.00  0.00    +0.000 A 
ATOM      5  N   UNL     1       3.674   6.275  18.472  0.00  0.00    +0.000 NA
ATOM      6  C   UNL     1       4.652   3.950  17.850  0.00  0.00    +0.000 C 
ATOM      7  C   UNL     1       3.749   2.690  17.616  0.00  0.00    +0.000 C 
ATOM      8  C   UNL     1       2.289   3.101  17.890  0.00  0.00    +0.000 C 
ENDROOT
BRANCH   1  11
ATOM      9  C   UNL     1       1.176   9.341  20.748  0.00  0.00    +0.000 A 
ATOM     10  N   UNL     1       1.558   8.105  20.350  0.00  0.00    +0.000 NA
ATOM     11  C   UNL     1       1.861   7.924  19.043  0.00  0.00    +0.000 A 
ATOM     12  C   UNL     1       1.760   8.940  18.104  0.00  0.00    +0.000 A 
ATOM     13  C   UNL     1       1.332  10.200  18.523  0.00  0.00    +0.000 A 
ATOM     14  C   UNL     1       1.044  10.422  19.876  0.00  0.00    +0.000 A 
BRANCH  14  15
ATOM     15  N   UNL     1       0.701  11.728  20.319  0.00  0.00    +0.000 N 
ATOM     16  C   UNL     1      -0.555  12.258  20.518  0.00  0.00    +0.000 A 
ATOM     17  N   UNL     1      -0.523  13.474  21.019  0.00  0.00    +0.000 NA
ATOM     18  C   UNL     1       0.802  13.772  21.152  0.00  0.00    +0.000 A 
ATOM     19  C   UNL     1       1.227  15.079  21.700  0.00  0.00    +0.000 C 
ATOM     20  C   UNL     1       1.576  12.722  20.714  0.00  0.00    +0.000 A 
ENDBRANCH  14  15
BRANCH   9  22
ATOM     21  C   UNL     1      -0.470   8.931  22.347  0.00  0.00    +0.000 C 
ATOM     22  O   UNL     1       0.819   9.474  22.069  0.00  0.00    +0.000 OA
ENDBRANCH   9  22
ENDBRANCH   1  11
BRANCH   6  23
ATOM     23  C   UNL     1       5.527   4.277  16.649  0.00  0.00    +0.000 A 
ATOM     24  C   UNL     1       5.022   3.974  15.360  0.00  0.00    +0.000 A 
ATOM     25  C   UNL     1       5.773   4.175  14.203  0.00  0.00    +0.000 A 
ATOM     26  C   UNL     1       7.055   4.689  14.298  0.00  0.00    +0.000 A 
ATOM     27  C   UNL     1       7.568   5.026  15.549  0.00  0.00    +0.000 A 
ATOM     28  C   UNL     1       6.820   4.846  16.739  0.00  0.00    +0.000 A 
BRANCH  28  29
ATOM     29  C   UNL     1       7.522   5.301  18.007  0.00  0.00    +0.000 C 
ATOM     30  F   UNL     1       6.759   5.396  19.126  0.00  0.00    +0.000 F 
ATOM     31  F   UNL     1       8.545   4.461  18.342  0.00  0.00    +0.000 F 
ATOM     32  F   UNL     1       8.097   6.529  17.859  0.00  0.00    +0.000 F 
ENDBRANCH  28  29
ENDBRANCH   6  23
TORSDOF 5
ENDMDL
MODEL 7
REMARK VINA RESULT:      -8.4      1.198      1.841
REMARK  Name = 
REMARK  7 active torsions:
REMARK  status: ('A' for Active; 'I' for Inactive)
REMARK    1  A    between atoms: C_1  and  O_2
REMARK    2  A    between atoms: O_2  and  C_3
REMARK    3  A    between atoms: C_5  and  C_6
REMARK    4  A    between atoms: C_11  and  C_12
REMARK    5  A    between atoms: C_17  and  C_18
REMARK    6  A    between atoms: C_26  and  N_27
REMARK    7  A    between atoms: C_30  and  C_31
REMARK                            x       y       z     vdW  Elec       q    Type
REMARK                         _______ _______ _______ _____ _____    ______ ____
ROOT
ATOM      1  C   UNL     1       2.334   6.498  19.887  0.00  0.00    +0.000 A 
ATOM      2  C   UNL     1       1.619   5.307  19.846  0.00  0.00    +0.000 A 
ATOM      3  N   UNL     1       2.535   4.403  19.468  0.00  0.00    +0.000 N 
ATOM      4  C   UNL     1       3.728   5.014  19.267  0.00  0.00    +0.000 A 
ATOM      5  N   UNL     1       3.661   6.296  19.522  0.00  0.00    +0.000 NA
ATOM      6  C   UNL     1       4.781   4.052  18.845  0.00  0.00    +0.000 C 
ATOM      7  C   UNL     1       3.990   2.699  18.780  0.00  0.00    +0.000 C 
ATOM      8  C   UNL     1       2.546   2.978  19.241  0.00  0.00    +0.000 C 
ENDROOT
BRANCH   1  11
ATOM      9  C   UNL     1       0.817   9.788  19.619  0.00  0.00    +0.000 A 
ATOM     10  N   UNL     1       1.394   8.610  19.284  0.00  0.00    +0.000 NA
ATOM     11  C   UNL     1       1.781   7.784  20.285  0.00  0.00    +0.000 A 
ATOM     12  C   UNL     1       1.638   8.115  21.624  0.00  0.00    +0.000 A 
ATOM     13  C   UNL     1       1.073   9.347  21.954  0.00  0.00    +0.000 A 
ATOM     14  C   UNL     1       0.635  10.206  20.937  0.00  0.00    +0.000 A 
BRANCH  14  15
ATOM     15  N   UNL     1      -0.028  11.416  21.274  0.00  0.00    +0.000 N 
ATOM     16  C   UNL     1      -1.260  11.575  21.871  0.00  0.00    +0.000 A 
ATOM     17  N   UNL     1      -1.546  12.834  22.127  0.00  0.00    +0.000 NA
ATOM     18  C   UNL     1      -0.470  13.544  21.677  0.00  0.00    +0.000 A 
ATOM     19  C   UNL     1      -0.435  15.017  21.807  0.00  0.00    +0.000 C 
ATOM     20  C   UNL     1       0.470  12.697  21.135  0.00  0.00    +0.000 A 
ENDBRANCH  14  15
BRANCH   9  22
ATOM     21  C   UNL     1      -0.794  10.348  18.031  0.00  0.00    +0.000 C 
ATOM     22  O   UNL     1       0.492  10.626  18.579  0.00  0.00    +0.000 OA
ENDBRANCH   9  22
ENDBRANCH   1  11
BRANCH   6  23
ATOM     23  C   UNL     1       5.447   4.406  17.524  0.00  0.00    +0.000 A 
ATOM     24  C   UNL     1       4.782   4.040  16.328  0.00  0.00    +0.000 A 
ATOM     25  C   UNL     1       5.340   4.262  15.070  0.00  0.00    +0.000 A 
ATOM     26  C   UNL     1       6.584   4.862  14.968  0.00  0.00    +0.000 A 
ATOM     27  C   UNL     1       7.249   5.262  16.125  0.00  0.00    +0.000 A 
ATOM     28  C   UNL     1       6.697   5.062  17.415  0.00  0.00    +0.000 A 
BRANCH  28  29
ATOM     29  C   UNL     1       7.543   5.592  18.559  0.00  0.00    +0.000 C 
ATOM     30  F   UNL     1       8.099   6.819  18.390  0.00  0.00    +0.000 F 
ATOM     31  F   UNL     1       6.822   5.683  19.715  0.00  0.00    +0.000 F 
ATOM     32  F   UNL     1       8.587   4.762  18.850  0.00  0.00    +0.000 F 
ENDBRANCH  28  29
ENDBRANCH   6  23
TORSDOF 5
ENDMDL
MODEL 8
REMARK VINA RESULT:      -7.9      4.838     10.069
REMARK  Name = 
REMARK  7 active torsions:
REMARK  status: ('A' for Active; 'I' for Inactive)
REMARK    1  A    between atoms: C_1  and  O_2
REMARK    2  A    between atoms: O_2  and  C_3
REMARK    3  A    between atoms: C_5  and  C_6
REMARK    4  A    between atoms: C_11  and  C_12
REMARK    5  A    between atoms: C_17  and  C_18
REMARK    6  A    between atoms: C_26  and  N_27
REMARK    7  A    between atoms: C_30  and  C_31
REMARK                            x       y       z     vdW  Elec       q    Type
REMARK                         _______ _______ _______ _____ _____    ______ ____
ROOT
ATOM      1  C   UNL     1       1.160  10.002  18.929  0.00  0.00    +0.000 A 
ATOM      2  C   UNL     1       1.686  11.227  18.534  0.00  0.00    +0.000 A 
ATOM      3  N   UNL     1       0.700  12.095  18.804  0.00  0.00    +0.000 N 
ATOM      4  C   UNL     1      -0.370  11.434  19.310  0.00  0.00    +0.000 A 
ATOM      5  N   UNL     1      -0.135  10.151  19.417  0.00  0.00    +0.000 NA
ATOM      6  C   UNL     1      -1.493  12.355  19.627  0.00  0.00    +0.000 C 
ATOM      7  C   UNL     1      -0.923  13.745  19.175  0.00  0.00    +0.000 C 
ATOM      8  C   UNL     1       0.524  13.523  18.693  0.00  0.00    +0.000 C 
ENDROOT
BRANCH   1  11
ATOM      9  C   UNL     1       2.263   6.665  19.842  0.00  0.00    +0.000 A 
ATOM     10  N   UNL     1       1.667   7.878  19.898  0.00  0.00    +0.000 NA
ATOM     11  C   UNL     1       1.871   8.735  18.869  0.00  0.00    +0.000 A 
ATOM     12  C   UNL     1       2.688   8.427  17.792  0.00  0.00    +0.000 A 
ATOM     13  C   UNL     1       3.323   7.185  17.765  0.00  0.00    +0.000 A 
ATOM     14  C   UNL     1       3.102   6.268  18.801  0.00  0.00    +0.000 A 
BRANCH  14  15
ATOM     15  N   UNL     1       3.671   4.969  18.726  0.00  0.00    +0.000 N 
ATOM     16  C   UNL     1       4.882   4.539  19.222  0.00  0.00    +0.000 A 
ATOM     17  N   UNL     1       5.072   3.247  19.060  0.00  0.00    +0.000 NA
ATOM     18  C   UNL     1       3.951   2.797  18.425  0.00  0.00    +0.000 A 
ATOM     19  C   UNL     1       3.805   1.366  18.080  0.00  0.00    +0.000 C 
ATOM     20  C   UNL     1       3.080   3.838  18.194  0.00  0.00    +0.000 A 
ENDBRANCH  14  15
BRANCH   9  22
ATOM     21  C   UNL     1       1.119   4.820  20.693  0.00  0.00    +0.000 C 
ATOM     22  O   UNL     1       2.082   5.845  20.931  0.00  0.00    +0.000 OA
ENDBRANCH   9  22
ENDBRANCH   1  11
BRANCH   6  23
ATOM     23  C   UNL     1      -2.798  12.001  18.928  0.00  0.00    +0.000 A 
ATOM     24  C   UNL     1      -2.720  11.393  17.651  0.00  0.00    +0.000 A 
ATOM     25  C   UNL     1      -3.857  11.090  16.904  0.00  0.00    +0.000 A 
ATOM     26  C   UNL     1      -5.111  11.384  17.412  0.00  0.00    +0.000 A 
ATOM     27  C   UNL     1      -5.221  11.953  18.678  0.00  0.00    +0.000 A 
ATOM     28  C   UNL     1      -4.082  12.257  19.466  0.00  0.00    +0.000 A 
BRANCH  28  29
ATOM     29  C   UNL     1      -4.391  12.840  20.834  0.00  0.00    +0.000 C 
ATOM     30  F   UNL     1      -3.795  12.245  21.899  0.00  0.00    +0.000 F 
ATOM     31  F   UNL     1      -4.031  14.154  20.911  0.00  0.00    +0.000 F 
ATOM     32  F   UNL     1      -5.727  12.815  21.110  0.00  0.00    +0.000 F 
ENDBRANCH  28  29
ENDBRANCH   6  23
TORSDOF 5
ENDMDL
MODEL 9
REMARK VINA RESULT:      -7.7      1.355      1.512
REMARK  Name = 
REMARK  7 active torsions:
REMARK  status: ('A' for Active; 'I' for Inactive)
REMARK    1  A    between atoms: C_1  and  O_2
REMARK    2  A    between atoms: O_2  and  C_3
REMARK    3  A    between atoms: C_5  and  C_6
REMARK    4  A    between atoms: C_11  and  C_12
REMARK    5  A    between atoms: C_17  and  C_18
REMARK    6  A    between atoms: C_26  and  N_27
REMARK    7  A    between atoms: C_30  and  C_31
REMARK                            x       y       z     vdW  Elec       q    Type
REMARK                         _______ _______ _______ _____ _____    ______ ____
ROOT
ATOM      1  C   UNL     1       2.490   6.973  18.391  0.00  0.00    +0.000 A 
ATOM      2  C   UNL     1       1.709   5.823  18.381  0.00  0.00    +0.000 A 
ATOM      3  N   UNL     1       2.590   4.847  18.117  0.00  0.00    +0.000 N 
ATOM      4  C   UNL     1       3.827   5.376  17.952  0.00  0.00    +0.000 A 
ATOM      5  N   UNL     1       3.822   6.673  18.121  0.00  0.00    +0.000 NA
ATOM      6  C   UNL     1       4.843   4.330  17.656  0.00  0.00    +0.000 C 
ATOM      7  C   UNL     1       3.978   3.023  17.628  0.00  0.00    +0.000 C 
ATOM      8  C   UNL     1       2.529   3.411  17.982  0.00  0.00    +0.000 C 
ENDROOT
BRANCH   1  11
ATOM      9  C   UNL     1       0.929   9.726  20.173  0.00  0.00    +0.000 A 
ATOM     10  N   UNL     1       1.348   8.480  19.851  0.00  0.00    +0.000 NA
ATOM     11  C   UNL     1       1.993   8.311  18.672  0.00  0.00    +0.000 A 
ATOM     12  C   UNL     1       2.206   9.352  17.781  0.00  0.00    +0.000 A 
ATOM     13  C   UNL     1       1.739  10.624  18.112  0.00  0.00    +0.000 A 
ATOM     14  C   UNL     1       1.096  10.832  19.339  0.00  0.00    +0.000 A 
BRANCH  14  15
ATOM     15  N   UNL     1       0.707  12.145  19.718  0.00  0.00    +0.000 N 
ATOM     16  C   UNL     1       1.036  12.834  20.864  0.00  0.00    +0.000 A 
ATOM     17  N   UNL     1       0.582  14.069  20.867  0.00  0.00    +0.000 NA
ATOM     18  C   UNL     1      -0.082  14.209  19.683  0.00  0.00    +0.000 A 
ATOM     19  C   UNL     1      -0.729  15.492  19.331  0.00  0.00    +0.000 C 
ATOM     20  C   UNL     1      -0.034  13.036  18.965  0.00  0.00    +0.000 A 
ENDBRANCH  14  15
BRANCH   9  22
ATOM     21  C   UNL     1      -0.298   8.604  21.808  0.00  0.00    +0.000 C 
ATOM     22  O   UNL     1       0.225   9.849  21.348  0.00  0.00    +0.000 OA
ENDBRANCH   9  22
ENDBRANCH   1  11
BRANCH   6  23
ATOM     23  C   UNL     1       5.604   4.559  16.359  0.00  0.00    +0.000 A 
ATOM     24  C   UNL     1       5.211   3.811  15.221  0.00  0.00    +0.000 A 
ATOM     25  C   UNL     1       5.886   3.902  14.005  0.00  0.00    +0.000 A 
ATOM     26  C   UNL     1       6.978   4.746  13.887  0.00  0.00    +0.000 A 
ATOM     27  C   UNL     1       7.369   5.517  14.979  0.00  0.00    +0.000 A 
ATOM     28  C   UNL     1       6.691   5.456  16.222  0.00  0.00    +0.000 A 
BRANCH  28  29
ATOM     29  C   UNL     1       7.231   6.391  17.290  0.00  0.00    +0.000 C 
ATOM     30  F   UNL     1       7.750   5.813  18.402  0.00  0.00    +0.000 F 
ATOM     31  F   UNL     1       8.228   7.186  16.801  0.00  0.00    +0.000 F 
ATOM     32  F   UNL     1       6.275   7.252  17.745  0.00  0.00    +0.000 F 
ENDBRANCH  28  29
ENDBRANCH   6  23
TORSDOF 5
ENDMDL
