MODEL 1
REMARK VINA RESULT:      -8.6      0.000      0.000
REMARK  Name = 
REMARK  7 active torsions:
REMARK  status: ('A' for Active; 'I' for Inactive)
REMARK    1  A    between atoms: C_1  and  N_2
REMARK    2  A    between atoms: C_3  and  C_5
REMARK    3  A    between atoms: C_9  and  N_10
REMARK    4  A    between atoms: C_21  and  O_22
REMARK    5  A    between atoms: O_22  and  C_23
REMARK    6  A    between atoms: C_23  and  C_24
REMARK    7  A    between atoms: C_24  and  C_25
REMARK                            x       y       z     vdW  Elec       q    Type
REMARK                         _______ _______ _______ _____ _____    ______ ____
ROOT
ATOM      1  N   UNL     1       0.405  11.400  18.667  0.00  0.00    +0.000 N 
ATOM      2  C   UNL     1       0.670  10.292  19.475  0.00  0.00    +0.000 A 
ATOM      3  N   UNL     1       0.315  10.220  20.748  0.00  0.00    +0.000 NA
ATOM      4  C   UNL     1       0.695   9.094  21.355  0.00  0.00    +0.000 A 
ATOM      5  N   UNL     1       1.399   8.096  20.824  0.00  0.00    +0.000 NA
ATOM      6  C   UNL     1       1.726   8.264  19.548  0.00  0.00    +0.000 A 
ATOM      7  N   UNL     1       2.486   7.332  18.882  0.00  0.00    +0.000 N 
ATOM      8  C   UNL     1       3.120   7.748  17.622  0.00  0.00    +0.000 C 
ATOM      9  C   UNL     1       4.629   7.422  17.646  0.00  0.00    +0.000 C 
ATOM     10  C   UNL     1       4.707   5.917  17.714  0.00  0.00    +0.000 A 
ATOM     11  C   UNL     1       5.488   5.210  16.805  0.00  0.00    +0.000 A 
ATOM     12  C   UNL     1       5.111   3.925  16.437  0.00  0.00    +0.000 A 
ATOM     13  C   UNL     1       3.984   3.346  17.025  0.00  0.00    +0.000 A 
ATOM     14  C   UNL     1       3.317   4.003  18.085  0.00  0.00    +0.000 A 
ATOM     15  C   UNL     1       3.714   5.282  18.483  0.00  0.00    +0.000 A 
ATOM     16  C   UNL     1       3.017   6.142  19.540  0.00  0.00    +0.000 C 
ATOM     17  N   UNL     1       1.346   9.335  18.853  0.00  0.00    +0.000 NA
ATOM     18  H   UNL     1       0.853  11.238  17.774  0.00  0.00    +0.000 HD
ENDROOT
BRANCH   1  23
ATOM     19  C   UNL     1      -1.184  14.497  20.029  0.00  0.00    +0.000 A 
ATOM     20  C   UNL     1      -0.254  15.462  19.623  0.00  0.00    +0.000 A 
ATOM     21  C   UNL     1       0.854  15.081  18.869  0.00  0.00    +0.000 A 
ATOM     22  C   UNL     1       1.045  13.730  18.553  0.00  0.00    +0.000 A 
ATOM     23  C   UNL     1       0.140  12.740  18.981  0.00  0.00    +0.000 A 
ATOM     24  C   UNL     1      -0.993  13.146  19.685  0.00  0.00    +0.000 A 
BRANCH  19  27
ATOM     25  C   UNL     1      -4.381  16.317  20.915  0.00  0.00    +0.000 C 
ATOM     26  N   UNL     1      -3.224  15.822  20.220  0.00  0.00    +0.000 N 
ATOM     27  C   UNL     1      -2.361  14.932  20.820  0.00  0.00    +0.000 C 
ATOM     28  O   UNL     1      -2.543  14.486  21.957  0.00  0.00    +0.000 OA
ATOM     29  H   UNL     1      -3.097  16.077  19.240  0.00  0.00    +0.000 HD
ENDBRANCH  19  27
ENDBRANCH   1  23
BRANCH  12  30
ATOM     30  O   UNL     1       5.962   3.319  15.566  0.00  0.00    +0.000 OA
BRANCH  30  31
ATOM     31  C   UNL     1       6.319   3.994  14.355  0.00  0.00    +0.000 C 
BRANCH  31  32
ATOM     32  C   UNL     1       5.160   3.702  13.401  0.00  0.00    +0.000 C 
BRANCH  32  33
ATOM     33  C   UNL     1       5.574   3.312  12.006  0.00  0.00    +0.000 C 
ATOM     34  F   UNL     1       6.764   3.834  11.647  0.00  0.00    +0.000 F 
ATOM     35  F   UNL     1       5.665   1.966  11.894  0.00  0.00    +0.000 F 
ATOM     36  F   UNL     1       4.656   3.723  11.101  0.00  0.00    +0.000 F 
ENDBRANCH  32  33
ENDBRANCH  31  32
ENDBRANCH  30  31
ENDBRANCH  12  30
TORSDOF 6
ENDMDL
MODEL 2
REMARK VINA RESULT:      -8.5      3.333      4.504
REMARK  Name = 
REMARK  7 active torsions:
REMARK  status: ('A' for Active; 'I' for Inactive)
REMARK    1  A    between atoms: C_1  and  N_2
REMARK    2  A    between atoms: C_3  and  C_5
REMARK    3  A    between atoms: C_9  and  N_10
REMARK    4  A    between atoms: C_21  and  O_22
REMARK    5  A    between atoms: O_22  and  C_23
REMARK    6  A    between atoms: C_23  and  C_24
REMARK    7  A    between atoms: C_24  and  C_25
REMARK                            x       y       z     vdW  Elec       q    Type
REMARK                         _______ _______ _______ _____ _____    ______ ____
ROOT
ATOM      1  N   UNL     1      -0.525  12.250  22.151  0.00  0.00    +0.000 N 
ATOM      2  C   UNL     1      -0.439  11.791  20.834  0.00  0.00    +0.000 A 
ATOM      3  N   UNL     1      -1.163  12.288  19.843  0.00  0.00    +0.000 NA
ATOM      4  C   UNL     1      -0.962  11.687  18.670  0.00  0.00    +0.000 A 
ATOM      5  N   UNL     1      -0.157  10.653  18.426  0.00  0.00    +0.000 NA
ATOM      6  C   UNL     1       0.514  10.211  19.482  0.00  0.00    +0.000 A 
ATOM      7  N   UNL     1       1.351   9.125  19.387  0.00  0.00    +0.000 N 
ATOM      8  C   UNL     1       1.756   8.466  20.637  0.00  0.00    +0.000 C 
ATOM      9  C   UNL     1       1.490   6.948  20.557  0.00  0.00    +0.000 C 
ATOM     10  C   UNL     1       2.404   6.445  19.467  0.00  0.00    +0.000 A 
ATOM     11  C   UNL     1       3.256   5.370  19.703  0.00  0.00    +0.000 A 
ATOM     12  C   UNL     1       4.467   5.299  19.026  0.00  0.00    +0.000 A 
ATOM     13  C   UNL     1       4.785   6.279  18.085  0.00  0.00    +0.000 A 
ATOM     14  C   UNL     1       3.827   7.254  17.719  0.00  0.00    +0.000 A 
ATOM     15  C   UNL     1       2.593   7.308  18.372  0.00  0.00    +0.000 A 
ATOM     16  C   UNL     1       1.514   8.370  18.148  0.00  0.00    +0.000 C 
ATOM     17  N   UNL     1       0.410  10.784  20.680  0.00  0.00    +0.000 NA
ATOM     18  H   UNL     1       0.060  11.651  22.719  0.00  0.00    +0.000 HD
ENDROOT
BRANCH   1  23
ATOM     19  C   UNL     1      -3.853  13.251  23.526  0.00  0.00    +0.000 A 
ATOM     20  C   UNL     1      -3.486  14.349  24.313  0.00  0.00    +0.000 A 
ATOM     21  C   UNL     1      -2.157  14.766  24.339  0.00  0.00    +0.000 A 
ATOM     22  C   UNL     1      -1.195  14.063  23.604  0.00  0.00    +0.000 A 
ATOM     23  C   UNL     1      -1.538  12.936  22.834  0.00  0.00    +0.000 A 
ATOM     24  C   UNL     1      -2.881  12.567  22.772  0.00  0.00    +0.000 A 
BRANCH  19  27
ATOM     25  C   UNL     1      -7.239  12.268  22.150  0.00  0.00    +0.000 C 
ATOM     26  N   UNL     1      -5.858  12.651  22.271  0.00  0.00    +0.000 N 
ATOM     27  C   UNL     1      -5.277  12.835  23.506  0.00  0.00    +0.000 C 
ATOM     28  O   UNL     1      -5.884  12.653  24.565  0.00  0.00    +0.000 OA
ATOM     29  H   UNL     1      -5.290  12.702  21.425  0.00  0.00    +0.000 HD
ENDBRANCH  19  27
ENDBRANCH   1  23
BRANCH  12  30
ATOM     30  O   UNL     1       5.204   4.192  19.313  0.00  0.00    +0.000 OA
BRANCH  30  31
ATOM     31  C   UNL     1       4.537   2.942  19.518  0.00  0.00    +0.000 C 
BRANCH  31  32
ATOM     32  C   UNL     1       4.124   2.497  18.114  0.00  0.00    +0.000 C 
BRANCH  32  33
ATOM     33  C   UNL     1       2.647   2.585  17.834  0.00  0.00    +0.000 C 
ATOM     34  F   UNL     1       2.305   3.708  17.171  0.00  0.00    +0.000 F 
ATOM     35  F   UNL     1       2.238   1.530  17.092  0.00  0.00    +0.000 F 
ATOM     36  F   UNL     1       1.939   2.557  18.986  0.00  0.00    +0.000 F 
ENDBRANCH  32  33
ENDBRANCH  31  32
ENDBRANCH  30  31
ENDBRANCH  12  30
TORSDOF 6
ENDMDL
MODEL 3
REMARK VINA RESULT:      -8.4      1.377      1.991
REMARK  Name = 
REMARK  7 active torsions:
REMARK  status: ('A' for Active; 'I' for Inactive)
REMARK    1  A    between atoms: C_1  and  N_2
REMARK    2  A    between atoms: C_3  and  C_5
REMARK    3  A    between atoms: C_9  and  N_10
REMARK    4  A    between atoms: C_21  and  O_22
REMARK    5  A    between atoms: O_22  and  C_23
REMARK    6  A    between atoms: C_23  and  C_24
REMARK    7  A    between atoms: C_24  and  C_25
REMARK                            x       y       z     vdW  Elec       q    Type
REMARK                         _______ _______ _______ _____ _____    ______ ____
ROOT
ATOM      1  N   UNL     1      -0.120  11.159  19.175  0.00  0.00    +0.000 N 
ATOM      2  C   UNL     1       0.309  10.073  19.942  0.00  0.00    +0.000 A 
ATOM      3  N   UNL     1       0.057   9.954  21.237  0.00  0.00    +0.000 NA
ATOM      4  C   UNL     1       0.587   8.864  21.794  0.00  0.00    +0.000 A 
ATOM      5  N   UNL     1       1.342   7.944  21.196  0.00  0.00    +0.000 NA
ATOM      6  C   UNL     1       1.556   8.156  19.903  0.00  0.00    +0.000 A 
ATOM      7  N   UNL     1       2.349   7.308  19.167  0.00  0.00    +0.000 N 
ATOM      8  C   UNL     1       2.846   7.795  17.872  0.00  0.00    +0.000 C 
ATOM      9  C   UNL     1       4.376   7.617  17.780  0.00  0.00    +0.000 C 
ATOM     10  C   UNL     1       4.602   6.125  17.817  0.00  0.00    +0.000 A 
ATOM     11  C   UNL     1       5.377   5.506  16.840  0.00  0.00    +0.000 A 
ATOM     12  C   UNL     1       5.098   4.194  16.479  0.00  0.00    +0.000 A 
ATOM     13  C   UNL     1       4.078   3.504  17.137  0.00  0.00    +0.000 A 
ATOM     14  C   UNL     1       3.431   4.083  18.255  0.00  0.00    +0.000 A 
ATOM     15  C   UNL     1       3.734   5.390  18.644  0.00  0.00    +0.000 A 
ATOM     16  C   UNL     1       3.038   6.167  19.764  0.00  0.00    +0.000 C 
ATOM     17  N   UNL     1       1.024   9.192  19.256  0.00  0.00    +0.000 NA
ATOM     18  H   UNL     1       0.274  11.050  18.249  0.00  0.00    +0.000 HD
ENDROOT
BRANCH   1  23
ATOM     19  C   UNL     1      -0.381  14.885  19.284  0.00  0.00    +0.000 A 
ATOM     20  C   UNL     1      -1.358  15.045  20.275  0.00  0.00    +0.000 A 
ATOM     21  C   UNL     1      -1.878  13.925  20.919  0.00  0.00    +0.000 A 
ATOM     22  C   UNL     1      -1.443  12.647  20.547  0.00  0.00    +0.000 A 
ATOM     23  C   UNL     1      -0.487  12.463  19.531  0.00  0.00    +0.000 A 
ATOM     24  C   UNL     1       0.065  13.597  18.936  0.00  0.00    +0.000 A 
BRANCH  19  27
ATOM     25  C   UNL     1      -0.304  18.138  17.352  0.00  0.00    +0.000 C 
ATOM     26  N   UNL     1      -0.740  16.950  18.035  0.00  0.00    +0.000 N 
ATOM     27  C   UNL     1       0.166  16.096  18.623  0.00  0.00    +0.000 C 
ATOM     28  O   UNL     1       1.381  16.310  18.630  0.00  0.00    +0.000 OA
ATOM     29  H   UNL     1      -1.742  16.793  18.150  0.00  0.00    +0.000 HD
ENDBRANCH  19  27
ENDBRANCH   1  23
BRANCH  12  30
ATOM     30  O   UNL     1       5.936   3.682  15.538  0.00  0.00    +0.000 OA
BRANCH  30  31
ATOM     31  C   UNL     1       5.951   4.260  14.228  0.00  0.00    +0.000 C 
BRANCH  31  32
ATOM     32  C   UNL     1       5.010   3.373  13.410  0.00  0.00    +0.000 C 
BRANCH  32  33
ATOM     33  C   UNL     1       5.363   3.257  11.950  0.00  0.00    +0.000 C 
ATOM     34  F   UNL     1       4.462   3.854  11.144  0.00  0.00    +0.000 F 
ATOM     35  F   UNL     1       6.569   3.819  11.705  0.00  0.00    +0.000 F 
ATOM     36  F   UNL     1       5.449   1.959  11.581  0.00  0.00    +0.000 F 
ENDBRANCH  32  33
ENDBRANCH  31  32
ENDBRANCH  30  31
ENDBRANCH  12  30
TORSDOF 6
ENDMDL
MODEL 4
REMARK VINA RESULT:      -8.4      2.849      4.119
REMARK  Name = 
REMARK  7 active torsions:
REMARK  status: ('A' for Active; 'I' for Inactive)
REMARK    1  A    between atoms: C_1  and  N_2
REMARK    2  A    between atoms: C_3  and  C_5
REMARK    3  A    between atoms: C_9  and  N_10
REMARK    4  A    between atoms: C_21  and  O_22
REMARK    5  A    between atoms: O_22  and  C_23
REMARK    6  A    between atoms: C_23  and  C_24
REMARK    7  A    between atoms: C_24  and  C_25
REMARK                            x       y       z     vdW  Elec       q    Type
REMARK                         _______ _______ _______ _____ _____    ______ ____
ROOT
ATOM      1  N   UNL     1      -0.564  12.154  22.319  0.00  0.00    +0.000 N 
ATOM      2  C   UNL     1      -0.552  11.780  20.973  0.00  0.00    +0.000 A 
ATOM      3  N   UNL     1      -1.381  12.285  20.073  0.00  0.00    +0.000 NA
ATOM      4  C   UNL     1      -1.234  11.769  18.851  0.00  0.00    +0.000 A 
ATOM      5  N   UNL     1      -0.388  10.808  18.483  0.00  0.00    +0.000 NA
ATOM      6  C   UNL     1       0.390  10.351  19.457  0.00  0.00    +0.000 A 
ATOM      7  N   UNL     1       1.284   9.332  19.231  0.00  0.00    +0.000 N 
ATOM      8  C   UNL     1       1.825   8.629  20.403  0.00  0.00    +0.000 C 
ATOM      9  C   UNL     1       1.650   7.103  20.246  0.00  0.00    +0.000 C 
ATOM     10  C   UNL     1       2.506   6.728  19.062  0.00  0.00    +0.000 A 
ATOM     11  C   UNL     1       3.440   5.701  19.165  0.00  0.00    +0.000 A 
ATOM     12  C   UNL     1       4.596   5.752  18.397  0.00  0.00    +0.000 A 
ATOM     13  C   UNL     1       4.778   6.806  17.499  0.00  0.00    +0.000 A 
ATOM     14  C   UNL     1       3.734   7.733  17.269  0.00  0.00    +0.000 A 
ATOM     15  C   UNL     1       2.555   7.666  18.013  0.00  0.00    +0.000 A 
ATOM     16  C   UNL     1       1.396   8.663  17.937  0.00  0.00    +0.000 C 
ATOM     17  N   UNL     1       0.344  10.844  20.693  0.00  0.00    +0.000 NA
ATOM     18  H   UNL     1       0.101  11.564  22.803  0.00  0.00    +0.000 HD
ENDROOT
BRANCH   1  23
ATOM     19  C   UNL     1      -2.453  14.513  24.518  0.00  0.00    +0.000 A 
ATOM     20  C   UNL     1      -3.669  13.830  24.643  0.00  0.00    +0.000 A 
ATOM     21  C   UNL     1      -3.827  12.585  24.038  0.00  0.00    +0.000 A 
ATOM     22  C   UNL     1      -2.779  12.043  23.283  0.00  0.00    +0.000 A 
ATOM     23  C   UNL     1      -1.561  12.729  23.118  0.00  0.00    +0.000 A 
ATOM     24  C   UNL     1      -1.399  13.947  23.777  0.00  0.00    +0.000 A 
BRANCH  19  27
ATOM     25  C   UNL     1      -0.959  17.263  26.647  0.00  0.00    +0.000 C 
ATOM     26  N   UNL     1      -1.178  16.025  25.947  0.00  0.00    +0.000 N 
ATOM     27  C   UNL     1      -2.307  15.832  25.183  0.00  0.00    +0.000 C 
ATOM     28  O   UNL     1      -3.166  16.703  25.025  0.00  0.00    +0.000 OA
ATOM     29  H   UNL     1      -0.440  15.321  25.959  0.00  0.00    +0.000 HD
ENDBRANCH  19  27
ENDBRANCH   1  23
BRANCH  12  30
ATOM     30  O   UNL     1       5.422   4.683  18.558  0.00  0.00    +0.000 OA
BRANCH  30  31
ATOM     31  C   UNL     1       6.450   4.442  17.591  0.00  0.00    +0.000 C 
BRANCH  31  32
ATOM     32  C   UNL     1       5.710   3.854  16.388  0.00  0.00    +0.000 C 
BRANCH  32  33
ATOM     33  C   UNL     1       6.139   4.406  15.053  0.00  0.00    +0.000 C 
ATOM     34  F   UNL     1       5.283   5.327  14.567  0.00  0.00    +0.000 F 
ATOM     35  F   UNL     1       7.358   4.987  15.146  0.00  0.00    +0.000 F 
ATOM     36  F   UNL     1       6.242   3.416  14.137  0.00  0.00    +0.000 F 
ENDBRANCH  32  33
ENDBRANCH  31  32
ENDBRANCH  30  31
ENDBRANCH  12  30
TORSDOF 6
ENDMDL
MODEL 5
REMARK VINA RESULT:      -8.3      3.294      4.639
REMARK  Name = 
REMARK  7 active torsions:
REMARK  status: ('A' for Active; 'I' for Inactive)
REMARK    1  A    between atoms: C_1  and  N_2
REMARK    2  A    between atoms: C_3  and  C_5
REMARK    3  A    between atoms: C_9  and  N_10
REMARK    4  A    between atoms: C_21  and  O_22
REMARK    5  A    between atoms: O_22  and  C_23
REMARK    6  A    between atoms: C_23  and  C_24
REMARK    7  A    between atoms: C_24  and  C_25
REMARK                            x       y       z     vdW  Elec       q    Type
REMARK                         _______ _______ _______ _____ _____    ______ ____
ROOT
ATOM      1  N   UNL     1      -0.629  12.267  22.370  0.00  0.00    +0.000 N 
ATOM      2  C   UNL     1      -0.586  11.832  21.043  0.00  0.00    +0.000 A 
ATOM      3  N   UNL     1      -1.367  12.321  20.093  0.00  0.00    +0.000 NA
ATOM      4  C   UNL     1      -1.199  11.744  18.902  0.00  0.00    +0.000 A 
ATOM      5  N   UNL     1      -0.374  10.740  18.607  0.00  0.00    +0.000 NA
ATOM      6  C   UNL     1       0.356  10.303  19.626  0.00  0.00    +0.000 A 
ATOM      7  N   UNL     1       1.222   9.246  19.476  0.00  0.00    +0.000 N 
ATOM      8  C   UNL     1       1.700   8.582  20.697  0.00  0.00    +0.000 C 
ATOM      9  C   UNL     1       1.478   7.057  20.602  0.00  0.00    +0.000 C 
ATOM     10  C   UNL     1       2.359   6.600  19.466  0.00  0.00    +0.000 A 
ATOM     11  C   UNL     1       3.253   5.549  19.648  0.00  0.00    +0.000 A 
ATOM     12  C   UNL     1       4.435   5.526  18.918  0.00  0.00    +0.000 A 
ATOM     13  C   UNL     1       4.682   6.531  17.980  0.00  0.00    +0.000 A 
ATOM     14  C   UNL     1       3.679   7.481  17.672  0.00  0.00    +0.000 A 
ATOM     15  C   UNL     1       2.474   7.486  18.379  0.00  0.00    +0.000 A 
ATOM     16  C   UNL     1       1.353   8.516  18.218  0.00  0.00    +0.000 C 
ATOM     17  N   UNL     1       0.287  10.855  20.836  0.00  0.00    +0.000 NA
ATOM     18  H   UNL     1      -0.000  11.679  22.902  0.00  0.00    +0.000 HD
ENDROOT
BRANCH   1  23
ATOM     19  C   UNL     1      -2.569  14.842  24.260  0.00  0.00    +0.000 A 
ATOM     20  C   UNL     1      -3.749  14.134  24.521  0.00  0.00    +0.000 A 
ATOM     21  C   UNL     1      -3.864  12.808  24.110  0.00  0.00    +0.000 A 
ATOM     22  C   UNL     1      -2.811  12.205  23.410  0.00  0.00    +0.000 A 
ATOM     23  C   UNL     1      -1.631  12.911  23.107  0.00  0.00    +0.000 A 
ATOM     24  C   UNL     1      -1.509  14.218  23.576  0.00  0.00    +0.000 A 
BRANCH  19  27
ATOM     25  C   UNL     1      -1.107  18.283  24.842  0.00  0.00    +0.000 C 
ATOM     26  N   UNL     1      -1.306  16.923  24.420  0.00  0.00    +0.000 N 
ATOM     27  C   UNL     1      -2.468  16.248  24.720  0.00  0.00    +0.000 C 
ATOM     28  O   UNL     1      -3.407  16.771  25.328  0.00  0.00    +0.000 OA
ATOM     29  H   UNL     1      -0.603  16.491  23.819  0.00  0.00    +0.000 HD
ENDBRANCH  19  27
ENDBRANCH   1  23
BRANCH  12  30
ATOM     30  O   UNL     1       5.219   4.440  19.154  0.00  0.00    +0.000 OA
BRANCH  30  31
ATOM     31  C   UNL     1       4.609   3.148  19.255  0.00  0.00    +0.000 C 
BRANCH  31  32
ATOM     32  C   UNL     1       4.050   2.881  17.856  0.00  0.00    +0.000 C 
BRANCH  32  33
ATOM     33  C   UNL     1       2.551   2.742  17.793  0.00  0.00    +0.000 C 
ATOM     34  F   UNL     1       1.953   3.780  17.175  0.00  0.00    +0.000 F 
ATOM     35  F   UNL     1       2.205   1.614  17.129  0.00  0.00    +0.000 F 
ATOM     36  F   UNL     1       2.027   2.646  19.037  0.00  0.00    +0.000 F 
ENDBRANCH  32  33
ENDBRANCH  31  32
ENDBRANCH  30  31
ENDBRANCH  12  30
TORSDOF 6
ENDMDL
MODEL 6
REMARK VINA RESULT:      -8.1      5.977     11.787
REMARK  Name = 
REMARK  7 active torsions:
REMARK  status: ('A' for Active; 'I' for Inactive)
REMARK    1  A    between atoms: C_1  and  N_2
REMARK    2  A    between atoms: C_3  and  C_5
REMARK    3  A    between atoms: C_9  and  N_10
REMARK    4  A    between atoms: C_21  and  O_22
REMARK    5  A    between atoms: O_22  and  C_23
REMARK    6  A    between atoms: C_23  and  C_24
REMARK    7  A    between atoms: C_24  and  C_25
REMARK                            x       y       z     vdW  Elec       q    Type
REMARK                         _______ _______ _______ _____ _____    ______ ____
ROOT
ATOM      1  N   UNL     1       5.751   5.754  15.653  0.00  0.00    +0.000 N 
ATOM      2  C   UNL     1       4.910   5.289  16.666  0.00  0.00    +0.000 A 
ATOM      3  N   UNL     1       4.701   4.003  16.902  0.00  0.00    +0.000 NA
ATOM      4  C   UNL     1       3.834   3.767  17.888  0.00  0.00    +0.000 A 
ATOM      5  N   UNL     1       3.164   4.671  18.601  0.00  0.00    +0.000 NA
ATOM      6  C   UNL     1       3.424   5.933  18.281  0.00  0.00    +0.000 A 
ATOM      7  N   UNL     1       2.776   6.971  18.908  0.00  0.00    +0.000 N 
ATOM      8  C   UNL     1       2.824   8.291  18.261  0.00  0.00    +0.000 C 
ATOM      9  C   UNL     1       1.400   8.871  18.116  0.00  0.00    +0.000 C 
ATOM     10  C   UNL     1       0.914   9.079  19.529  0.00  0.00    +0.000 A 
ATOM     11  C   UNL     1       0.402  10.312  19.923  0.00  0.00    +0.000 A 
ATOM     12  C   UNL     1       0.545  10.719  21.243  0.00  0.00    +0.000 A 
ATOM     13  C   UNL     1       1.155   9.863  22.162  0.00  0.00    +0.000 A 
ATOM     14  C   UNL     1       1.495   8.541  21.789  0.00  0.00    +0.000 A 
ATOM     15  C   UNL     1       1.320   8.115  20.470  0.00  0.00    +0.000 A 
ATOM     16  C   UNL     1       1.739   6.753  19.912  0.00  0.00    +0.000 C 
ATOM     17  N   UNL     1       4.313   6.260  17.344  0.00  0.00    +0.000 NA
ATOM     18  H   UNL     1       5.668   6.763  15.630  0.00  0.00    +0.000 HD
ENDROOT
BRANCH   1  23
ATOM     19  C   UNL     1       5.903   3.778  12.485  0.00  0.00    +0.000 A 
ATOM     20  C   UNL     1       7.211   4.058  12.070  0.00  0.00    +0.000 A 
ATOM     21  C   UNL     1       8.032   4.855  12.865  0.00  0.00    +0.000 A 
ATOM     22  C   UNL     1       7.531   5.396  14.056  0.00  0.00    +0.000 A 
ATOM     23  C   UNL     1       6.209   5.154  14.472  0.00  0.00    +0.000 A 
ATOM     24  C   UNL     1       5.419   4.308  13.695  0.00  0.00    +0.000 A 
BRANCH  19  27
ATOM     25  C   UNL     1       3.024   2.724  10.267  0.00  0.00    +0.000 C 
ATOM     26  N   UNL     1       3.919   3.486  11.095  0.00  0.00    +0.000 N 
ATOM     27  C   UNL     1       5.055   2.916  11.626  0.00  0.00    +0.000 C 
ATOM     28  O   UNL     1       5.385   1.748  11.401  0.00  0.00    +0.000 OA
ATOM     29  H   UNL     1       3.743   4.484  11.214  0.00  0.00    +0.000 HD
ENDBRANCH  19  27
ENDBRANCH   1  23
BRANCH  12  30
ATOM     30  O   UNL     1      -0.018  11.926  21.521  0.00  0.00    +0.000 OA
BRANCH  30  31
ATOM     31  C   UNL     1      -1.444  12.049  21.515  0.00  0.00    +0.000 C 
BRANCH  31  32
ATOM     32  C   UNL     1      -1.834  12.026  22.994  0.00  0.00    +0.000 C 
BRANCH  32  33
ATOM     33  C   UNL     1      -3.236  12.497  23.283  0.00  0.00    +0.000 C 
ATOM     34  F   UNL     1      -4.075  12.315  22.244  0.00  0.00    +0.000 F 
ATOM     35  F   UNL     1      -3.750  11.838  24.347  0.00  0.00    +0.000 F 
ATOM     36  F   UNL     1      -3.244  13.814  23.592  0.00  0.00    +0.000 F 
ENDBRANCH  32  33
ENDBRANCH  31  32
ENDBRANCH  30  31
ENDBRANCH  12  30
TORSDOF 6
ENDMDL
MODEL 7
REMARK VINA RESULT:      -8.1      1.466      2.240
REMARK  Name = 
REMARK  7 active torsions:
REMARK  status: ('A' for Active; 'I' for Inactive)
REMARK    1  A    between atoms: C_1  and  N_2
REMARK    2  A    between atoms: C_3  and  C_5
REMARK    3  A    between atoms: C_9  and  N_10
REMARK    4  A    between atoms: C_21  and  O_22
REMARK    5  A    between atoms: O_22  and  C_23
REMARK    6  A    between atoms: C_23  and  C_24
REMARK    7  A    between atoms: C_24  and  C_25
REMARK                            x       y       z     vdW  Elec       q    Type
REMARK                         _______ _______ _______ _____ _____    ______ ____
ROOT
ATOM      1  N   UNL     1      -0.528  11.201  19.593  0.00  0.00    +0.000 N 
ATOM      2  C   UNL     1       0.072  10.190  20.348  0.00  0.00    +0.000 A 
ATOM      3  N   UNL     1       0.045  10.158  21.671  0.00  0.00    +0.000 NA
ATOM      4  C   UNL     1       0.709   9.131  22.202  0.00  0.00    +0.000 A 
ATOM      5  N   UNL     1       1.395   8.194  21.548  0.00  0.00    +0.000 NA
ATOM      6  C   UNL     1       1.380   8.318  20.226  0.00  0.00    +0.000 A 
ATOM      7  N   UNL     1       2.077   7.445  19.425  0.00  0.00    +0.000 N 
ATOM      8  C   UNL     1       2.328   7.852  18.034  0.00  0.00    +0.000 C 
ATOM      9  C   UNL     1       3.828   7.718  17.697  0.00  0.00    +0.000 C 
ATOM     10  C   UNL     1       4.124   6.241  17.794  0.00  0.00    +0.000 A 
ATOM     11  C   UNL     1       4.753   5.579  16.744  0.00  0.00    +0.000 A 
ATOM     12  C   UNL     1       4.477   4.235  16.524  0.00  0.00    +0.000 A 
ATOM     13  C   UNL     1       3.613   3.561  17.390  0.00  0.00    +0.000 A 
ATOM     14  C   UNL     1       3.137   4.199  18.560  0.00  0.00    +0.000 A 
ATOM     15  C   UNL     1       3.440   5.540  18.805  0.00  0.00    +0.000 A 
ATOM     16  C   UNL     1       2.907   6.375  19.971  0.00  0.00    +0.000 C 
ATOM     17  N   UNL     1       0.701   9.284  19.611  0.00  0.00    +0.000 NA
ATOM     18  H   UNL     1      -0.290  11.037  18.624  0.00  0.00    +0.000 HD
ENDROOT
BRANCH   1  23
ATOM     19  C   UNL     1      -0.469  14.913  20.022  0.00  0.00    +0.000 A 
ATOM     20  C   UNL     1      -1.752  15.133  20.538  0.00  0.00    +0.000 A 
ATOM     21  C   UNL     1      -2.595  14.050  20.777  0.00  0.00    +0.000 A 
ATOM     22  C   UNL     1      -2.163  12.754  20.468  0.00  0.00    +0.000 A 
ATOM     23  C   UNL     1      -0.890  12.515  19.918  0.00  0.00    +0.000 A 
ATOM     24  C   UNL     1      -0.037  13.604  19.739  0.00  0.00    +0.000 A 
BRANCH  19  27
ATOM     25  C   UNL     1       2.094  17.142  18.353  0.00  0.00    +0.000 C 
ATOM     26  N   UNL     1       1.192  16.063  18.654  0.00  0.00    +0.000 N 
ATOM     27  C   UNL     1       0.413  16.083  19.789  0.00  0.00    +0.000 C 
ATOM     28  O   UNL     1       0.415  17.026  20.585  0.00  0.00    +0.000 OA
ATOM     29  H   UNL     1       1.077  15.318  17.966  0.00  0.00    +0.000 HD
ENDBRANCH  19  27
ENDBRANCH   1  23
BRANCH  12  30
ATOM     30  O   UNL     1       5.169   3.683  15.491  0.00  0.00    +0.000 OA
BRANCH  30  31
ATOM     31  C   UNL     1       5.577   4.516  14.400  0.00  0.00    +0.000 C 
BRANCH  31  32
ATOM     32  C   UNL     1       6.605   3.674  13.643  0.00  0.00    +0.000 C 
BRANCH  32  33
ATOM     33  C   UNL     1       6.341   3.535  12.166  0.00  0.00    +0.000 C 
ATOM     34  F   UNL     1       5.042   3.706  11.847  0.00  0.00    +0.000 F 
ATOM     35  F   UNL     1       7.059   4.444  11.466  0.00  0.00    +0.000 F 
ATOM     36  F   UNL     1       6.714   2.312  11.726  0.00  0.00    +0.000 F 
ENDBRANCH  32  33
ENDBRANCH  31  32
ENDBRANCH  30  31
ENDBRANCH  12  30
TORSDOF 6
ENDMDL
MODEL 8
REMARK VINA RESULT:      -8.1      1.110      1.326
REMARK  Name = 
REMARK  7 active torsions:
REMARK  status: ('A' for Active; 'I' for Inactive)
REMARK    1  A    between atoms: C_1  and  N_2
REMARK    2  A    between atoms: C_3  and  C_5
REMARK    3  A    between atoms: C_9  and  N_10
REMARK    4  A    between atoms: C_21  and  O_22
REMARK    5  A    between atoms: O_22  and  C_23
REMARK    6  A    between atoms: C_23  and  C_24
REMARK    7  A    between atoms: C_24  and  C_25
REMARK                            x       y       z     vdW  Elec       q    Type
REMARK                         _______ _______ _______ _____ _____    ______ ____
ROOT
ATOM      1  N   UNL     1      -0.531  11.572  19.335  0.00  0.00    +0.000 N 
ATOM      2  C   UNL     1      -0.059  10.526  20.131  0.00  0.00    +0.000 A 
ATOM      3  N   UNL     1      -0.214  10.488  21.446  0.00  0.00    +0.000 NA
ATOM      4  C   UNL     1       0.343   9.424  22.027  0.00  0.00    +0.000 A 
ATOM      5  N   UNL     1       1.040   8.457  21.430  0.00  0.00    +0.000 NA
ATOM      6  C   UNL     1       1.158   8.590  20.115  0.00  0.00    +0.000 A 
ATOM      7  N   UNL     1       1.884   7.687  19.374  0.00  0.00    +0.000 N 
ATOM      8  C   UNL     1       2.288   8.089  18.019  0.00  0.00    +0.000 C 
ATOM      9  C   UNL     1       3.805   7.880  17.824  0.00  0.00    +0.000 C 
ATOM     10  C   UNL     1       4.014   6.390  17.933  0.00  0.00    +0.000 A 
ATOM     11  C   UNL     1       4.707   5.702  16.941  0.00  0.00    +0.000 A 
ATOM     12  C   UNL     1       4.385   4.376  16.680  0.00  0.00    +0.000 A 
ATOM     13  C   UNL     1       3.409   3.742  17.452  0.00  0.00    +0.000 A 
ATOM     14  C   UNL     1       2.856   4.396  18.578  0.00  0.00    +0.000 A 
ATOM     15  C   UNL     1       3.202   5.719  18.865  0.00  0.00    +0.000 A 
ATOM     16  C   UNL     1       2.602   6.572  19.985  0.00  0.00    +0.000 C 
ATOM     17  N   UNL     1       0.592   9.594  19.448  0.00  0.00    +0.000 NA
ATOM     18  H   UNL     1      -0.209  11.402  18.391  0.00  0.00    +0.000 HD
ENDROOT
BRANCH   1  23
ATOM     19  C   UNL     1      -2.127  14.601  20.834  0.00  0.00    +0.000 A 
ATOM     20  C   UNL     1      -1.371  15.614  20.232  0.00  0.00    +0.000 A 
ATOM     21  C   UNL     1      -0.381  15.282  19.310  0.00  0.00    +0.000 A 
ATOM     22  C   UNL     1      -0.129  13.935  19.018  0.00  0.00    +0.000 A 
ATOM     23  C   UNL     1      -0.855  12.901  19.638  0.00  0.00    +0.000 A 
ATOM     24  C   UNL     1      -1.880  13.252  20.515  0.00  0.00    +0.000 A 
BRANCH  19  27
ATOM     25  C   UNL     1      -5.313  14.397  22.866  0.00  0.00    +0.000 C 
ATOM     26  N   UNL     1      -4.232  14.104  21.964  0.00  0.00    +0.000 N 
ATOM     27  C   UNL     1      -3.183  14.982  21.803  0.00  0.00    +0.000 C 
ATOM     28  O   UNL     1      -3.092  16.038  22.436  0.00  0.00    +0.000 OA
ATOM     29  H   UNL     1      -4.211  13.192  21.507  0.00  0.00    +0.000 HD
ENDBRANCH  19  27
ENDBRANCH   1  23
BRANCH  12  30
ATOM     30  O   UNL     1       5.144   3.796  15.712  0.00  0.00    +0.000 OA
BRANCH  30  31
ATOM     31  C   UNL     1       5.340   4.484  14.472  0.00  0.00    +0.000 C 
BRANCH  31  32
ATOM     32  C   UNL     1       6.374   3.639  13.726  0.00  0.00    +0.000 C 
BRANCH  32  33
ATOM     33  C   UNL     1       6.070   3.414  12.267  0.00  0.00    +0.000 C 
ATOM     34  F   UNL     1       6.235   2.131  11.889  0.00  0.00    +0.000 F 
ATOM     35  F   UNL     1       4.793   3.764  11.987  0.00  0.00    +0.000 F 
ATOM     36  F   UNL     1       6.870   4.179  11.489  0.00  0.00    +0.000 F 
ENDBRANCH  32  33
ENDBRANCH  31  32
ENDBRANCH  30  31
ENDBRANCH  12  30
TORSDOF 6
ENDMDL
MODEL 9
REMARK VINA RESULT:      -8.0      1.493      2.149
REMARK  Name = 
REMARK  7 active torsions:
REMARK  status: ('A' for Active; 'I' for Inactive)
REMARK    1  A    between atoms: C_1  and  N_2
REMARK    2  A    between atoms: C_3  and  C_5
REMARK    3  A    between atoms: C_9  and  N_10
REMARK    4  A    between atoms: C_21  and  O_22
REMARK    5  A    between atoms: O_22  and  C_23
REMARK    6  A    between atoms: C_23  and  C_24
REMARK    7  A    between atoms: C_24  and  C_25
REMARK                            x       y       z     vdW  Elec       q    Type
REMARK                         _______ _______ _______ _____ _____    ______ ____
ROOT
ATOM      1  N   UNL     1       0.224  11.014  19.233  0.00  0.00    +0.000 N 
ATOM      2  C   UNL     1       0.600   9.893  19.977  0.00  0.00    +0.000 A 
ATOM      3  N   UNL     1       0.334   9.756  21.267  0.00  0.00    +0.000 NA
ATOM      4  C   UNL     1       0.811   8.632  21.802  0.00  0.00    +0.000 A 
ATOM      5  N   UNL     1       1.529   7.692  21.187  0.00  0.00    +0.000 NA
ATOM      6  C   UNL     1       1.761   7.924  19.901  0.00  0.00    +0.000 A 
ATOM      7  N   UNL     1       2.521   7.059  19.151  0.00  0.00    +0.000 N 
ATOM      8  C   UNL     1       3.047   7.553  17.870  0.00  0.00    +0.000 C 
ATOM      9  C   UNL     1       4.569   7.309  17.783  0.00  0.00    +0.000 C 
ATOM     10  C   UNL     1       4.728   5.808  17.786  0.00  0.00    +0.000 A 
ATOM     11  C   UNL     1       5.482   5.178  16.800  0.00  0.00    +0.000 A 
ATOM     12  C   UNL     1       5.148   3.888  16.408  0.00  0.00    +0.000 A 
ATOM     13  C   UNL     1       4.094   3.229  17.043  0.00  0.00    +0.000 A 
ATOM     14  C   UNL     1       3.466   3.810  18.171  0.00  0.00    +0.000 A 
ATOM     15  C   UNL     1       3.823   5.093  18.592  0.00  0.00    +0.000 A 
ATOM     16  C   UNL     1       3.155   5.876  19.725  0.00  0.00    +0.000 C 
ATOM     17  N   UNL     1       1.280   8.997  19.275  0.00  0.00    +0.000 NA
ATOM     18  H   UNL     1       0.620  10.909  18.307  0.00  0.00    +0.000 HD
ENDROOT
BRANCH   1  23
ATOM     19  C   UNL     1       0.522  14.599  20.249  0.00  0.00    +0.000 A 
ATOM     20  C   UNL     1      -0.829  14.962  20.305  0.00  0.00    +0.000 A 
ATOM     21  C   UNL     1      -1.813  14.008  20.052  0.00  0.00    +0.000 A 
ATOM     22  C   UNL     1      -1.440  12.702  19.712  0.00  0.00    +0.000 A 
ATOM     23  C   UNL     1      -0.087  12.325  19.616  0.00  0.00    +0.000 A 
ATOM     24  C   UNL     1       0.883  13.277  19.928  0.00  0.00    +0.000 A 
BRANCH  19  27
ATOM     25  C   UNL     1       3.226  17.173  19.632  0.00  0.00    +0.000 C 
ATOM     26  N   UNL     1       2.200  16.181  19.454  0.00  0.00    +0.000 N 
ATOM     27  C   UNL     1       1.548  15.631  20.534  0.00  0.00    +0.000 C 
ATOM     28  O   UNL     1       1.774  15.974  21.698  0.00  0.00    +0.000 OA
ATOM     29  H   UNL     1       1.904  15.950  18.505  0.00  0.00    +0.000 HD
ENDBRANCH  19  27
ENDBRANCH   1  23
BRANCH  12  30
ATOM     30  O   UNL     1       5.969   3.361  15.460  0.00  0.00    +0.000 OA
BRANCH  30  31
ATOM     31  C   UNL     1       6.328   4.158  14.325  0.00  0.00    +0.000 C 
BRANCH  31  32
ATOM     32  C   UNL     1       5.186   3.940  13.331  0.00  0.00    +0.000 C 
BRANCH  32  33
ATOM     33  C   UNL     1       5.607   3.365  12.004  0.00  0.00    +0.000 C 
ATOM     34  F   UNL     1       6.778   3.867  11.562  0.00  0.00    +0.000 F 
ATOM     35  F   UNL     1       5.742   2.021  12.088  0.00  0.00    +0.000 F 
ATOM     36  F   UNL     1       4.672   3.610  11.058  0.00  0.00    +0.000 F 
ENDBRANCH  32  33
ENDBRANCH  31  32
ENDBRANCH  30  31
ENDBRANCH  12  30
TORSDOF 6
ENDMDL
