MODEL 1
REMARK VINA RESULT:      -6.2      0.000      0.000
REMARK  Name = 
REMARK  15 active torsions:
REMARK  status: ('A' for Active; 'I' for Inactive)
REMARK    1  A    between atoms: C_1  and  O_2
REMARK    2  A    between atoms: O_2  and  C_3
REMARK    3  A    between atoms: C_8  and  C_9
REMARK    4  A    between atoms: C_9  and  O_11
REMARK    5  A    between atoms: O_11  and  C_12
REMARK    6  A    between atoms: C_17  and  C_18
REMARK    7  A    between atoms: C_26  and  N_27
REMARK    8  A    between atoms: N_27  and  C_28
REMARK    9  A    between atoms: C_28  and  C_29
REMARK   10  A    between atoms: C_28  and  C_30
REMARK   11  A    between atoms: C_28  and  C_31
REMARK   12  A    between atoms: C_31  and  C_32
REMARK   13  A    between atoms: C_32  and  C_33
REMARK   14  A    between atoms: C_32  and  C_34
REMARK   15  A    between atoms: C_32  and  C_35
REMARK                            x       y       z     vdW  Elec       q    Type
REMARK                         _______ _______ _______ _____ _____    ______ ____
ROOT
ATOM      1  C   UNL     1      -0.794  12.675  22.138  0.00  0.00    +0.000 A 
ATOM      2  N   UNL     1      -0.862  11.532  22.895  0.00  0.00    +0.000 NA
ATOM      3  C   UNL     1      -0.204  10.626  22.227  0.00  0.00    +0.000 A 
ATOM      4  C   UNL     1       0.064   9.265  22.582  0.00  0.00    +0.000 A 
ATOM      5  C   UNL     1       0.722   8.464  21.724  0.00  0.00    +0.000 A 
ATOM      6  C   UNL     1       1.154   8.950  20.434  0.00  0.00    +0.000 A 
ATOM      7  C   UNL     1       0.903  10.226  20.107  0.00  0.00    +0.000 A 
ATOM      8  N   UNL     1       0.257  11.103  20.998  0.00  0.00    +0.000 N 
ATOM      9  C   UNL     1      -0.025  12.495  20.974  0.00  0.00    +0.000 A 
ENDROOT
BRANCH   1  15
ATOM     10  C   UNL     1      -2.489  14.515  21.741  0.00  0.00    +0.000 A 
ATOM     11  C   UNL     1      -3.022  15.753  22.140  0.00  0.00    +0.000 A 
ATOM     12  C   UNL     1      -2.673  16.321  23.365  0.00  0.00    +0.000 A 
ATOM     13  C   UNL     1      -1.752  15.684  24.185  0.00  0.00    +0.000 A 
ATOM     14  C   UNL     1      -1.171  14.485  23.772  0.00  0.00    +0.000 A 
ATOM     15  C   UNL     1      -1.530  13.869  22.555  0.00  0.00    +0.000 A 
BRANCH  10  16
ATOM     16  O   UNL     1      -2.861  13.958  20.476  0.00  0.00    +0.000 OA
BRANCH  16  17
ATOM     17  C   UNL     1      -3.777  12.913  20.410  0.00  0.00    +0.000 C 
ATOM     18  O   UNL     1      -4.534  12.565  21.314  0.00  0.00    +0.000 OA
BRANCH  17  24
ATOM     19  C   UNL     1      -4.807  11.946  18.247  0.00  0.00    +0.000 A 
ATOM     20  C   UNL     1      -4.600  11.182  17.081  0.00  0.00    +0.000 A 
ATOM     21  C   UNL     1      -3.388  10.530  16.844  0.00  0.00    +0.000 A 
ATOM     22  C   UNL     1      -2.356  10.641  17.766  0.00  0.00    +0.000 A 
ATOM     23  C   UNL     1      -2.530  11.439  18.897  0.00  0.00    +0.000 A 
ATOM     24  C   UNL     1      -3.741  12.123  19.142  0.00  0.00    +0.000 A 
BRANCH  19  26
ATOM     25  C   UNL     1      -7.126  11.611  18.558  0.00  0.00    +0.000 C 
ATOM     26  O   UNL     1      -6.019  12.512  18.531  0.00  0.00    +0.000 OA
ENDBRANCH  19  26
ENDBRANCH  17  24
ENDBRANCH  16  17
ENDBRANCH  10  16
ENDBRANCH   1  15
BRANCH   9  27
ATOM     27  N   UNL     1       0.387  13.443  20.026  0.00  0.00    +0.000 N 
ATOM     28  H   UNL     1      -0.264  14.206  19.841  0.00  0.00    +0.000 HD
BRANCH  27  29
ATOM     29  C   UNL     1       1.786  13.784  19.652  0.00  0.00    +0.000 C 
ATOM     30  C   UNL     1       2.677  13.566  20.903  0.00  0.00    +0.000 C 
ATOM     31  C   UNL     1       2.098  12.953  18.388  0.00  0.00    +0.000 C 
BRANCH  29  32
ATOM     32  C   UNL     1       1.934  15.319  19.246  0.00  0.00    +0.000 C 
BRANCH  32  33
ATOM     33  C   UNL     1       0.805  16.381  19.638  0.00  0.00    +0.000 C 
ATOM     34  C   UNL     1       0.596  16.529  21.157  0.00  0.00    +0.000 C 
ATOM     35  C   UNL     1       1.238  17.775  19.121  0.00  0.00    +0.000 C 
ATOM     36  C   UNL     1      -0.573  16.117  19.000  0.00  0.00    +0.000 C 
ENDBRANCH  32  33
ENDBRANCH  29  32
ENDBRANCH  27  29
ENDBRANCH   9  27
TORSDOF 9
ENDMDL
MODEL 2
REMARK VINA RESULT:      -6.0      4.980      8.424
REMARK  Name = 
REMARK  15 active torsions:
REMARK  status: ('A' for Active; 'I' for Inactive)
REMARK    1  A    between atoms: C_1  and  O_2
REMARK    2  A    between atoms: O_2  and  C_3
REMARK    3  A    between atoms: C_8  and  C_9
REMARK    4  A    between atoms: C_9  and  O_11
REMARK    5  A    between atoms: O_11  and  C_12
REMARK    6  A    between atoms: C_17  and  C_18
REMARK    7  A    between atoms: C_26  and  N_27
REMARK    8  A    between atoms: N_27  and  C_28
REMARK    9  A    between atoms: C_28  and  C_29
REMARK   10  A    between atoms: C_28  and  C_30
REMARK   11  A    between atoms: C_28  and  C_31
REMARK   12  A    between atoms: C_31  and  C_32
REMARK   13  A    between atoms: C_32  and  C_33
REMARK   14  A    between atoms: C_32  and  C_34
REMARK   15  A    between atoms: C_32  and  C_35
REMARK                            x       y       z     vdW  Elec       q    Type
REMARK                         _______ _______ _______ _____ _____    ______ ____
ROOT
ATOM      1  C   UNL     1       2.179   6.581  19.462  0.00  0.00    +0.000 A 
ATOM      2  N   UNL     1       1.787   6.175  20.714  0.00  0.00    +0.000 NA
ATOM      3  C   UNL     1       1.936   4.881  20.728  0.00  0.00    +0.000 A 
ATOM      4  C   UNL     1       1.705   3.960  21.801  0.00  0.00    +0.000 A 
ATOM      5  C   UNL     1       1.866   2.640  21.599  0.00  0.00    +0.000 A 
ATOM      6  C   UNL     1       2.256   2.126  20.307  0.00  0.00    +0.000 A 
ATOM      7  C   UNL     1       2.474   2.991  19.307  0.00  0.00    +0.000 A 
ATOM      8  N   UNL     1       2.357   4.381  19.494  0.00  0.00    +0.000 N 
ATOM      9  C   UNL     1       2.637   5.509  18.677  0.00  0.00    +0.000 A 
ENDROOT
BRANCH   1  15
ATOM     10  C   UNL     1       1.328   8.936  19.846  0.00  0.00    +0.000 A 
ATOM     11  C   UNL     1       1.083  10.217  19.322  0.00  0.00    +0.000 A 
ATOM     12  C   UNL     1       1.590  10.589  18.077  0.00  0.00    +0.000 A 
ATOM     13  C   UNL     1       2.307   9.673  17.320  0.00  0.00    +0.000 A 
ATOM     14  C   UNL     1       2.504   8.380  17.804  0.00  0.00    +0.000 A 
ATOM     15  C   UNL     1       2.034   7.985  19.074  0.00  0.00    +0.000 A 
BRANCH  10  16
ATOM     16  O   UNL     1       0.792   8.579  21.125  0.00  0.00    +0.000 OA
BRANCH  16  17
ATOM     17  C   UNL     1       1.019   9.389  22.234  0.00  0.00    +0.000 C 
ATOM     18  O   UNL     1       1.865   9.192  23.103  0.00  0.00    +0.000 OA
BRANCH  17  24
ATOM     19  C   UNL     1       0.301  11.856  21.961  0.00  0.00    +0.000 A 
ATOM     20  C   UNL     1      -0.708  12.820  22.157  0.00  0.00    +0.000 A 
ATOM     21  C   UNL     1      -1.889  12.509  22.835  0.00  0.00    +0.000 A 
ATOM     22  C   UNL     1      -2.085  11.222  23.318  0.00  0.00    +0.000 A 
ATOM     23  C   UNL     1      -1.118  10.245  23.081  0.00  0.00    +0.000 A 
ATOM     24  C   UNL     1       0.073  10.537  22.380  0.00  0.00    +0.000 A 
BRANCH  19  26
ATOM     25  C   UNL     1       1.598  13.505  20.873  0.00  0.00    +0.000 C 
ATOM     26  O   UNL     1       1.498  12.174  21.379  0.00  0.00    +0.000 OA
ENDBRANCH  19  26
ENDBRANCH  17  24
ENDBRANCH  16  17
ENDBRANCH  10  16
ENDBRANCH   1  15
BRANCH   9  27
ATOM     27  N   UNL     1       3.239   5.529  17.410  0.00  0.00    +0.000 N 
ATOM     28  H   UNL     1       2.736   6.035  16.682  0.00  0.00    +0.000 HD
BRANCH  27  29
ATOM     29  C   UNL     1       4.688   5.382  17.105  0.00  0.00    +0.000 C 
ATOM     30  C   UNL     1       4.948   3.894  16.751  0.00  0.00    +0.000 C 
ATOM     31  C   UNL     1       5.001   6.447  16.032  0.00  0.00    +0.000 C 
BRANCH  29  32
ATOM     32  C   UNL     1       5.598   5.717  18.371  0.00  0.00    +0.000 C 
BRANCH  32  33
ATOM     33  C   UNL     1       7.191   5.757  18.246  0.00  0.00    +0.000 C 
ATOM     34  C   UNL     1       7.732   7.068  17.645  0.00  0.00    +0.000 C 
ATOM     35  C   UNL     1       7.800   5.646  19.666  0.00  0.00    +0.000 C 
ATOM     36  C   UNL     1       7.800   4.589  17.447  0.00  0.00    +0.000 C 
ENDBRANCH  32  33
ENDBRANCH  29  32
ENDBRANCH  27  29
ENDBRANCH   9  27
TORSDOF 9
ENDMDL
MODEL 3
REMARK VINA RESULT:      -6.0      3.298      6.973
REMARK  Name = 
REMARK  15 active torsions:
REMARK  status: ('A' for Active; 'I' for Inactive)
REMARK    1  A    between atoms: C_1  and  O_2
REMARK    2  A    between atoms: O_2  and  C_3
REMARK    3  A    between atoms: C_8  and  C_9
REMARK    4  A    between atoms: C_9  and  O_11
REMARK    5  A    between atoms: O_11  and  C_12
REMARK    6  A    between atoms: C_17  and  C_18
REMARK    7  A    between atoms: C_26  and  N_27
REMARK    8  A    between atoms: N_27  and  C_28
REMARK    9  A    between atoms: C_28  and  C_29
REMARK   10  A    between atoms: C_28  and  C_30
REMARK   11  A    between atoms: C_28  and  C_31
REMARK   12  A    between atoms: C_31  and  C_32
REMARK   13  A    between atoms: C_32  and  C_33
REMARK   14  A    between atoms: C_32  and  C_34
REMARK   15  A    between atoms: C_32  and  C_35
REMARK                            x       y       z     vdW  Elec       q    Type
REMARK                         _______ _______ _______ _____ _____    ______ ____
ROOT
ATOM      1  C   UNL     1       1.313  11.964  20.547  0.00  0.00    +0.000 A 
ATOM      2  N   UNL     1       2.171  12.842  21.163  0.00  0.00    +0.000 NA
ATOM      3  C   UNL     1       2.563  13.664  20.231  0.00  0.00    +0.000 A 
ATOM      4  C   UNL     1       3.436  14.795  20.338  0.00  0.00    +0.000 A 
ATOM      5  C   UNL     1       3.767  15.495  19.237  0.00  0.00    +0.000 A 
ATOM      6  C   UNL     1       3.268  15.116  17.936  0.00  0.00    +0.000 A 
ATOM      7  C   UNL     1       2.449  14.059  17.841  0.00  0.00    +0.000 A 
ATOM      8  N   UNL     1       2.047  13.331  18.977  0.00  0.00    +0.000 N 
ATOM      9  C   UNL     1       1.122  12.275  19.190  0.00  0.00    +0.000 A 
ENDROOT
BRANCH   1  15
ATOM     10  C   UNL     1       1.123   9.487  21.042  0.00  0.00    +0.000 A 
ATOM     11  C   UNL     1       0.427   8.448  21.684  0.00  0.00    +0.000 A 
ATOM     12  C   UNL     1      -0.563   8.726  22.627  0.00  0.00    +0.000 A 
ATOM     13  C   UNL     1      -0.902  10.043  22.906  0.00  0.00    +0.000 A 
ATOM     14  C   UNL     1      -0.261  11.081  22.231  0.00  0.00    +0.000 A 
ATOM     15  C   UNL     1       0.768  10.832  21.298  0.00  0.00    +0.000 A 
BRANCH  10  16
ATOM     16  O   UNL     1       2.130   9.173  20.075  0.00  0.00    +0.000 OA
BRANCH  16  17
ATOM     17  C   UNL     1       1.792   8.525  18.891  0.00  0.00    +0.000 C 
ATOM     18  O   UNL     1       0.837   8.804  18.170  0.00  0.00    +0.000 OA
BRANCH  17  24
ATOM     19  C   UNL     1       2.629   6.101  19.205  0.00  0.00    +0.000 A 
ATOM     20  C   UNL     1       3.487   5.081  18.748  0.00  0.00    +0.000 A 
ATOM     21  C   UNL     1       4.408   5.310  17.724  0.00  0.00    +0.000 A 
ATOM     22  C   UNL     1       4.478   6.562  17.129  0.00  0.00    +0.000 A 
ATOM     23  C   UNL     1       3.596   7.564  17.534  0.00  0.00    +0.000 A 
ATOM     24  C   UNL     1       2.644   7.344  18.554  0.00  0.00    +0.000 A 
BRANCH  19  26
ATOM     25  C   UNL     1       1.847   4.623  20.875  0.00  0.00    +0.000 C 
ATOM     26  O   UNL     1       1.789   5.914  20.268  0.00  0.00    +0.000 OA
ENDBRANCH  19  26
ENDBRANCH  17  24
ENDBRANCH  16  17
ENDBRANCH  10  16
ENDBRANCH   1  15
BRANCH   9  27
ATOM     27  N   UNL     1       0.231  11.709  18.266  0.00  0.00    +0.000 N 
ATOM     28  H   UNL     1       0.595  10.941  17.703  0.00  0.00    +0.000 HD
BRANCH  27  29
ATOM     29  C   UNL     1      -1.255  11.703  18.342  0.00  0.00    +0.000 C 
ATOM     30  C   UNL     1      -1.690  10.364  18.993  0.00  0.00    +0.000 C 
ATOM     31  C   UNL     1      -1.645  13.015  19.058  0.00  0.00    +0.000 C 
BRANCH  29  32
ATOM     32  C   UNL     1      -1.924  11.748  16.895  0.00  0.00    +0.000 C 
BRANCH  32  33
ATOM     33  C   UNL     1      -3.215  10.866  16.563  0.00  0.00    +0.000 C 
ATOM     34  C   UNL     1      -3.272   9.537  17.339  0.00  0.00    +0.000 C 
ATOM     35  C   UNL     1      -4.477  11.664  16.975  0.00  0.00    +0.000 C 
ATOM     36  C   UNL     1      -3.403  10.543  15.068  0.00  0.00    +0.000 C 
ENDBRANCH  32  33
ENDBRANCH  29  32
ENDBRANCH  27  29
ENDBRANCH   9  27
TORSDOF 9
ENDMDL
MODEL 4
REMARK VINA RESULT:      -6.0      3.209      6.795
REMARK  Name = 
REMARK  15 active torsions:
REMARK  status: ('A' for Active; 'I' for Inactive)
REMARK    1  A    between atoms: C_1  and  O_2
REMARK    2  A    between atoms: O_2  and  C_3
REMARK    3  A    between atoms: C_8  and  C_9
REMARK    4  A    between atoms: C_9  and  O_11
REMARK    5  A    between atoms: O_11  and  C_12
REMARK    6  A    between atoms: C_17  and  C_18
REMARK    7  A    between atoms: C_26  and  N_27
REMARK    8  A    between atoms: N_27  and  C_28
REMARK    9  A    between atoms: C_28  and  C_29
REMARK   10  A    between atoms: C_28  and  C_30
REMARK   11  A    between atoms: C_28  and  C_31
REMARK   12  A    between atoms: C_31  and  C_32
REMARK   13  A    between atoms: C_32  and  C_33
REMARK   14  A    between atoms: C_32  and  C_34
REMARK   15  A    between atoms: C_32  and  C_35
REMARK                            x       y       z     vdW  Elec       q    Type
REMARK                         _______ _______ _______ _____ _____    ______ ____
ROOT
ATOM      1  C   UNL     1       1.239  12.807  18.974  0.00  0.00    +0.000 A 
ATOM      2  N   UNL     1       2.280  13.009  18.102  0.00  0.00    +0.000 NA
ATOM      3  C   UNL     1       3.027  13.926  18.649  0.00  0.00    +0.000 A 
ATOM      4  C   UNL     1       4.259  14.483  18.176  0.00  0.00    +0.000 A 
ATOM      5  C   UNL     1       4.858  15.470  18.866  0.00  0.00    +0.000 A 
ATOM      6  C   UNL     1       4.271  15.995  20.077  0.00  0.00    +0.000 A 
ATOM      7  C   UNL     1       3.120  15.469  20.518  0.00  0.00    +0.000 A 
ATOM      8  N   UNL     1       2.489  14.406  19.845  0.00  0.00    +0.000 N 
ATOM      9  C   UNL     1       1.362  13.591  20.135  0.00  0.00    +0.000 A 
ENDROOT
BRANCH   1  15
ATOM     10  C   UNL     1       0.301  10.505  18.490  0.00  0.00    +0.000 A 
ATOM     11  C   UNL     1      -0.746   9.729  17.964  0.00  0.00    +0.000 A 
ATOM     12  C   UNL     1      -1.966  10.312  17.621  0.00  0.00    +0.000 A 
ATOM     13  C   UNL     1      -2.140  11.682  17.756  0.00  0.00    +0.000 A 
ATOM     14  C   UNL     1      -1.087  12.471  18.220  0.00  0.00    +0.000 A 
ATOM     15  C   UNL     1       0.146  11.905  18.607  0.00  0.00    +0.000 A 
BRANCH  10  16
ATOM     16  O   UNL     1       1.544   9.881  18.829  0.00  0.00    +0.000 OA
BRANCH  16  17
ATOM     17  C   UNL     1       1.562   8.704  19.571  0.00  0.00    +0.000 C 
ATOM     18  O   UNL     1       1.056   8.548  20.681  0.00  0.00    +0.000 OA
BRANCH  17  24
ATOM     19  C   UNL     1       2.413   6.268  19.436  0.00  0.00    +0.000 A 
ATOM     20  C   UNL     1       3.188   5.326  18.730  0.00  0.00    +0.000 A 
ATOM     21  C   UNL     1       3.956   5.699  17.624  0.00  0.00    +0.000 A 
ATOM     22  C   UNL     1       3.951   7.020  17.198  0.00  0.00    +0.000 A 
ATOM     23  C   UNL     1       3.145   7.950  17.855  0.00  0.00    +0.000 A 
ATOM     24  C   UNL     1       2.346   7.587  18.962  0.00  0.00    +0.000 A 
BRANCH  19  26
ATOM     25  C   UNL     1       1.502   4.535  20.760  0.00  0.00    +0.000 C 
ATOM     26  O   UNL     1       1.730   5.932  20.573  0.00  0.00    +0.000 OA
ENDBRANCH  19  26
ENDBRANCH  17  24
ENDBRANCH  16  17
ENDBRANCH  10  16
ENDBRANCH   1  15
BRANCH   9  27
ATOM     27  N   UNL     1       0.588  13.573  21.305  0.00  0.00    +0.000 N 
ATOM     28  H   UNL     1       0.921  12.968  22.055  0.00  0.00    +0.000 HD
BRANCH  27  29
ATOM     29  C   UNL     1      -0.312  14.650  21.800  0.00  0.00    +0.000 C 
ATOM     30  C   UNL     1       0.532  15.596  22.695  0.00  0.00    +0.000 C 
ATOM     31  C   UNL     1      -0.982  15.249  20.544  0.00  0.00    +0.000 C 
BRANCH  29  32
ATOM     32  C   UNL     1      -1.480  14.071  22.718  0.00  0.00    +0.000 C 
BRANCH  32  33
ATOM     33  C   UNL     1      -2.111  12.631  22.429  0.00  0.00    +0.000 C 
ATOM     34  C   UNL     1      -2.991  12.099  23.576  0.00  0.00    +0.000 C 
ATOM     35  C   UNL     1      -3.033  12.737  21.188  0.00  0.00    +0.000 C 
ATOM     36  C   UNL     1      -1.082  11.538  22.083  0.00  0.00    +0.000 C 
ENDBRANCH  32  33
ENDBRANCH  29  32
ENDBRANCH  27  29
ENDBRANCH   9  27
TORSDOF 9
ENDMDL
MODEL 5
REMARK VINA RESULT:      -6.0      2.071      2.781
REMARK  Name = 
REMARK  15 active torsions:
REMARK  status: ('A' for Active; 'I' for Inactive)
REMARK    1  A    between atoms: C_1  and  O_2
REMARK    2  A    between atoms: O_2  and  C_3
REMARK    3  A    between atoms: C_8  and  C_9
REMARK    4  A    between atoms: C_9  and  O_11
REMARK    5  A    between atoms: O_11  and  C_12
REMARK    6  A    between atoms: C_17  and  C_18
REMARK    7  A    between atoms: C_26  and  N_27
REMARK    8  A    between atoms: N_27  and  C_28
REMARK    9  A    between atoms: C_28  and  C_29
REMARK   10  A    between atoms: C_28  and  C_30
REMARK   11  A    between atoms: C_28  and  C_31
REMARK   12  A    between atoms: C_31  and  C_32
REMARK   13  A    between atoms: C_32  and  C_33
REMARK   14  A    between atoms: C_32  and  C_34
REMARK   15  A    between atoms: C_32  and  C_35
REMARK                            x       y       z     vdW  Elec       q    Type
REMARK                         _______ _______ _______ _____ _____    ______ ____
ROOT
ATOM      1  C   UNL     1      -1.557  12.448  22.725  0.00  0.00    +0.000 A 
ATOM      2  N   UNL     1      -1.130  11.327  23.392  0.00  0.00    +0.000 NA
ATOM      3  C   UNL     1      -0.518  10.598  22.502  0.00  0.00    +0.000 A 
ATOM      4  C   UNL     1       0.148   9.341  22.672  0.00  0.00    +0.000 A 
ATOM      5  C   UNL     1       0.678   8.712  21.607  0.00  0.00    +0.000 A 
ATOM      6  C   UNL     1       0.576   9.277  20.282  0.00  0.00    +0.000 A 
ATOM      7  C   UNL     1      -0.045  10.455  20.128  0.00  0.00    +0.000 A 
ATOM      8  N   UNL     1      -0.573  11.161  21.225  0.00  0.00    +0.000 N 
ATOM      9  C   UNL     1      -1.157  12.446  21.377  0.00  0.00    +0.000 A 
ENDROOT
BRANCH   1  15
ATOM     10  C   UNL     1      -3.792  13.489  23.307  0.00  0.00    +0.000 A 
ATOM     11  C   UNL     1      -4.496  14.572  23.860  0.00  0.00    +0.000 A 
ATOM     12  C   UNL     1      -3.832  15.564  24.581  0.00  0.00    +0.000 A 
ATOM     13  C   UNL     1      -2.452  15.511  24.720  0.00  0.00    +0.000 A 
ATOM     14  C   UNL     1      -1.735  14.473  24.124  0.00  0.00    +0.000 A 
ATOM     15  C   UNL     1      -2.383  13.438  23.418  0.00  0.00    +0.000 A 
BRANCH  10  16
ATOM     16  O   UNL     1      -4.498  12.488  22.568  0.00  0.00    +0.000 OA
BRANCH  16  17
ATOM     17  C   UNL     1      -5.890  12.473  22.556  0.00  0.00    +0.000 C 
ATOM     18  O   UNL     1      -6.612  12.189  23.509  0.00  0.00    +0.000 OA
BRANCH  17  24
ATOM     19  C   UNL     1      -7.114  13.953  20.828  0.00  0.00    +0.000 A 
ATOM     20  C   UNL     1      -7.638  14.056  19.524  0.00  0.00    +0.000 A 
ATOM     21  C   UNL     1      -7.648  12.963  18.655  0.00  0.00    +0.000 A 
ATOM     22  C   UNL     1      -7.121  11.749  19.072  0.00  0.00    +0.000 A 
ATOM     23  C   UNL     1      -6.548  11.649  20.341  0.00  0.00    +0.000 A 
ATOM     24  C   UNL     1      -6.511  12.750  21.225  0.00  0.00    +0.000 A 
BRANCH  19  26
ATOM     25  C   UNL     1      -6.672  16.237  21.244  0.00  0.00    +0.000 C 
ATOM     26  O   UNL     1      -7.183  14.990  21.716  0.00  0.00    +0.000 OA
ENDBRANCH  19  26
ENDBRANCH  17  24
ENDBRANCH  16  17
ENDBRANCH  10  16
ENDBRANCH   1  15
BRANCH   9  27
ATOM     27  N   UNL     1      -1.279  13.458  20.413  0.00  0.00    +0.000 N 
ATOM     28  H   UNL     1      -2.172  13.950  20.387  0.00  0.00    +0.000 HD
BRANCH  27  29
ATOM     29  C   UNL     1      -0.177  14.248  19.799  0.00  0.00    +0.000 C 
ATOM     30  C   UNL     1       0.924  14.438  20.876  0.00  0.00    +0.000 C 
ATOM     31  C   UNL     1       0.202  13.503  18.501  0.00  0.00    +0.000 C 
BRANCH  29  32
ATOM     32  C   UNL     1      -0.658  15.707  19.375  0.00  0.00    +0.000 C 
BRANCH  32  33
ATOM     33  C   UNL     1      -1.612  16.564  20.329  0.00  0.00    +0.000 C 
ATOM     34  C   UNL     1      -0.936  17.012  21.639  0.00  0.00    +0.000 C 
ATOM     35  C   UNL     1      -2.018  17.861  19.585  0.00  0.00    +0.000 C 
ATOM     36  C   UNL     1      -2.937  15.872  20.699  0.00  0.00    +0.000 C 
ENDBRANCH  32  33
ENDBRANCH  29  32
ENDBRANCH  27  29
ENDBRANCH   9  27
TORSDOF 9
ENDMDL
MODEL 6
REMARK VINA RESULT:      -6.0      3.281      7.000
REMARK  Name = 
REMARK  15 active torsions:
REMARK  status: ('A' for Active; 'I' for Inactive)
REMARK    1  A    between atoms: C_1  and  O_2
REMARK    2  A    between atoms: O_2  and  C_3
REMARK    3  A    between atoms: C_8  and  C_9
REMARK    4  A    between atoms: C_9  and  O_11
REMARK    5  A    between atoms: O_11  and  C_12
REMARK    6  A    between atoms: C_17  and  C_18
REMARK    7  A    between atoms: C_26  and  N_27
REMARK    8  A    between atoms: N_27  and  C_28
REMARK    9  A    between atoms: C_28  and  C_29
REMARK   10  A    between atoms: C_28  and  C_30
REMARK   11  A    between atoms: C_28  and  C_31
REMARK   12  A    between atoms: C_31  and  C_32
REMARK   13  A    between atoms: C_32  and  C_33
REMARK   14  A    between atoms: C_32  and  C_34
REMARK   15  A    between atoms: C_32  and  C_35
REMARK                            x       y       z     vdW  Elec       q    Type
REMARK                         _______ _______ _______ _____ _____    ______ ____
ROOT
ATOM      1  C   UNL     1       1.285  12.116  20.674  0.00  0.00    +0.000 A 
ATOM      2  N   UNL     1       2.156  13.024  21.223  0.00  0.00    +0.000 NA
ATOM      3  C   UNL     1       2.629  13.710  20.221  0.00  0.00    +0.000 A 
ATOM      4  C   UNL     1       3.549  14.808  20.236  0.00  0.00    +0.000 A 
ATOM      5  C   UNL     1       3.962  15.354  19.078  0.00  0.00    +0.000 A 
ATOM      6  C   UNL     1       3.503  14.842  17.808  0.00  0.00    +0.000 A 
ATOM      7  C   UNL     1       2.640  13.817  17.798  0.00  0.00    +0.000 A 
ATOM      8  N   UNL     1       2.153  13.250  18.991  0.00  0.00    +0.000 N 
ATOM      9  C   UNL     1       1.169  12.268  19.282  0.00  0.00    +0.000 A 
ENDROOT
BRANCH   1  15
ATOM     10  C   UNL     1       0.978   9.732  21.473  0.00  0.00    +0.000 A 
ATOM     11  C   UNL     1       0.206   8.805  22.195  0.00  0.00    +0.000 A 
ATOM     12  C   UNL     1      -0.834   9.229  23.021  0.00  0.00    +0.000 A 
ATOM     13  C   UNL     1      -1.146  10.579  23.102  0.00  0.00    +0.000 A 
ATOM     14  C   UNL     1      -0.426  11.502  22.344  0.00  0.00    +0.000 A 
ATOM     15  C   UNL     1       0.653  11.107  21.526  0.00  0.00    +0.000 A 
BRANCH  10  16
ATOM     16  O   UNL     1       2.036   9.268  20.629  0.00  0.00    +0.000 OA
BRANCH  16  17
ATOM     17  C   UNL     1       1.756   8.482  19.515  0.00  0.00    +0.000 C 
ATOM     18  O   UNL     1       1.083   8.827  18.546  0.00  0.00    +0.000 OA
BRANCH  17  24
ATOM     19  C   UNL     1       3.204   6.494  18.724  0.00  0.00    +0.000 A 
ATOM     20  C   UNL     1       3.596   5.159  18.944  0.00  0.00    +0.000 A 
ATOM     21  C   UNL     1       3.008   4.384  19.947  0.00  0.00    +0.000 A 
ATOM     22  C   UNL     1       2.025   4.937  20.755  0.00  0.00    +0.000 A 
ATOM     23  C   UNL     1       1.668   6.275  20.583  0.00  0.00    +0.000 A 
ATOM     24  C   UNL     1       2.267   7.079  19.589  0.00  0.00    +0.000 A 
BRANCH  19  26
ATOM     25  C   UNL     1       4.973   6.799  17.186  0.00  0.00    +0.000 C 
ATOM     26  O   UNL     1       3.708   7.232  17.688  0.00  0.00    +0.000 OA
ENDBRANCH  19  26
ENDBRANCH  17  24
ENDBRANCH  16  17
ENDBRANCH  10  16
ENDBRANCH   1  15
BRANCH   9  27
ATOM     27  N   UNL     1       0.294  11.633  18.388  0.00  0.00    +0.000 N 
ATOM     28  H   UNL     1       0.657  10.805  17.915  0.00  0.00    +0.000 HD
BRANCH  27  29
ATOM     29  C   UNL     1      -1.193  11.666  18.415  0.00  0.00    +0.000 C 
ATOM     30  C   UNL     1      -1.684  10.348  19.071  0.00  0.00    +0.000 C 
ATOM     31  C   UNL     1      -1.572  12.999  19.097  0.00  0.00    +0.000 C 
BRANCH  29  32
ATOM     32  C   UNL     1      -1.812  11.704  16.946  0.00  0.00    +0.000 C 
BRANCH  32  33
ATOM     33  C   UNL     1      -3.171  10.934  16.610  0.00  0.00    +0.000 C 
ATOM     34  C   UNL     1      -3.366  10.648  15.108  0.00  0.00    +0.000 C 
ATOM     35  C   UNL     1      -3.143   9.554  17.314  0.00  0.00    +0.000 C 
ATOM     36  C   UNL     1      -4.446  11.630  17.123  0.00  0.00    +0.000 C 
ENDBRANCH  32  33
ENDBRANCH  29  32
ENDBRANCH  27  29
ENDBRANCH   9  27
TORSDOF 9
ENDMDL
MODEL 7
REMARK VINA RESULT:      -5.9      1.268      2.283
REMARK  Name = 
REMARK  15 active torsions:
REMARK  status: ('A' for Active; 'I' for Inactive)
REMARK    1  A    between atoms: C_1  and  O_2
REMARK    2  A    between atoms: O_2  and  C_3
REMARK    3  A    between atoms: C_8  and  C_9
REMARK    4  A    between atoms: C_9  and  O_11
REMARK    5  A    between atoms: O_11  and  C_12
REMARK    6  A    between atoms: C_17  and  C_18
REMARK    7  A    between atoms: C_26  and  N_27
REMARK    8  A    between atoms: N_27  and  C_28
REMARK    9  A    between atoms: C_28  and  C_29
REMARK   10  A    between atoms: C_28  and  C_30
REMARK   11  A    between atoms: C_28  and  C_31
REMARK   12  A    between atoms: C_31  and  C_32
REMARK   13  A    between atoms: C_32  and  C_33
REMARK   14  A    between atoms: C_32  and  C_34
REMARK   15  A    between atoms: C_32  and  C_35
REMARK                            x       y       z     vdW  Elec       q    Type
REMARK                         _______ _______ _______ _____ _____    ______ ____
ROOT
ATOM      1  C   UNL     1      -1.173  12.520  22.616  0.00  0.00    +0.000 A 
ATOM      2  N   UNL     1      -0.808  11.341  23.218  0.00  0.00    +0.000 NA
ATOM      3  C   UNL     1      -0.205  10.645  22.296  0.00  0.00    +0.000 A 
ATOM      4  C   UNL     1       0.404   9.353  22.399  0.00  0.00    +0.000 A 
ATOM      5  C   UNL     1       0.934   8.771  21.308  0.00  0.00    +0.000 A 
ATOM      6  C   UNL     1       0.888   9.424  20.020  0.00  0.00    +0.000 A 
ATOM      7  C   UNL     1       0.319  10.634  19.929  0.00  0.00    +0.000 A 
ATOM      8  N   UNL     1      -0.206  11.290  21.058  0.00  0.00    +0.000 N 
ATOM      9  C   UNL     1      -0.741  12.587  21.280  0.00  0.00    +0.000 A 
ENDROOT
BRANCH   1  15
ATOM     10  C   UNL     1      -3.360  13.684  23.142  0.00  0.00    +0.000 A 
ATOM     11  C   UNL     1      -4.021  14.759  23.762  0.00  0.00    +0.000 A 
ATOM     12  C   UNL     1      -3.344  15.604  24.641  0.00  0.00    +0.000 A 
ATOM     13  C   UNL     1      -1.990  15.415  24.878  0.00  0.00    +0.000 A 
ATOM     14  C   UNL     1      -1.310  14.389  24.222  0.00  0.00    +0.000 A 
ATOM     15  C   UNL     1      -1.974  13.497  23.354  0.00  0.00    +0.000 A 
BRANCH  10  16
ATOM     16  O   UNL     1      -4.077  12.836  22.240  0.00  0.00    +0.000 OA
BRANCH  16  17
ATOM     17  C   UNL     1      -4.315  13.242  20.931  0.00  0.00    +0.000 C 
ATOM     18  O   UNL     1      -3.973  14.315  20.440  0.00  0.00    +0.000 OA
BRANCH  17  24
ATOM     19  C   UNL     1      -4.739  11.678  18.918  0.00  0.00    +0.000 A 
ATOM     20  C   UNL     1      -5.628  10.789  18.282  0.00  0.00    +0.000 A 
ATOM     21  C   UNL     1      -6.919  10.578  18.770  0.00  0.00    +0.000 A 
ATOM     22  C   UNL     1      -7.340  11.244  19.913  0.00  0.00    +0.000 A 
ATOM     23  C   UNL     1      -6.450  12.083  20.584  0.00  0.00    +0.000 A 
ATOM     24  C   UNL     1      -5.134  12.293  20.116  0.00  0.00    +0.000 A 
BRANCH  19  26
ATOM     25  C   UNL     1      -2.752  10.830  17.960  0.00  0.00    +0.000 C 
ATOM     26  O   UNL     1      -3.507  11.961  18.397  0.00  0.00    +0.000 OA
ENDBRANCH  19  26
ENDBRANCH  17  24
ENDBRANCH  16  17
ENDBRANCH  10  16
ENDBRANCH   1  15
BRANCH   9  27
ATOM     27  N   UNL     1      -0.797  13.663  20.381  0.00  0.00    +0.000 N 
ATOM     28  H   UNL     1      -1.728  14.010  20.154  0.00  0.00    +0.000 HD
BRANCH  27  29
ATOM     29  C   UNL     1       0.266  14.672  20.124  0.00  0.00    +0.000 C 
ATOM     30  C   UNL     1       1.607  13.913  19.948  0.00  0.00    +0.000 C 
ATOM     31  C   UNL     1      -0.243  15.527  18.942  0.00  0.00    +0.000 C 
BRANCH  29  32
ATOM     32  C   UNL     1       0.457  15.659  21.362  0.00  0.00    +0.000 C 
BRANCH  32  33
ATOM     33  C   UNL     1      -0.360  17.030  21.449  0.00  0.00    +0.000 C 
ATOM     34  C   UNL     1      -1.889  16.844  21.390  0.00  0.00    +0.000 C 
ATOM     35  C   UNL     1      -0.057  17.699  22.813  0.00  0.00    +0.000 C 
ATOM     36  C   UNL     1       0.025  18.075  20.385  0.00  0.00    +0.000 C 
ENDBRANCH  32  33
ENDBRANCH  29  32
ENDBRANCH  27  29
ENDBRANCH   9  27
TORSDOF 9
ENDMDL
MODEL 8
REMARK VINA RESULT:      -5.8      2.256      6.870
REMARK  Name = 
REMARK  15 active torsions:
REMARK  status: ('A' for Active; 'I' for Inactive)
REMARK    1  A    between atoms: C_1  and  O_2
REMARK    2  A    between atoms: O_2  and  C_3
REMARK    3  A    between atoms: C_8  and  C_9
REMARK    4  A    between atoms: C_9  and  O_11
REMARK    5  A    between atoms: O_11  and  C_12
REMARK    6  A    between atoms: C_17  and  C_18
REMARK    7  A    between atoms: C_26  and  N_27
REMARK    8  A    between atoms: N_27  and  C_28
REMARK    9  A    between atoms: C_28  and  C_29
REMARK   10  A    between atoms: C_28  and  C_30
REMARK   11  A    between atoms: C_28  and  C_31
REMARK   12  A    between atoms: C_31  and  C_32
REMARK   13  A    between atoms: C_32  and  C_33
REMARK   14  A    between atoms: C_32  and  C_34
REMARK   15  A    between atoms: C_32  and  C_35
REMARK                            x       y       z     vdW  Elec       q    Type
REMARK                         _______ _______ _______ _____ _____    ______ ____
ROOT
ATOM      1  C   UNL     1      -1.382  13.150  22.551  0.00  0.00    +0.000 A 
ATOM      2  N   UNL     1      -0.887  13.783  23.664  0.00  0.00    +0.000 NA
ATOM      3  C   UNL     1      -1.469  14.949  23.694  0.00  0.00    +0.000 A 
ATOM      4  C   UNL     1      -1.340  15.994  24.666  0.00  0.00    +0.000 A 
ATOM      5  C   UNL     1      -1.989  17.158  24.490  0.00  0.00    +0.000 A 
ATOM      6  C   UNL     1      -2.810  17.385  23.323  0.00  0.00    +0.000 A 
ATOM      7  C   UNL     1      -2.931  16.403  22.418  0.00  0.00    +0.000 A 
ATOM      8  N   UNL     1      -2.300  15.157  22.592  0.00  0.00    +0.000 N 
ATOM      9  C   UNL     1      -2.345  13.927  21.884  0.00  0.00    +0.000 A 
ENDROOT
BRANCH   1  15
ATOM     10  C   UNL     1      -0.345  11.566  20.868  0.00  0.00    +0.000 A 
ATOM     11  C   UNL     1      -0.016  10.245  20.517  0.00  0.00    +0.000 A 
ATOM     12  C   UNL     1      -0.111   9.213  21.450  0.00  0.00    +0.000 A 
ATOM     13  C   UNL     1      -0.579   9.477  22.729  0.00  0.00    +0.000 A 
ATOM     14  C   UNL     1      -0.966  10.773  23.070  0.00  0.00    +0.000 A 
ATOM     15  C   UNL     1      -0.849  11.844  22.159  0.00  0.00    +0.000 A 
BRANCH  10  16
ATOM     16  O   UNL     1      -0.243  12.605  19.889  0.00  0.00    +0.000 OA
BRANCH  16  17
ATOM     17  C   UNL     1       0.938  13.329  19.752  0.00  0.00    +0.000 C 
ATOM     18  O   UNL     1       1.950  12.944  19.170  0.00  0.00    +0.000 OA
BRANCH  17  24
ATOM     19  C   UNL     1       0.258  15.800  20.077  0.00  0.00    +0.000 A 
ATOM     20  C   UNL     1       0.369  16.959  20.871  0.00  0.00    +0.000 A 
ATOM     21  C   UNL     1       1.224  17.007  21.973  0.00  0.00    +0.000 A 
ATOM     22  C   UNL     1       1.975  15.889  22.310  0.00  0.00    +0.000 A 
ATOM     23  C   UNL     1       1.831  14.717  21.566  0.00  0.00    +0.000 A 
ATOM     24  C   UNL     1       0.956  14.645  20.460  0.00  0.00    +0.000 A 
BRANCH  19  26
ATOM     25  C   UNL     1      -0.468  16.959  18.150  0.00  0.00    +0.000 C 
ATOM     26  O   UNL     1      -0.507  15.773  18.943  0.00  0.00    +0.000 OA
ENDBRANCH  19  26
ENDBRANCH  17  24
ENDBRANCH  16  17
ENDBRANCH  10  16
ENDBRANCH   1  15
BRANCH   9  27
ATOM     27  N   UNL     1      -3.168  13.584  20.801  0.00  0.00    +0.000 N 
ATOM     28  H   UNL     1      -2.707  13.134  20.011  0.00  0.00    +0.000 HD
BRANCH  27  29
ATOM     29  C   UNL     1      -4.630  13.308  20.839  0.00  0.00    +0.000 C 
ATOM     30  C   UNL     1      -4.968  12.745  22.245  0.00  0.00    +0.000 C 
ATOM     31  C   UNL     1      -5.317  14.619  20.400  0.00  0.00    +0.000 C 
BRANCH  29  32
ATOM     32  C   UNL     1      -5.050  12.188  19.784  0.00  0.00    +0.000 C 
BRANCH  32  33
ATOM     33  C   UNL     1      -6.589  11.832  19.538  0.00  0.00    +0.000 C 
ATOM     34  C   UNL     1      -7.255  12.692  18.447  0.00  0.00    +0.000 C 
ATOM     35  C   UNL     1      -6.684  10.365  19.052  0.00  0.00    +0.000 C 
ATOM     36  C   UNL     1      -7.473  11.907  20.797  0.00  0.00    +0.000 C 
ENDBRANCH  32  33
ENDBRANCH  29  32
ENDBRANCH  27  29
ENDBRANCH   9  27
TORSDOF 9
ENDMDL
MODEL 9
REMARK VINA RESULT:      -5.8      1.373      2.362
REMARK  Name = 
REMARK  15 active torsions:
REMARK  status: ('A' for Active; 'I' for Inactive)
REMARK    1  A    between atoms: C_1  and  O_2
REMARK    2  A    between atoms: O_2  and  C_3
REMARK    3  A    between atoms: C_8  and  C_9
REMARK    4  A    between atoms: C_9  and  O_11
REMARK    5  A    between atoms: O_11  and  C_12
REMARK    6  A    between atoms: C_17  and  C_18
REMARK    7  A    between atoms: C_26  and  N_27
REMARK    8  A    between atoms: N_27  and  C_28
REMARK    9  A    between atoms: C_28  and  C_29
REMARK   10  A    between atoms: C_28  and  C_30
REMARK   11  A    between atoms: C_28  and  C_31
REMARK   12  A    between atoms: C_31  and  C_32
REMARK   13  A    between atoms: C_32  and  C_33
REMARK   14  A    between atoms: C_32  and  C_34
REMARK   15  A    between atoms: C_32  and  C_35
REMARK                            x       y       z     vdW  Elec       q    Type
REMARK                         _______ _______ _______ _____ _____    ______ ____
ROOT
ATOM      1  C   UNL     1      -1.389  12.526  22.743  0.00  0.00    +0.000 A 
ATOM      2  N   UNL     1      -1.044  11.350  23.362  0.00  0.00    +0.000 NA
ATOM      3  C   UNL     1      -0.428  10.643  22.457  0.00  0.00    +0.000 A 
ATOM      4  C   UNL     1       0.171   9.347  22.582  0.00  0.00    +0.000 A 
ATOM      5  C   UNL     1       0.717   8.754  21.505  0.00  0.00    +0.000 A 
ATOM      6  C   UNL     1       0.699   9.395  20.211  0.00  0.00    +0.000 A 
ATOM      7  C   UNL     1       0.140  10.609  20.100  0.00  0.00    +0.000 A 
ATOM      8  N   UNL     1      -0.401  11.277  21.213  0.00  0.00    +0.000 N 
ATOM      9  C   UNL     1      -0.932  12.580  21.415  0.00  0.00    +0.000 A 
ENDROOT
BRANCH   1  15
ATOM     10  C   UNL     1      -3.579  13.704  23.224  0.00  0.00    +0.000 A 
ATOM     11  C   UNL     1      -4.245  14.788  23.821  0.00  0.00    +0.000 A 
ATOM     12  C   UNL     1      -3.579  15.641  24.700  0.00  0.00    +0.000 A 
ATOM     13  C   UNL     1      -2.229  15.450  24.959  0.00  0.00    +0.000 A 
ATOM     14  C   UNL     1      -1.543  14.414  24.325  0.00  0.00    +0.000 A 
ATOM     15  C   UNL     1      -2.198  13.515  23.458  0.00  0.00    +0.000 A 
BRANCH  10  16
ATOM     16  O   UNL     1      -4.287  12.848  22.322  0.00  0.00    +0.000 OA
BRANCH  16  17
ATOM     17  C   UNL     1      -4.494  13.234  21.001  0.00  0.00    +0.000 C 
ATOM     18  O   UNL     1      -4.167  14.312  20.510  0.00  0.00    +0.000 OA
BRANCH  17  24
ATOM     19  C   UNL     1      -4.836  11.691  18.957  0.00  0.00    +0.000 A 
ATOM     20  C   UNL     1      -5.673  10.763  18.306  0.00  0.00    +0.000 A 
ATOM     21  C   UNL     1      -6.944  10.460  18.799  0.00  0.00    +0.000 A 
ATOM     22  C   UNL     1      -7.395  11.072  19.959  0.00  0.00    +0.000 A 
ATOM     23  C   UNL     1      -6.554  11.951  20.643  0.00  0.00    +0.000 A 
ATOM     24  C   UNL     1      -5.258  12.253  20.171  0.00  0.00    +0.000 A 
BRANCH  19  26
ATOM     25  C   UNL     1      -2.805  10.992  17.970  0.00  0.00    +0.000 C 
ATOM     26  O   UNL     1      -3.628  12.063  18.433  0.00  0.00    +0.000 OA
ENDBRANCH  19  26
ENDBRANCH  17  24
ENDBRANCH  16  17
ENDBRANCH  10  16
ENDBRANCH   1  15
BRANCH   9  27
ATOM     27  N   UNL     1      -0.964  13.648  20.506  0.00  0.00    +0.000 N 
ATOM     28  H   UNL     1      -1.825  13.756  19.970  0.00  0.00    +0.000 HD
BRANCH  27  29
ATOM     29  C   UNL     1      -0.176  14.908  20.577  0.00  0.00    +0.000 C 
ATOM     30  C   UNL     1      -1.143  16.048  20.993  0.00  0.00    +0.000 C 
ATOM     31  C   UNL     1       1.023  14.603  21.501  0.00  0.00    +0.000 C 
BRANCH  29  32
ATOM     32  C   UNL     1       0.424  15.313  19.156  0.00  0.00    +0.000 C 
BRANCH  32  33
ATOM     33  C   UNL     1       0.757  16.838  18.813  0.00  0.00    +0.000 C 
ATOM     34  C   UNL     1      -0.423  17.601  18.179  0.00  0.00    +0.000 C 
ATOM     35  C   UNL     1       1.094  17.578  20.131  0.00  0.00    +0.000 C 
ATOM     36  C   UNL     1       1.985  17.037  17.904  0.00  0.00    +0.000 C 
ENDBRANCH  32  33
ENDBRANCH  29  32
ENDBRANCH  27  29
ENDBRANCH   9  27
TORSDOF 9
ENDMDL
