MODEL 1
REMARK VINA RESULT:      -6.9      0.000      0.000
REMARK  Name = 
REMARK  8 active torsions:
REMARK  status: ('A' for Active; 'I' for Inactive)
REMARK    1  A    between atoms: C_1  and  C_2
REMARK    2  A    between atoms: C_2  and  O_3
REMARK    3  A    between atoms: O_3  and  C_4
REMARK    4  A    between atoms: C_4  and  C_6
REMARK    5  A    between atoms: C_6  and  C_7
REMARK    6  A    between atoms: C_12  and  C_14
REMARK    7  A    between atoms: C_14  and  S_15
REMARK    8  A    between atoms: S_15  and  C_16
REMARK                            x       y       z     vdW  Elec       q    Type
REMARK                         _______ _______ _______ _____ _____    ______ ____
ROOT
ATOM      1  C   UNL     1       4.968   5.182  17.589  0.00  0.00    +0.000 A 
ATOM      2  N   UNL     1       4.597   4.577  18.701  0.00  0.00    +0.000 NA
ATOM      3  N   UNL     1       3.662   5.319  19.400  0.00  0.00    +0.000 NA
ATOM      4  C   UNL     1       3.343   6.434  18.779  0.00  0.00    +0.000 A 
ATOM      5  N   UNL     1       2.418   7.319  19.270  0.00  0.00    +0.000 N 
ATOM      6  C   UNL     1       1.938   8.447  18.643  0.00  0.00    +0.000 C 
ATOM      7  O   UNL     1       2.162   8.773  17.477  0.00  0.00    +0.000 OA
ATOM      8  S   UNL     1       4.230   6.713  17.353  0.00  0.00    +0.000 S 
ATOM      9  H   UNL     1       2.071   7.090  20.194  0.00  0.00    +0.000 HD
ENDROOT
BRANCH   1  10
ATOM     10  C   UNL     1       5.925   4.630  16.594  0.00  0.00    +0.000 C 
BRANCH  10  11
ATOM     11  C   UNL     1       7.329   4.958  17.037  0.00  0.00    +0.000 C 
ATOM     12  O   UNL     1       8.135   4.168  17.511  0.00  0.00    +0.000 OA
BRANCH  11  13
ATOM     13  O   UNL     1       7.574   6.286  16.837  0.00  0.00    +0.000 OA
BRANCH  13  15
ATOM     14  C   UNL     1       7.893   8.499  17.678  0.00  0.00    +0.000 C 
ATOM     15  C   UNL     1       7.925   7.019  18.018  0.00  0.00    +0.000 C 
ENDBRANCH  13  15
ENDBRANCH  11  13
ENDBRANCH  10  11
ENDBRANCH   1  10
BRANCH   6  16
ATOM     16  C   UNL     1       0.965   9.281  19.472  0.00  0.00    +0.000 C 
BRANCH  16  17
ATOM     17  S   UNL     1       0.605  10.893  18.697  0.00  0.00    +0.000 S 
BRANCH  17  18
ATOM     18  C   UNL     1      -1.112  10.768  18.214  0.00  0.00    +0.000 A 
ATOM     19  C   UNL     1      -1.632   9.871  17.277  0.00  0.00    +0.000 A 
ATOM     20  C   UNL     1      -3.001   9.869  16.977  0.00  0.00    +0.000 A 
ATOM     21  C   UNL     1      -3.863  10.760  17.614  0.00  0.00    +0.000 A 
ATOM     22  C   UNL     1      -3.360  11.653  18.552  0.00  0.00    +0.000 A 
ATOM     23  C   UNL     1      -1.995  11.658  18.846  0.00  0.00    +0.000 A 
ENDBRANCH  17  18
ENDBRANCH  16  17
ENDBRANCH   6  16
TORSDOF 7
ENDMDL
MODEL 2
REMARK VINA RESULT:      -6.7      4.289      6.165
REMARK  Name = 
REMARK  8 active torsions:
REMARK  status: ('A' for Active; 'I' for Inactive)
REMARK    1  A    between atoms: C_1  and  C_2
REMARK    2  A    between atoms: C_2  and  O_3
REMARK    3  A    between atoms: O_3  and  C_4
REMARK    4  A    between atoms: C_4  and  C_6
REMARK    5  A    between atoms: C_6  and  C_7
REMARK    6  A    between atoms: C_12  and  C_14
REMARK    7  A    between atoms: C_14  and  S_15
REMARK    8  A    between atoms: S_15  and  C_16
REMARK                            x       y       z     vdW  Elec       q    Type
REMARK                         _______ _______ _______ _____ _____    ______ ____
ROOT
ATOM      1  C   UNL     1       6.832   4.601  14.049  0.00  0.00    +0.000 A 
ATOM      2  N   UNL     1       7.663   5.327  14.774  0.00  0.00    +0.000 NA
ATOM      3  N   UNL     1       7.326   5.305  16.114  0.00  0.00    +0.000 NA
ATOM      4  C   UNL     1       6.278   4.546  16.355  0.00  0.00    +0.000 A 
ATOM      5  N   UNL     1       5.774   4.353  17.615  0.00  0.00    +0.000 N 
ATOM      6  C   UNL     1       4.760   3.495  17.978  0.00  0.00    +0.000 C 
ATOM      7  O   UNL     1       4.229   2.658  17.248  0.00  0.00    +0.000 OA
ATOM      8  S   UNL     1       5.564   3.885  14.957  0.00  0.00    +0.000 S 
ATOM      9  H   UNL     1       6.216   4.916  18.332  0.00  0.00    +0.000 HD
ENDROOT
BRANCH   1  10
ATOM     10  C   UNL     1       6.944   4.383  12.583  0.00  0.00    +0.000 C 
BRANCH  10  11
ATOM     11  C   UNL     1       5.970   3.305  12.177  0.00  0.00    +0.000 C 
ATOM     12  O   UNL     1       6.243   2.128  11.982  0.00  0.00    +0.000 OA
BRANCH  11  13
ATOM     13  O   UNL     1       4.721   3.841  12.049  0.00  0.00    +0.000 OA
BRANCH  13  15
ATOM     14  C   UNL     1       3.365   3.983  10.087  0.00  0.00    +0.000 C 
ATOM     15  C   UNL     1       3.823   3.086  11.224  0.00  0.00    +0.000 C 
ENDBRANCH  13  15
ENDBRANCH  11  13
ENDBRANCH  10  11
ENDBRANCH   1  10
BRANCH   6  16
ATOM     16  C   UNL     1       4.364   3.551  19.451  0.00  0.00    +0.000 C 
BRANCH  16  17
ATOM     17  S   UNL     1       2.573   3.817  19.673  0.00  0.00    +0.000 S 
BRANCH  17  18
ATOM     18  C   UNL     1       2.361   5.574  19.421  0.00  0.00    +0.000 A 
ATOM     19  C   UNL     1       2.572   6.257  18.221  0.00  0.00    +0.000 A 
ATOM     20  C   UNL     1       2.377   7.642  18.144  0.00  0.00    +0.000 A 
ATOM     21  C   UNL     1       1.964   8.358  19.267  0.00  0.00    +0.000 A 
ATOM     22  C   UNL     1       1.745   7.691  20.467  0.00  0.00    +0.000 A 
ATOM     23  C   UNL     1       1.946   6.311  20.542  0.00  0.00    +0.000 A 
ENDBRANCH  17  18
ENDBRANCH  16  17
ENDBRANCH   6  16
TORSDOF 7
ENDMDL
MODEL 3
REMARK VINA RESULT:      -6.7      5.257      8.392
REMARK  Name = 
REMARK  8 active torsions:
REMARK  status: ('A' for Active; 'I' for Inactive)
REMARK    1  A    between atoms: C_1  and  C_2
REMARK    2  A    between atoms: C_2  and  O_3
REMARK    3  A    between atoms: O_3  and  C_4
REMARK    4  A    between atoms: C_4  and  C_6
REMARK    5  A    between atoms: C_6  and  C_7
REMARK    6  A    between atoms: C_12  and  C_14
REMARK    7  A    between atoms: C_14  and  S_15
REMARK    8  A    between atoms: S_15  and  C_16
REMARK                            x       y       z     vdW  Elec       q    Type
REMARK                         _______ _______ _______ _____ _____    ______ ____
ROOT
ATOM      1  C   UNL     1       4.425   3.508  18.024  0.00  0.00    +0.000 A 
ATOM      2  N   UNL     1       4.832   3.337  19.267  0.00  0.00    +0.000 NA
ATOM      3  N   UNL     1       5.812   4.248  19.615  0.00  0.00    +0.000 NA
ATOM      4  C   UNL     1       6.086   5.086  18.638  0.00  0.00    +0.000 A 
ATOM      5  N   UNL     1       7.010   6.092  18.758  0.00  0.00    +0.000 N 
ATOM      6  C   UNL     1       7.281   7.080  17.838  0.00  0.00    +0.000 C 
ATOM      7  O   UNL     1       6.642   7.302  16.809  0.00  0.00    +0.000 OA
ATOM      8  S   UNL     1       5.247   4.764  17.191  0.00  0.00    +0.000 S 
ATOM      9  H   UNL     1       7.529   6.079  19.628  0.00  0.00    +0.000 HD
ENDROOT
BRANCH   1  10
ATOM     10  C   UNL     1       3.352   2.722  17.361  0.00  0.00    +0.000 C 
BRANCH  10  11
ATOM     11  C   UNL     1       2.013   3.234  17.830  0.00  0.00    +0.000 C 
ATOM     12  O   UNL     1       1.528   4.325  17.561  0.00  0.00    +0.000 OA
BRANCH  11  13
ATOM     13  O   UNL     1       1.413   2.294  18.617  0.00  0.00    +0.000 OA
BRANCH  13  15
ATOM     14  C   UNL     1       1.047   3.880  20.366  0.00  0.00    +0.000 C 
ATOM     15  C   UNL     1       1.574   2.496  20.027  0.00  0.00    +0.000 C 
ENDBRANCH  13  15
ENDBRANCH  11  13
ENDBRANCH  10  11
ENDBRANCH   1  10
BRANCH   6  16
ATOM     16  C   UNL     1       8.419   8.023  18.221  0.00  0.00    +0.000 C 
BRANCH  16  17
ATOM     17  S   UNL     1       8.011   9.768  17.885  0.00  0.00    +0.000 S 
BRANCH  17  18
ATOM     18  C   UNL     1       9.422  10.671  18.509  0.00  0.00    +0.000 A 
ATOM     19  C   UNL     1      10.503  11.124  17.747  0.00  0.00    +0.000 A 
ATOM     20  C   UNL     1      11.558  11.821  18.350  0.00  0.00    +0.000 A 
ATOM     21  C   UNL     1      11.541  12.075  19.720  0.00  0.00    +0.000 A 
ATOM     22  C   UNL     1      10.470  11.636  20.490  0.00  0.00    +0.000 A 
ATOM     23  C   UNL     1       9.422  10.937  19.887  0.00  0.00    +0.000 A 
ENDBRANCH  17  18
ENDBRANCH  16  17
ENDBRANCH   6  16
TORSDOF 7
ENDMDL
MODEL 4
REMARK VINA RESULT:      -6.7      2.884      7.956
REMARK  Name = 
REMARK  8 active torsions:
REMARK  status: ('A' for Active; 'I' for Inactive)
REMARK    1  A    between atoms: C_1  and  C_2
REMARK    2  A    between atoms: C_2  and  O_3
REMARK    3  A    between atoms: O_3  and  C_4
REMARK    4  A    between atoms: C_4  and  C_6
REMARK    5  A    between atoms: C_6  and  C_7
REMARK    6  A    between atoms: C_12  and  C_14
REMARK    7  A    between atoms: C_14  and  S_15
REMARK    8  A    between atoms: S_15  and  C_16
REMARK                            x       y       z     vdW  Elec       q    Type
REMARK                         _______ _______ _______ _____ _____    ______ ____
ROOT
ATOM      1  C   UNL     1       1.410   9.329  18.959  0.00  0.00    +0.000 A 
ATOM      2  N   UNL     1       1.273   8.703  20.112  0.00  0.00    +0.000 NA
ATOM      3  N   UNL     1       1.967   7.507  20.131  0.00  0.00    +0.000 NA
ATOM      4  C   UNL     1       2.620   7.290  19.010  0.00  0.00    +0.000 A 
ATOM      5  N   UNL     1       3.397   6.179  18.806  0.00  0.00    +0.000 N 
ATOM      6  C   UNL     1       4.203   5.921  17.719  0.00  0.00    +0.000 C 
ATOM      7  O   UNL     1       4.462   6.711  16.811  0.00  0.00    +0.000 OA
ATOM      8  S   UNL     1       2.358   8.473  17.813  0.00  0.00    +0.000 S 
ATOM      9  H   UNL     1       3.351   5.495  19.553  0.00  0.00    +0.000 HD
ENDROOT
BRANCH   1  10
ATOM     10  C   UNL     1       0.828  10.657  18.634  0.00  0.00    +0.000 C 
BRANCH  10  11
ATOM     11  C   UNL     1      -0.677  10.547  18.656  0.00  0.00    +0.000 C 
ATOM     12  O   UNL     1      -1.405  10.858  19.588  0.00  0.00    +0.000 OA
BRANCH  11  13
ATOM     13  O   UNL     1      -1.116  10.034  17.469  0.00  0.00    +0.000 OA
BRANCH  13  15
ATOM     14  C   UNL     1      -3.020   9.759  16.052  0.00  0.00    +0.000 C 
ATOM     15  C   UNL     1      -2.207  10.747  16.872  0.00  0.00    +0.000 C 
ENDBRANCH  13  15
ENDBRANCH  11  13
ENDBRANCH  10  11
ENDBRANCH   1  10
BRANCH   6  16
ATOM     16  C   UNL     1       4.894   4.561  17.738  0.00  0.00    +0.000 C 
BRANCH  16  17
ATOM     17  S   UNL     1       3.723   3.188  17.472  0.00  0.00    +0.000 S 
BRANCH  17  18
ATOM     18  C   UNL     1       2.862   3.045  19.032  0.00  0.00    +0.000 A 
ATOM     19  C   UNL     1       3.454   2.781  20.270  0.00  0.00    +0.000 A 
ATOM     20  C   UNL     1       2.672   2.688  21.429  0.00  0.00    +0.000 A 
ATOM     21  C   UNL     1       1.291   2.861  21.362  0.00  0.00    +0.000 A 
ATOM     22  C   UNL     1       0.689   3.130  20.139  0.00  0.00    +0.000 A 
ATOM     23  C   UNL     1       1.469   3.217  18.984  0.00  0.00    +0.000 A 
ENDBRANCH  17  18
ENDBRANCH  16  17
ENDBRANCH   6  16
TORSDOF 7
ENDMDL
MODEL 5
REMARK VINA RESULT:      -6.7      5.890      8.358
REMARK  Name = 
REMARK  8 active torsions:
REMARK  status: ('A' for Active; 'I' for Inactive)
REMARK    1  A    between atoms: C_1  and  C_2
REMARK    2  A    between atoms: C_2  and  O_3
REMARK    3  A    between atoms: O_3  and  C_4
REMARK    4  A    between atoms: C_4  and  C_6
REMARK    5  A    between atoms: C_6  and  C_7
REMARK    6  A    between atoms: C_12  and  C_14
REMARK    7  A    between atoms: C_14  and  S_15
REMARK    8  A    between atoms: S_15  and  C_16
REMARK                            x       y       z     vdW  Elec       q    Type
REMARK                         _______ _______ _______ _____ _____    ______ ____
ROOT
ATOM      1  C   UNL     1       4.873   4.141  17.607  0.00  0.00    +0.000 A 
ATOM      2  N   UNL     1       4.395   4.667  16.496  0.00  0.00    +0.000 NA
ATOM      3  N   UNL     1       4.975   5.891  16.217  0.00  0.00    +0.000 NA
ATOM      4  C   UNL     1       5.885   6.226  17.106  0.00  0.00    +0.000 A 
ATOM      5  N   UNL     1       6.611   7.387  17.025  0.00  0.00    +0.000 N 
ATOM      6  C   UNL     1       7.656   7.768  17.837  0.00  0.00    +0.000 C 
ATOM      7  O   UNL     1       8.199   7.066  18.690  0.00  0.00    +0.000 OA
ATOM      8  S   UNL     1       6.030   5.130  18.401  0.00  0.00    +0.000 S 
ATOM      9  H   UNL     1       6.323   8.007  16.277  0.00  0.00    +0.000 HD
ENDROOT
BRANCH   1  10
ATOM     10  C   UNL     1       4.489   2.815  18.159  0.00  0.00    +0.000 C 
BRANCH  10  11
ATOM     11  C   UNL     1       3.023   2.842  18.513  0.00  0.00    +0.000 C 
ATOM     12  O   UNL     1       2.125   2.291  17.891  0.00  0.00    +0.000 OA
BRANCH  11  13
ATOM     13  O   UNL     1       2.837   3.588  19.641  0.00  0.00    +0.000 OA
BRANCH  13  15
ATOM     14  C   UNL     1       1.330   2.778  21.309  0.00  0.00    +0.000 C 
ATOM     15  C   UNL     1       2.780   2.834  20.859  0.00  0.00    +0.000 C 
ENDBRANCH  13  15
ENDBRANCH  11  13
ENDBRANCH  10  11
ENDBRANCH   1  10
BRANCH   6  16
ATOM     16  C   UNL     1       8.224   9.155  17.549  0.00  0.00    +0.000 C 
BRANCH  16  17
ATOM     17  S   UNL     1       9.108   9.851  18.984  0.00  0.00    +0.000 S 
BRANCH  17  18
ATOM     18  C   UNL     1       9.841  11.354  18.355  0.00  0.00    +0.000 A 
ATOM     19  C   UNL     1      11.166  11.502  17.934  0.00  0.00    +0.000 A 
ATOM     20  C   UNL     1      11.631  12.736  17.461  0.00  0.00    +0.000 A 
ATOM     21  C   UNL     1      10.774  13.834  17.399  0.00  0.00    +0.000 A 
ATOM     22  C   UNL     1       9.453  13.701  17.809  0.00  0.00    +0.000 A 
ATOM     23  C   UNL     1       8.993  12.471  18.286  0.00  0.00    +0.000 A 
ENDBRANCH  17  18
ENDBRANCH  16  17
ENDBRANCH   6  16
TORSDOF 7
ENDMDL
MODEL 6
REMARK VINA RESULT:      -6.6      5.151      8.297
REMARK  Name = 
REMARK  8 active torsions:
REMARK  status: ('A' for Active; 'I' for Inactive)
REMARK    1  A    between atoms: C_1  and  C_2
REMARK    2  A    between atoms: C_2  and  O_3
REMARK    3  A    between atoms: O_3  and  C_4
REMARK    4  A    between atoms: C_4  and  C_6
REMARK    5  A    between atoms: C_6  and  C_7
REMARK    6  A    between atoms: C_12  and  C_14
REMARK    7  A    between atoms: C_14  and  S_15
REMARK    8  A    between atoms: S_15  and  C_16
REMARK                            x       y       z     vdW  Elec       q    Type
REMARK                         _______ _______ _______ _____ _____    ______ ____
ROOT
ATOM      1  C   UNL     1       4.170   3.523  17.340  0.00  0.00    +0.000 A 
ATOM      2  N   UNL     1       4.465   3.968  16.134  0.00  0.00    +0.000 NA
ATOM      3  N   UNL     1       5.470   4.917  16.170  0.00  0.00    +0.000 NA
ATOM      4  C   UNL     1       5.913   5.130  17.390  0.00  0.00    +0.000 A 
ATOM      5  N   UNL     1       6.925   6.011  17.670  0.00  0.00    +0.000 N 
ATOM      6  C   UNL     1       7.530   6.217  18.890  0.00  0.00    +0.000 C 
ATOM      7  O   UNL     1       7.351   5.544  19.905  0.00  0.00    +0.000 OA
ATOM      8  S   UNL     1       5.072   4.269  18.596  0.00  0.00    +0.000 S 
ATOM      9  H   UNL     1       7.239   6.553  16.873  0.00  0.00    +0.000 HD
ENDROOT
BRANCH   1  10
ATOM     10  C   UNL     1       3.166   2.469  17.641  0.00  0.00    +0.000 C 
BRANCH  10  11
ATOM     11  C   UNL     1       1.915   3.125  18.172  0.00  0.00    +0.000 C 
ATOM     12  O   UNL     1       1.069   3.704  17.503  0.00  0.00    +0.000 OA
BRANCH  11  13
ATOM     13  O   UNL     1       1.866   2.986  19.529  0.00  0.00    +0.000 OA
BRANCH  13  15
ATOM     14  C   UNL     1       1.846   5.020  20.782  0.00  0.00    +0.000 C 
ATOM     15  C   UNL     1       0.993   3.907  20.197  0.00  0.00    +0.000 C 
ENDBRANCH  13  15
ENDBRANCH  11  13
ENDBRANCH  10  11
ENDBRANCH   1  10
BRANCH   6  16
ATOM     16  C   UNL     1       8.582   7.322  18.910  0.00  0.00    +0.000 C 
BRANCH  16  17
ATOM     17  S   UNL     1       8.020   8.826  18.044  0.00  0.00    +0.000 S 
BRANCH  17  18
ATOM     18  C   UNL     1       9.083  10.115  18.680  0.00  0.00    +0.000 A 
ATOM     19  C   UNL     1       9.237  10.456  20.026  0.00  0.00    +0.000 A 
ATOM     20  C   UNL     1      10.100  11.492  20.405  0.00  0.00    +0.000 A 
ATOM     21  C   UNL     1      10.822  12.195  19.442  0.00  0.00    +0.000 A 
ATOM     22  C   UNL     1      10.684  11.863  18.100  0.00  0.00    +0.000 A 
ATOM     23  C   UNL     1       9.818  10.834  17.724  0.00  0.00    +0.000 A 
ENDBRANCH  17  18
ENDBRANCH  16  17
ENDBRANCH   6  16
TORSDOF 7
ENDMDL
MODEL 7
REMARK VINA RESULT:      -6.5      1.511      2.543
REMARK  Name = 
REMARK  8 active torsions:
REMARK  status: ('A' for Active; 'I' for Inactive)
REMARK    1  A    between atoms: C_1  and  C_2
REMARK    2  A    between atoms: C_2  and  O_3
REMARK    3  A    between atoms: O_3  and  C_4
REMARK    4  A    between atoms: C_4  and  C_6
REMARK    5  A    between atoms: C_6  and  C_7
REMARK    6  A    between atoms: C_12  and  C_14
REMARK    7  A    between atoms: C_14  and  S_15
REMARK    8  A    between atoms: S_15  and  C_16
REMARK                            x       y       z     vdW  Elec       q    Type
REMARK                         _______ _______ _______ _____ _____    ______ ____
ROOT
ATOM      1  C   UNL     1       6.146   4.936  17.886  0.00  0.00    +0.000 A 
ATOM      2  N   UNL     1       5.581   4.225  18.843  0.00  0.00    +0.000 NA
ATOM      3  N   UNL     1       4.423   4.821  19.307  0.00  0.00    +0.000 NA
ATOM      4  C   UNL     1       4.144   5.937  18.669  0.00  0.00    +0.000 A 
ATOM      5  N   UNL     1       3.031   6.691  18.941  0.00  0.00    +0.000 N 
ATOM      6  C   UNL     1       2.598   7.804  18.255  0.00  0.00    +0.000 C 
ATOM      7  O   UNL     1       3.067   8.227  17.199  0.00  0.00    +0.000 OA
ATOM      8  S   UNL     1       5.321   6.397  17.527  0.00  0.00    +0.000 S 
ATOM      9  H   UNL     1       2.493   6.367  19.736  0.00  0.00    +0.000 HD
ENDROOT
BRANCH   1  10
ATOM     10  C   UNL     1       7.377   4.549  17.148  0.00  0.00    +0.000 C 
BRANCH  10  11
ATOM     11  C   UNL     1       7.143   4.754  15.671  0.00  0.00    +0.000 C 
ATOM     12  O   UNL     1       7.659   5.620  14.977  0.00  0.00    +0.000 OA
BRANCH  11  13
ATOM     13  O   UNL     1       6.254   3.825  15.215  0.00  0.00    +0.000 OA
BRANCH  13  15
ATOM     14  C   UNL     1       5.999   3.504  12.861  0.00  0.00    +0.000 C 
ATOM     15  C   UNL     1       5.477   4.239  14.083  0.00  0.00    +0.000 C 
ENDBRANCH  13  15
ENDBRANCH  11  13
ENDBRANCH  10  11
ENDBRANCH   1  10
BRANCH   6  16
ATOM     16  C   UNL     1       1.361   8.479  18.840  0.00  0.00    +0.000 C 
BRANCH  16  17
ATOM     17  S   UNL     1       1.334  10.273  18.510  0.00  0.00    +0.000 S 
BRANCH  17  18
ATOM     18  C   UNL     1      -0.407  10.671  18.420  0.00  0.00    +0.000 A 
ATOM     19  C   UNL     1      -1.038  11.724  19.087  0.00  0.00    +0.000 A 
ATOM     20  C   UNL     1      -2.415  11.937  18.942  0.00  0.00    +0.000 A 
ATOM     21  C   UNL     1      -3.174  11.101  18.125  0.00  0.00    +0.000 A 
ATOM     22  C   UNL     1      -2.559  10.052  17.451  0.00  0.00    +0.000 A 
ATOM     23  C   UNL     1      -1.187   9.839  17.602  0.00  0.00    +0.000 A 
ENDBRANCH  17  18
ENDBRANCH  16  17
ENDBRANCH   6  16
TORSDOF 7
ENDMDL
MODEL 8
REMARK VINA RESULT:      -6.5      6.045      8.395
REMARK  Name = 
REMARK  8 active torsions:
REMARK  status: ('A' for Active; 'I' for Inactive)
REMARK    1  A    between atoms: C_1  and  C_2
REMARK    2  A    between atoms: C_2  and  O_3
REMARK    3  A    between atoms: O_3  and  C_4
REMARK    4  A    between atoms: C_4  and  C_6
REMARK    5  A    between atoms: C_6  and  C_7
REMARK    6  A    between atoms: C_12  and  C_14
REMARK    7  A    between atoms: C_14  and  S_15
REMARK    8  A    between atoms: S_15  and  C_16
REMARK                            x       y       z     vdW  Elec       q    Type
REMARK                         _______ _______ _______ _____ _____    ______ ____
ROOT
ATOM      1  C   UNL     1       6.513   4.870  17.425  0.00  0.00    +0.000 A 
ATOM      2  N   UNL     1       7.097   4.395  18.510  0.00  0.00    +0.000 NA
ATOM      3  N   UNL     1       7.877   5.352  19.131  0.00  0.00    +0.000 NA
ATOM      4  C   UNL     1       7.832   6.513  18.514  0.00  0.00    +0.000 A 
ATOM      5  N   UNL     1       8.509   7.619  18.961  0.00  0.00    +0.000 N 
ATOM      6  C   UNL     1       8.435   8.896  18.451  0.00  0.00    +0.000 C 
ATOM      7  O   UNL     1       7.642   9.283  17.592  0.00  0.00    +0.000 OA
ATOM      8  S   UNL     1       6.920   6.500  17.076  0.00  0.00    +0.000 S 
ATOM      9  H   UNL     1       9.119   7.443  19.750  0.00  0.00    +0.000 HD
ENDROOT
BRANCH   1  10
ATOM     10  C   UNL     1       5.576   4.110  16.557  0.00  0.00    +0.000 C 
BRANCH  10  11
ATOM     11  C   UNL     1       4.228   4.051  17.231  0.00  0.00    +0.000 C 
ATOM     12  O   UNL     1       3.485   5.002  17.433  0.00  0.00    +0.000 OA
BRANCH  11  13
ATOM     13  O   UNL     1       3.954   2.765  17.597  0.00  0.00    +0.000 OA
BRANCH  13  15
ATOM     14  C   UNL     1       2.107   2.087  18.953  0.00  0.00    +0.000 C 
ATOM     15  C   UNL     1       3.537   2.602  18.959  0.00  0.00    +0.000 C 
ENDBRANCH  13  15
ENDBRANCH  11  13
ENDBRANCH  10  11
ENDBRANCH   1  10
BRANCH   6  16
ATOM     16  C   UNL     1       9.365   9.909  19.112  0.00  0.00    +0.000 C 
BRANCH  16  17
ATOM     17  S   UNL     1       9.363  11.514  18.246  0.00  0.00    +0.000 S 
BRANCH  17  18
ATOM     18  C   UNL     1       9.704  12.703  19.537  0.00  0.00    +0.000 A 
ATOM     19  C   UNL     1       9.307  12.594  20.872  0.00  0.00    +0.000 A 
ATOM     20  C   UNL     1       9.631  13.596  21.796  0.00  0.00    +0.000 A 
ATOM     21  C   UNL     1      10.359  14.715  21.396  0.00  0.00    +0.000 A 
ATOM     22  C   UNL     1      10.766  14.834  20.072  0.00  0.00    +0.000 A 
ATOM     23  C   UNL     1      10.437  13.837  19.151  0.00  0.00    +0.000 A 
ENDBRANCH  17  18
ENDBRANCH  16  17
ENDBRANCH   6  16
TORSDOF 7
ENDMDL
MODEL 9
REMARK VINA RESULT:      -6.4      3.180      7.850
REMARK  Name = 
REMARK  8 active torsions:
REMARK  status: ('A' for Active; 'I' for Inactive)
REMARK    1  A    between atoms: C_1  and  C_2
REMARK    2  A    between atoms: C_2  and  O_3
REMARK    3  A    between atoms: O_3  and  C_4
REMARK    4  A    between atoms: C_4  and  C_6
REMARK    5  A    between atoms: C_6  and  C_7
REMARK    6  A    between atoms: C_12  and  C_14
REMARK    7  A    between atoms: C_14  and  S_15
REMARK    8  A    between atoms: S_15  and  C_16
REMARK                            x       y       z     vdW  Elec       q    Type
REMARK                         _______ _______ _______ _____ _____    ______ ____
ROOT
ATOM      1  C   UNL     1       0.958   9.266  19.719  0.00  0.00    +0.000 A 
ATOM      2  N   UNL     1       0.977   8.525  20.810  0.00  0.00    +0.000 NA
ATOM      3  N   UNL     1       1.773   7.405  20.655  0.00  0.00    +0.000 NA
ATOM      4  C   UNL     1       2.345   7.358  19.471  0.00  0.00    +0.000 A 
ATOM      5  N   UNL     1       3.197   6.351  19.097  0.00  0.00    +0.000 N 
ATOM      6  C   UNL     1       3.926   6.274  17.931  0.00  0.00    +0.000 C 
ATOM      7  O   UNL     1       4.035   7.166  17.090  0.00  0.00    +0.000 OA
ATOM      8  S   UNL     1       1.877   8.615  18.422  0.00  0.00    +0.000 S 
ATOM      9  H   UNL     1       3.276   5.599  19.772  0.00  0.00    +0.000 HD
ENDROOT
BRANCH   1  10
ATOM     10  C   UNL     1       0.234  10.556  19.574  0.00  0.00    +0.000 C 
BRANCH  10  11
ATOM     11  C   UNL     1       1.036  11.641  20.248  0.00  0.00    +0.000 C 
ATOM     12  O   UNL     1       1.841  12.383  19.702  0.00  0.00    +0.000 OA
BRANCH  11  13
ATOM     13  O   UNL     1       0.735  11.674  21.579  0.00  0.00    +0.000 OA
BRANCH  13  15
ATOM     14  C   UNL     1      -0.967  10.831  23.029  0.00  0.00    +0.000 C 
ATOM     15  C   UNL     1      -0.663  11.776  21.879  0.00  0.00    +0.000 C 
ENDBRANCH  13  15
ENDBRANCH  11  13
ENDBRANCH  10  11
ENDBRANCH   1  10
BRANCH   6  16
ATOM     16  C   UNL     1       4.735   4.991  17.760  0.00  0.00    +0.000 C 
BRANCH  16  17
ATOM     17  S   UNL     1       3.675   3.550  17.406  0.00  0.00    +0.000 S 
BRANCH  17  18
ATOM     18  C   UNL     1       2.863   3.216  18.963  0.00  0.00    +0.000 A 
ATOM     19  C   UNL     1       3.499   2.852  20.153  0.00  0.00    +0.000 A 
ATOM     20  C   UNL     1       2.754   2.611  21.315  0.00  0.00    +0.000 A 
ATOM     21  C   UNL     1       1.366   2.736  21.299  0.00  0.00    +0.000 A 
ATOM     22  C   UNL     1       0.720   3.102  20.124  0.00  0.00    +0.000 A 
ATOM     23  C   UNL     1       1.464   3.336  18.966  0.00  0.00    +0.000 A 
ENDBRANCH  17  18
ENDBRANCH  16  17
ENDBRANCH   6  16
TORSDOF 7
ENDMDL
