MODEL 1
REMARK VINA RESULT:      -7.4      0.000      0.000
REMARK  Name = 
REMARK  4 active torsions:
REMARK  status: ('A' for Active; 'I' for Inactive)
REMARK    1  A    between atoms: C_1  and  C_2
REMARK    2  A    between atoms: C_2  and  C_3
REMARK    3  A    between atoms: C_2  and  N_4
REMARK    4  A    between atoms: C_5  and  C_7
REMARK                            x       y       z     vdW  Elec       q    Type
REMARK                         _______ _______ _______ _____ _____    ______ ____
ROOT
ATOM      1  C   UNL     1       2.808   5.787  18.412  0.00  0.00    +0.000 A 
ATOM      2  C   UNL     1       2.216   4.604  18.917  0.00  0.00    +0.000 A 
ATOM      3  C   UNL     1       2.634   3.396  18.356  0.00  0.00    +0.000 A 
ATOM      4  N   UNL     1       3.585   3.320  17.400  0.00  0.00    +0.000 NA
ATOM      5  C   UNL     1       4.168   4.436  16.952  0.00  0.00    +0.000 A 
ATOM      6  C   UNL     1       5.157   4.286  15.989  0.00  0.00    +0.000 A 
ATOM      7  C   UNL     1       5.836   5.375  15.445  0.00  0.00    +0.000 A 
ATOM      8  C   UNL     1       5.515   6.653  15.871  0.00  0.00    +0.000 A 
ATOM      9  C   UNL     1       4.519   6.826  16.838  0.00  0.00    +0.000 A 
ATOM     10  C   UNL     1       3.824   5.723  17.411  0.00  0.00    +0.000 A 
ATOM     11  C   UNL     1       2.125   2.058  18.831  0.00  0.00    +0.000 C 
ATOM     12  C   UNL     1       0.891   2.130  19.721  0.00  0.00    +0.000 C 
ATOM     13  C   UNL     1       1.039   3.258  20.729  0.00  0.00    +0.000 C 
ATOM     14  C   UNL     1       1.156   4.590  19.995  0.00  0.00    +0.000 C 
ENDROOT
BRANCH   1  16
ATOM     15  N   UNL     1       1.852   8.013  18.061  0.00  0.00    +0.000 N 
ATOM     16  C   UNL     1       2.409   7.128  18.961  0.00  0.00    +0.000 C 
ATOM     17  O   UNL     1       2.581   7.401  20.142  0.00  0.00    +0.000 OA
ATOM     18  H   UNL     1       1.806   7.757  17.086  0.00  0.00    +0.000 HD
BRANCH  15  20
ATOM     19  C   UNL     1       2.279  10.408  17.934  0.00  0.00    +0.000 C 
ATOM     20  C   UNL     1       1.335   9.322  18.445  0.00  0.00    +0.000 C 
ATOM     21  C   UNL     1      -0.075   9.560  17.900  0.00  0.00    +0.000 C 
ENDBRANCH  15  20
ENDBRANCH   1  16
TORSDOF 2
ENDMDL
MODEL 2
REMARK VINA RESULT:      -7.4      0.216      4.109
REMARK  Name = 
REMARK  4 active torsions:
REMARK  status: ('A' for Active; 'I' for Inactive)
REMARK    1  A    between atoms: C_1  and  C_2
REMARK    2  A    between atoms: C_2  and  C_3
REMARK    3  A    between atoms: C_2  and  N_4
REMARK    4  A    between atoms: C_5  and  C_7
REMARK                            x       y       z     vdW  Elec       q    Type
REMARK                         _______ _______ _______ _____ _____    ______ ____
ROOT
ATOM      1  C   UNL     1       2.904   5.744  18.427  0.00  0.00    +0.000 A 
ATOM      2  C   UNL     1       3.904   5.678  17.426  0.00  0.00    +0.000 A 
ATOM      3  C   UNL     1       4.268   4.408  16.976  0.00  0.00    +0.000 A 
ATOM      4  N   UNL     1       3.685   3.275  17.425  0.00  0.00    +0.000 NA
ATOM      5  C   UNL     1       2.717   3.342  18.343  0.00  0.00    +0.000 A 
ATOM      6  C   UNL     1       2.142   2.143  18.741  0.00  0.00    +0.000 A 
ATOM      7  C   UNL     1       1.124   2.086  19.692  0.00  0.00    +0.000 A 
ATOM      8  C   UNL     1       0.670   3.262  20.266  0.00  0.00    +0.000 A 
ATOM      9  C   UNL     1       1.238   4.480  19.881  0.00  0.00    +0.000 A 
ATOM     10  C   UNL     1       2.271   4.556  18.903  0.00  0.00    +0.000 A 
ATOM     11  C   UNL     1       5.281   4.191  15.879  0.00  0.00    +0.000 C 
ATOM     12  C   UNL     1       6.115   5.419  15.538  0.00  0.00    +0.000 C 
ATOM     13  C   UNL     1       5.230   6.654  15.485  0.00  0.00    +0.000 C 
ATOM     14  C   UNL     1       4.600   6.892  16.853  0.00  0.00    +0.000 C 
ENDROOT
BRANCH   1  16
ATOM     15  N   UNL     1       1.944   7.963  18.048  0.00  0.00    +0.000 N 
ATOM     16  C   UNL     1       2.460   7.074  18.968  0.00  0.00    +0.000 C 
ATOM     17  O   UNL     1       2.561   7.335  20.159  0.00  0.00    +0.000 OA
ATOM     18  H   UNL     1       1.957   7.719  17.069  0.00  0.00    +0.000 HD
BRANCH  15  20
ATOM     19  C   UNL     1       2.323  10.367  17.921  0.00  0.00    +0.000 C 
ATOM     20  C   UNL     1       1.391   9.262  18.416  0.00  0.00    +0.000 C 
ATOM     21  C   UNL     1      -0.012   9.468  17.841  0.00  0.00    +0.000 C 
ENDBRANCH  15  20
ENDBRANCH   1  16
TORSDOF 2
ENDMDL
MODEL 3
REMARK VINA RESULT:      -7.3      1.660      4.483
REMARK  Name = 
REMARK  4 active torsions:
REMARK  status: ('A' for Active; 'I' for Inactive)
REMARK    1  A    between atoms: C_1  and  C_2
REMARK    2  A    between atoms: C_2  and  C_3
REMARK    3  A    between atoms: C_2  and  N_4
REMARK    4  A    between atoms: C_5  and  C_7
REMARK                            x       y       z     vdW  Elec       q    Type
REMARK                         _______ _______ _______ _____ _____    ______ ____
ROOT
ATOM      1  C   UNL     1       3.231   5.748  18.751  0.00  0.00    +0.000 A 
ATOM      2  C   UNL     1       4.540   5.784  18.211  0.00  0.00    +0.000 A 
ATOM      3  C   UNL     1       5.414   4.768  18.599  0.00  0.00    +0.000 A 
ATOM      4  N   UNL     1       5.050   3.759  19.420  0.00  0.00    +0.000 NA
ATOM      5  C   UNL     1       3.804   3.708  19.899  0.00  0.00    +0.000 A 
ATOM      6  C   UNL     1       3.487   2.631  20.715  0.00  0.00    +0.000 A 
ATOM      7  C   UNL     1       2.221   2.468  21.274  0.00  0.00    +0.000 A 
ATOM      8  C   UNL     1       1.242   3.413  21.015  0.00  0.00    +0.000 A 
ATOM      9  C   UNL     1       1.542   4.508  20.198  0.00  0.00    +0.000 A 
ATOM     10  C   UNL     1       2.827   4.681  19.610  0.00  0.00    +0.000 A 
ATOM     11  C   UNL     1       6.820   4.654  18.064  0.00  0.00    +0.000 C 
ATOM     12  C   UNL     1       7.324   5.897  17.341  0.00  0.00    +0.000 C 
ATOM     13  C   UNL     1       6.237   6.452  16.435  0.00  0.00    +0.000 C 
ATOM     14  C   UNL     1       5.032   6.864  17.274  0.00  0.00    +0.000 C 
ENDROOT
BRANCH   1  16
ATOM     15  N   UNL     1       2.185   7.913  19.212  0.00  0.00    +0.000 N 
ATOM     16  C   UNL     1       2.231   6.809  18.386  0.00  0.00    +0.000 C 
ATOM     17  O   UNL     1       1.505   6.680  17.409  0.00  0.00    +0.000 OA
ATOM     18  H   UNL     1       2.755   7.926  20.045  0.00  0.00    +0.000 HD
BRANCH  15  20
ATOM     19  C   UNL     1       0.922   9.701  20.282  0.00  0.00    +0.000 C 
ATOM     20  C   UNL     1       1.333   9.068  18.954  0.00  0.00    +0.000 C 
ATOM     21  C   UNL     1       2.033  10.108  18.076  0.00  0.00    +0.000 C 
ENDBRANCH  15  20
ENDBRANCH   1  16
TORSDOF 2
ENDMDL
MODEL 4
REMARK VINA RESULT:      -7.1      2.055      4.675
REMARK  Name = 
REMARK  4 active torsions:
REMARK  status: ('A' for Active; 'I' for Inactive)
REMARK    1  A    between atoms: C_1  and  C_2
REMARK    2  A    between atoms: C_2  and  C_3
REMARK    3  A    between atoms: C_2  and  N_4
REMARK    4  A    between atoms: C_5  and  C_7
REMARK                            x       y       z     vdW  Elec       q    Type
REMARK                         _______ _______ _______ _____ _____    ______ ____
ROOT
ATOM      1  C   UNL     1       3.430   5.863  18.708  0.00  0.00    +0.000 A 
ATOM      2  C   UNL     1       3.151   4.772  19.567  0.00  0.00    +0.000 A 
ATOM      3  C   UNL     1       2.183   4.972  20.552  0.00  0.00    +0.000 A 
ATOM      4  N   UNL     1       1.496   6.127  20.684  0.00  0.00    +0.000 NA
ATOM      5  C   UNL     1       1.735   7.143  19.848  0.00  0.00    +0.000 A 
ATOM      6  C   UNL     1       0.976   8.292  20.021  0.00  0.00    +0.000 A 
ATOM      7  C   UNL     1       1.134   9.416  19.212  0.00  0.00    +0.000 A 
ATOM      8  C   UNL     1       2.083   9.394  18.203  0.00  0.00    +0.000 A 
ATOM      9  C   UNL     1       2.861   8.247  18.016  0.00  0.00    +0.000 A 
ATOM     10  C   UNL     1       2.703   7.087  18.826  0.00  0.00    +0.000 A 
ATOM     11  C   UNL     1       1.751   3.883  21.503  0.00  0.00    +0.000 C 
ATOM     12  C   UNL     1       2.671   2.669  21.534  0.00  0.00    +0.000 C 
ATOM     13  C   UNL     1       3.082   2.288  20.121  0.00  0.00    +0.000 C 
ATOM     14  C   UNL     1       3.858   3.438  19.486  0.00  0.00    +0.000 C 
ENDROOT
BRANCH   1  16
ATOM     15  N   UNL     1       5.721   6.209  17.920  0.00  0.00    +0.000 N 
ATOM     16  C   UNL     1       4.462   5.730  17.624  0.00  0.00    +0.000 C 
ATOM     17  O   UNL     1       4.180   5.225  16.545  0.00  0.00    +0.000 OA
ATOM     18  H   UNL     1       5.872   6.683  18.799  0.00  0.00    +0.000 HD
BRANCH  15  20
ATOM     19  C   UNL     1       7.826   7.239  17.253  0.00  0.00    +0.000 C 
ATOM     20  C   UNL     1       6.857   6.083  17.014  0.00  0.00    +0.000 C 
ATOM     21  C   UNL     1       7.585   4.748  17.194  0.00  0.00    +0.000 C 
ENDBRANCH  15  20
ENDBRANCH   1  16
TORSDOF 2
ENDMDL
MODEL 5
REMARK VINA RESULT:      -7.1      1.728      1.865
REMARK  Name = 
REMARK  4 active torsions:
REMARK  status: ('A' for Active; 'I' for Inactive)
REMARK    1  A    between atoms: C_1  and  C_2
REMARK    2  A    between atoms: C_2  and  C_3
REMARK    3  A    between atoms: C_2  and  N_4
REMARK    4  A    between atoms: C_5  and  C_7
REMARK                            x       y       z     vdW  Elec       q    Type
REMARK                         _______ _______ _______ _____ _____    ______ ____
ROOT
ATOM      1  C   UNL     1       3.297   5.764  18.673  0.00  0.00    +0.000 A 
ATOM      2  C   UNL     1       2.903   4.657  19.465  0.00  0.00    +0.000 A 
ATOM      3  C   UNL     1       3.875   3.695  19.740  0.00  0.00    +0.000 A 
ATOM      4  N   UNL     1       5.154   3.801  19.318  0.00  0.00    +0.000 NA
ATOM      5  C   UNL     1       5.533   4.864  18.601  0.00  0.00    +0.000 A 
ATOM      6  C   UNL     1       6.866   4.925  18.222  0.00  0.00    +0.000 A 
ATOM      7  C   UNL     1       7.379   5.983  17.474  0.00  0.00    +0.000 A 
ATOM      8  C   UNL     1       6.533   7.009  17.087  0.00  0.00    +0.000 A 
ATOM      9  C   UNL     1       5.185   6.965  17.456  0.00  0.00    +0.000 A 
ATOM     10  C   UNL     1       4.649   5.896  18.230  0.00  0.00    +0.000 A 
ATOM     11  C   UNL     1       3.608   2.492  20.611  0.00  0.00    +0.000 C 
ATOM     12  C   UNL     1       2.134   2.228  20.889  0.00  0.00    +0.000 C 
ATOM     13  C   UNL     1       1.418   3.532  21.200  0.00  0.00    +0.000 C 
ATOM     14  C   UNL     1       1.500   4.462  19.994  0.00  0.00    +0.000 C 
ENDROOT
BRANCH   1  16
ATOM     15  N   UNL     1       2.195   7.875  19.237  0.00  0.00    +0.000 N 
ATOM     16  C   UNL     1       2.308   6.842  18.330  0.00  0.00    +0.000 C 
ATOM     17  O   UNL     1       1.648   6.786  17.301  0.00  0.00    +0.000 OA
ATOM     18  H   UNL     1       2.711   7.826  20.104  0.00  0.00    +0.000 HD
BRANCH  15  20
ATOM     19  C   UNL     1       0.971   9.654  20.366  0.00  0.00    +0.000 C 
ATOM     20  C   UNL     1       1.345   9.040  19.018  0.00  0.00    +0.000 C 
ATOM     21  C   UNL     1       2.032  10.089  18.141  0.00  0.00    +0.000 C 
ENDBRANCH  15  20
ENDBRANCH   1  16
TORSDOF 2
ENDMDL
MODEL 6
REMARK VINA RESULT:      -7.0      1.881      4.595
REMARK  Name = 
REMARK  4 active torsions:
REMARK  status: ('A' for Active; 'I' for Inactive)
REMARK    1  A    between atoms: C_1  and  C_2
REMARK    2  A    between atoms: C_2  and  C_3
REMARK    3  A    between atoms: C_2  and  N_4
REMARK    4  A    between atoms: C_5  and  C_7
REMARK                            x       y       z     vdW  Elec       q    Type
REMARK                         _______ _______ _______ _____ _____    ______ ____
ROOT
ATOM      1  C   UNL     1       3.138   5.884  19.175  0.00  0.00    +0.000 A 
ATOM      2  C   UNL     1       4.145   5.867  18.178  0.00  0.00    +0.000 A 
ATOM      3  C   UNL     1       4.897   4.698  18.056  0.00  0.00    +0.000 A 
ATOM      4  N   UNL     1       4.676   3.600  18.810  0.00  0.00    +0.000 NA
ATOM      5  C   UNL     1       3.702   3.606  19.725  0.00  0.00    +0.000 A 
ATOM      6  C   UNL     1       3.510   2.436  20.448  0.00  0.00    +0.000 A 
ATOM      7  C   UNL     1       2.526   2.321  21.428  0.00  0.00    +0.000 A 
ATOM      8  C   UNL     1       1.712   3.408  21.699  0.00  0.00    +0.000 A 
ATOM      9  C   UNL     1       1.891   4.596  20.984  0.00  0.00    +0.000 A 
ATOM     10  C   UNL     1       2.884   4.726  19.972  0.00  0.00    +0.000 A 
ATOM     11  C   UNL     1       5.966   4.524  17.006  0.00  0.00    +0.000 C 
ATOM     12  C   UNL     1       6.393   5.814  16.318  0.00  0.00    +0.000 C 
ATOM     13  C   UNL     1       5.174   6.660  15.989  0.00  0.00    +0.000 C 
ATOM     14  C   UNL     1       4.453   7.042  17.278  0.00  0.00    +0.000 C 
ENDROOT
BRANCH   1  16
ATOM     15  N   UNL     1       1.947   7.407  20.676  0.00  0.00    +0.000 N 
ATOM     16  C   UNL     1       2.287   7.106  19.373  0.00  0.00    +0.000 C 
ATOM     17  O   UNL     1       1.924   7.782  18.419  0.00  0.00    +0.000 OA
ATOM     18  H   UNL     1       2.214   6.769  21.412  0.00  0.00    +0.000 HD
BRANCH  15  20
ATOM     19  C   UNL     1      -0.277   8.242  21.217  0.00  0.00    +0.000 C 
ATOM     20  C   UNL     1       1.199   8.601  21.050  0.00  0.00    +0.000 C 
ATOM     21  C   UNL     1       1.731   9.226  22.342  0.00  0.00    +0.000 C 
ENDBRANCH  15  20
ENDBRANCH   1  16
TORSDOF 2
ENDMDL
MODEL 7
REMARK VINA RESULT:      -6.9      2.101      5.498
REMARK  Name = 
REMARK  4 active torsions:
REMARK  status: ('A' for Active; 'I' for Inactive)
REMARK    1  A    between atoms: C_1  and  C_2
REMARK    2  A    between atoms: C_2  and  C_3
REMARK    3  A    between atoms: C_2  and  N_4
REMARK    4  A    between atoms: C_5  and  C_7
REMARK                            x       y       z     vdW  Elec       q    Type
REMARK                         _______ _______ _______ _____ _____    ______ ____
ROOT
ATOM      1  C   UNL     1       3.387   5.784  18.690  0.00  0.00    +0.000 A 
ATOM      2  C   UNL     1       2.670   6.999  18.815  0.00  0.00    +0.000 A 
ATOM      3  C   UNL     1       1.720   7.073  19.835  0.00  0.00    +0.000 A 
ATOM      4  N   UNL     1       1.497   6.064  20.706  0.00  0.00    +0.000 NA
ATOM      5  C   UNL     1       2.201   4.933  20.609  0.00  0.00    +0.000 A 
ATOM      6  C   UNL     1       1.942   3.947  21.551  0.00  0.00    +0.000 A 
ATOM      7  C   UNL     1       2.611   2.725  21.552  0.00  0.00    +0.000 A 
ATOM      8  C   UNL     1       3.566   2.477  20.579  0.00  0.00    +0.000 A 
ATOM      9  C   UNL     1       3.839   3.456  19.619  0.00  0.00    +0.000 A 
ATOM     10  C   UNL     1       3.171   4.713  19.611  0.00  0.00    +0.000 A 
ATOM     11  C   UNL     1       0.920   8.321  20.114  0.00  0.00    +0.000 C 
ATOM     12  C   UNL     1       0.977   9.368  19.010  0.00  0.00    +0.000 C 
ATOM     13  C   UNL     1       2.400   9.510  18.495  0.00  0.00    +0.000 C 
ATOM     14  C   UNL     1       2.862   8.185  17.898  0.00  0.00    +0.000 C 
ENDROOT
BRANCH   1  16
ATOM     15  N   UNL     1       5.679   6.121  17.901  0.00  0.00    +0.000 N 
ATOM     16  C   UNL     1       4.425   5.623  17.615  0.00  0.00    +0.000 C 
ATOM     17  O   UNL     1       4.151   5.080  16.553  0.00  0.00    +0.000 OA
ATOM     18  H   UNL     1       5.822   6.625  18.763  0.00  0.00    +0.000 HD
BRANCH  15  20
ATOM     19  C   UNL     1       7.761   7.163  17.183  0.00  0.00    +0.000 C 
ATOM     20  C   UNL     1       6.820   5.974  17.003  0.00  0.00    +0.000 C 
ATOM     21  C   UNL     1       7.577   4.668  17.253  0.00  0.00    +0.000 C 
ENDBRANCH  15  20
ENDBRANCH   1  16
TORSDOF 2
ENDMDL
MODEL 8
REMARK VINA RESULT:      -6.9      1.722      1.973
REMARK  Name = 
REMARK  4 active torsions:
REMARK  status: ('A' for Active; 'I' for Inactive)
REMARK    1  A    between atoms: C_1  and  C_2
REMARK    2  A    between atoms: C_2  and  C_3
REMARK    3  A    between atoms: C_2  and  N_4
REMARK    4  A    between atoms: C_5  and  C_7
REMARK                            x       y       z     vdW  Elec       q    Type
REMARK                         _______ _______ _______ _____ _____    ______ ____
ROOT
ATOM      1  C   UNL     1       3.057   5.892  18.835  0.00  0.00    +0.000 A 
ATOM      2  C   UNL     1       2.526   4.637  19.223  0.00  0.00    +0.000 A 
ATOM      3  C   UNL     1       3.273   3.504  18.899  0.00  0.00    +0.000 A 
ATOM      4  N   UNL     1       4.470   3.566  18.277  0.00  0.00    +0.000 NA
ATOM      5  C   UNL     1       4.987   4.753  17.944  0.00  0.00    +0.000 A 
ATOM      6  C   UNL     1       6.232   4.749  17.332  0.00  0.00    +0.000 A 
ATOM      7  C   UNL     1       6.872   5.923  16.939  0.00  0.00    +0.000 A 
ATOM      8  C   UNL     1       6.246   7.139  17.158  0.00  0.00    +0.000 A 
ATOM      9  C   UNL     1       4.989   7.165  17.770  0.00  0.00    +0.000 A 
ATOM     10  C   UNL     1       4.328   5.975  18.188  0.00  0.00    +0.000 A 
ATOM     11  C   UNL     1       2.852   2.111  19.295  0.00  0.00    +0.000 C 
ATOM     12  C   UNL     1       1.410   1.997  19.771  0.00  0.00    +0.000 C 
ATOM     13  C   UNL     1       1.070   3.155  20.695  0.00  0.00    +0.000 C 
ATOM     14  C   UNL     1       1.203   4.471  19.935  0.00  0.00    +0.000 C 
ENDROOT
BRANCH   1  16
ATOM     15  N   UNL     1       1.991   7.369  20.469  0.00  0.00    +0.000 N 
ATOM     16  C   UNL     1       2.312   7.160  19.144  0.00  0.00    +0.000 C 
ATOM     17  O   UNL     1       2.014   7.947  18.256  0.00  0.00    +0.000 OA
ATOM     18  H   UNL     1       2.198   6.647  21.144  0.00  0.00    +0.000 HD
BRANCH  15  20
ATOM     19  C   UNL     1      -0.158   8.340  21.081  0.00  0.00    +0.000 C 
ATOM     20  C   UNL     1       1.344   8.584  20.951  0.00  0.00    +0.000 C 
ATOM     21  C   UNL     1       1.916   9.039  22.297  0.00  0.00    +0.000 C 
ENDBRANCH  15  20
ENDBRANCH   1  16
TORSDOF 2
ENDMDL
MODEL 9
REMARK VINA RESULT:      -6.8      1.806      4.493
REMARK  Name = 
REMARK  4 active torsions:
REMARK  status: ('A' for Active; 'I' for Inactive)
REMARK    1  A    between atoms: C_1  and  C_2
REMARK    2  A    between atoms: C_2  and  C_3
REMARK    3  A    between atoms: C_2  and  N_4
REMARK    4  A    between atoms: C_5  and  C_7
REMARK                            x       y       z     vdW  Elec       q    Type
REMARK                         _______ _______ _______ _____ _____    ______ ____
ROOT
ATOM      1  C   UNL     1       3.162   5.827  18.885  0.00  0.00    +0.000 A 
ATOM      2  C   UNL     1       4.465   5.914  18.336  0.00  0.00    +0.000 A 
ATOM      3  C   UNL     1       5.144   4.715  18.120  0.00  0.00    +0.000 A 
ATOM      4  N   UNL     1       4.599   3.505  18.376  0.00  0.00    +0.000 NA
ATOM      5  C   UNL     1       3.356   3.424  18.860  0.00  0.00    +0.000 A 
ATOM      6  C   UNL     1       2.846   2.151  19.075  0.00  0.00    +0.000 A 
ATOM      7  C   UNL     1       1.563   1.939  19.576  0.00  0.00    +0.000 A 
ATOM      8  C   UNL     1       0.767   3.031  19.877  0.00  0.00    +0.000 A 
ATOM      9  C   UNL     1       1.263   4.322  19.671  0.00  0.00    +0.000 A 
ATOM     10  C   UNL     1       2.567   4.555  19.149  0.00  0.00    +0.000 A 
ATOM     11  C   UNL     1       6.516   4.656  17.496  0.00  0.00    +0.000 C 
ATOM     12  C   UNL     1       7.237   5.996  17.429  0.00  0.00    +0.000 C 
ATOM     13  C   UNL     1       6.276   7.087  16.985  0.00  0.00    +0.000 C 
ATOM     14  C   UNL     1       5.149   7.221  18.004  0.00  0.00    +0.000 C 
ENDROOT
BRANCH   1  16
ATOM     15  N   UNL     1       2.041   7.318  20.470  0.00  0.00    +0.000 N 
ATOM     16  C   UNL     1       2.366   7.073  19.151  0.00  0.00    +0.000 C 
ATOM     17  O   UNL     1       2.031   7.814  18.237  0.00  0.00    +0.000 OA
ATOM     18  H   UNL     1       2.280   6.631  21.170  0.00  0.00    +0.000 HD
BRANCH  15  20
ATOM     19  C   UNL     1      -0.144   8.221  21.060  0.00  0.00    +0.000 C 
ATOM     20  C   UNL     1       1.346   8.522  20.911  0.00  0.00    +0.000 C 
ATOM     21  C   UNL     1       1.905   9.051  22.233  0.00  0.00    +0.000 C 
ENDBRANCH  15  20
ENDBRANCH   1  16
TORSDOF 2
ENDMDL
