MODEL 1
REMARK VINA RESULT:      -5.6      0.000      0.000
REMARK  Name = 
REMARK  9 active torsions:
REMARK  status: ('A' for Active; 'I' for Inactive)
REMARK    1  A    between atoms: C_1  and  C_2
REMARK    2  A    between atoms: C_2  and  C_3
REMARK    3  A    between atoms: C_15  and  O_16
REMARK    4  A    between atoms: C_20  and  C_21
REMARK    5  A    between atoms: C_21  and  C_25
REMARK    6  A    between atoms: C_22  and  O_23
REMARK    7  A    between atoms: O_23  and  C_24
REMARK    8  A    between atoms: C_25  and  O_27
REMARK    9  A    between atoms: O_27  and  C_28
REMARK                            x       y       z     vdW  Elec       q    Type
REMARK                         _______ _______ _______ _____ _____    ______ ____
ROOT
ATOM      1  C   UNL     1      -7.006  14.245  20.833  0.00  0.00    +0.000 C 
ATOM      2  C   UNL     1      -5.742  15.095  20.662  0.00  0.00    +0.000 C 
ATOM      3  N   UNL     1      -4.709  15.014  21.688  0.00  0.00    +0.000 NA
ATOM      4  C   UNL     1      -3.403  15.480  21.140  0.00  0.00    +0.000 C 
ATOM      5  C   UNL     1      -2.504  14.385  20.505  0.00  0.00    +0.000 C 
ATOM      6  C   UNL     1      -2.379  13.265  21.463  0.00  0.00    +0.000 A 
ATOM      7  C   UNL     1      -3.340  13.075  22.427  0.00  0.00    +0.000 A 
ATOM      8  N   UNL     1      -2.854  12.139  23.304  0.00  0.00    +0.000 N 
ATOM      9  C   UNL     1      -1.737  11.528  22.758  0.00  0.00    +0.000 A 
ATOM     10  C   UNL     1      -1.002  10.428  23.203  0.00  0.00    +0.000 A 
ATOM     11  C   UNL     1       0.040   9.972  22.386  0.00  0.00    +0.000 A 
ATOM     12  C   UNL     1       0.366  10.629  21.199  0.00  0.00    +0.000 A 
ATOM     13  C   UNL     1      -0.344  11.771  20.810  0.00  0.00    +0.000 A 
ATOM     14  C   UNL     1      -1.430  12.218  21.589  0.00  0.00    +0.000 A 
ATOM     15  C   UNL     1      -4.632  13.826  22.564  0.00  0.00    +0.000 C 
ATOM     16  C   UNL     1      -5.835  12.857  22.535  0.00  0.00    +0.000 C 
ATOM     17  C   UNL     1      -6.667  12.794  21.234  0.00  0.00    +0.000 C 
ATOM     18  H   UNL     1      -3.279  11.876  24.182  0.00  0.00    +0.000 HD
ENDROOT
BRANCH   1  20
ATOM     19  C   UNL     1      -7.635  15.647  18.756  0.00  0.00    +0.000 C 
ATOM     20  C   UNL     1      -7.917  14.410  19.595  0.00  0.00    +0.000 C 
ENDBRANCH   1  20
BRANCH  13  21
ATOM     21  O   UNL     1      -0.016  12.422  19.646  0.00  0.00    +0.000 OA
ATOM     22  H   UNL     1       0.665  13.083  19.843  0.00  0.00    +0.000 HD
ENDBRANCH  13  21
BRANCH  17  23
ATOM     23  C   UNL     1      -6.198  11.800  20.178  0.00  0.00    +0.000 C 
ATOM     24  C   UNL     1      -6.691  10.551  20.056  0.00  0.00    +0.000 C 
BRANCH  24  25
ATOM     25  O   UNL     1      -7.670  10.033  20.861  0.00  0.00    +0.000 OA
ATOM     26  C   UNL     1      -7.801   8.623  20.678  0.00  0.00    +0.000 C 
ENDBRANCH  24  25
BRANCH  23  27
ATOM     27  C   UNL     1      -5.292  12.159  19.054  0.00  0.00    +0.000 C 
ATOM     28  O   UNL     1      -5.614  12.768  18.052  0.00  0.00    +0.000 OA
BRANCH  27  29
ATOM     29  O   UNL     1      -4.053  11.641  19.281  0.00  0.00    +0.000 OA
ATOM     30  C   UNL     1      -3.223  11.560  18.121  0.00  0.00    +0.000 C 
ENDBRANCH  27  29
ENDBRANCH  23  27
ENDBRANCH  17  23
TORSDOF 6
ENDMDL
MODEL 2
REMARK VINA RESULT:      -5.5      2.141      3.135
REMARK  Name = 
REMARK  9 active torsions:
REMARK  status: ('A' for Active; 'I' for Inactive)
REMARK    1  A    between atoms: C_1  and  C_2
REMARK    2  A    between atoms: C_2  and  C_3
REMARK    3  A    between atoms: C_15  and  O_16
REMARK    4  A    between atoms: C_20  and  C_21
REMARK    5  A    between atoms: C_21  and  C_25
REMARK    6  A    between atoms: C_22  and  O_23
REMARK    7  A    between atoms: O_23  and  C_24
REMARK    8  A    between atoms: C_25  and  O_27
REMARK    9  A    between atoms: O_27  and  C_28
REMARK                            x       y       z     vdW  Elec       q    Type
REMARK                         _______ _______ _______ _____ _____    ______ ____
ROOT
ATOM      1  C   UNL     1      -3.875  14.272  23.325  0.00  0.00    +0.000 C 
ATOM      2  C   UNL     1      -2.518  14.909  23.005  0.00  0.00    +0.000 C 
ATOM      3  N   UNL     1      -1.311  14.128  23.253  0.00  0.00    +0.000 NA
ATOM      4  C   UNL     1      -0.177  14.667  22.449  0.00  0.00    +0.000 C 
ATOM      5  C   UNL     1       0.014  14.046  21.040  0.00  0.00    +0.000 C 
ATOM      6  C   UNL     1       0.030  12.572  21.174  0.00  0.00    +0.000 A 
ATOM      7  C   UNL     1      -0.569  11.974  22.257  0.00  0.00    +0.000 A 
ATOM      8  N   UNL     1      -0.196  10.655  22.248  0.00  0.00    +0.000 N 
ATOM      9  C   UNL     1       0.387  10.346  21.030  0.00  0.00    +0.000 A 
ATOM     10  C   UNL     1       0.779   9.114  20.505  0.00  0.00    +0.000 A 
ATOM     11  C   UNL     1       1.265   9.096  19.191  0.00  0.00    +0.000 A 
ATOM     12  C   UNL     1       1.404  10.274  18.457  0.00  0.00    +0.000 A 
ATOM     13  C   UNL     1       1.066  11.504  19.033  0.00  0.00    +0.000 A 
ATOM     14  C   UNL     1       0.527  11.543  20.335  0.00  0.00    +0.000 A 
ATOM     15  C   UNL     1      -1.387  12.654  23.316  0.00  0.00    +0.000 C 
ATOM     16  C   UNL     1      -2.799  12.030  23.403  0.00  0.00    +0.000 C 
ATOM     17  C   UNL     1      -3.970  12.830  22.787  0.00  0.00    +0.000 C 
ATOM     18  H   UNL     1      -0.380   9.985  22.982  0.00  0.00    +0.000 HD
ENDROOT
BRANCH   1  20
ATOM     19  C   UNL     1      -5.931  15.671  24.030  0.00  0.00    +0.000 C 
ATOM     20  C   UNL     1      -5.013  15.230  22.901  0.00  0.00    +0.000 C 
ENDBRANCH   1  20
BRANCH  13  21
ATOM     21  O   UNL     1       1.212  12.665  18.312  0.00  0.00    +0.000 OA
ATOM     22  H   UNL     1       1.057  13.417  18.904  0.00  0.00    +0.000 HD
ENDBRANCH  13  21
BRANCH  17  23
ATOM     23  C   UNL     1      -4.256  12.583  21.310  0.00  0.00    +0.000 C 
ATOM     24  C   UNL     1      -5.456  12.192  20.837  0.00  0.00    +0.000 C 
BRANCH  24  25
ATOM     25  O   UNL     1      -6.555  11.974  21.624  0.00  0.00    +0.000 OA
ATOM     26  C   UNL     1      -7.564  11.251  20.918  0.00  0.00    +0.000 C 
ENDBRANCH  24  25
BRANCH  23  27
ATOM     27  C   UNL     1      -3.306  12.930  20.218  0.00  0.00    +0.000 C 
ATOM     28  O   UNL     1      -2.995  14.057  19.883  0.00  0.00    +0.000 OA
BRANCH  27  29
ATOM     29  O   UNL     1      -2.885  11.793  19.599  0.00  0.00    +0.000 OA
ATOM     30  C   UNL     1      -2.532  11.964  18.226  0.00  0.00    +0.000 C 
ENDBRANCH  27  29
ENDBRANCH  23  27
ENDBRANCH  17  23
TORSDOF 6
ENDMDL
MODEL 3
REMARK VINA RESULT:      -5.4      2.541      3.602
REMARK  Name = 
REMARK  9 active torsions:
REMARK  status: ('A' for Active; 'I' for Inactive)
REMARK    1  A    between atoms: C_1  and  C_2
REMARK    2  A    between atoms: C_2  and  C_3
REMARK    3  A    between atoms: C_15  and  O_16
REMARK    4  A    between atoms: C_20  and  C_21
REMARK    5  A    between atoms: C_21  and  C_25
REMARK    6  A    between atoms: C_22  and  O_23
REMARK    7  A    between atoms: O_23  and  C_24
REMARK    8  A    between atoms: C_25  and  O_27
REMARK    9  A    between atoms: O_27  and  C_28
REMARK                            x       y       z     vdW  Elec       q    Type
REMARK                         _______ _______ _______ _____ _____    ______ ____
ROOT
ATOM      1  C   UNL     1      -3.609  15.917  23.776  0.00  0.00    +0.000 C 
ATOM      2  C   UNL     1      -2.630  16.421  22.709  0.00  0.00    +0.000 C 
ATOM      3  N   UNL     1      -1.349  15.737  22.567  0.00  0.00    +0.000 NA
ATOM      4  C   UNL     1      -0.769  16.008  21.220  0.00  0.00    +0.000 C 
ATOM      5  C   UNL     1      -1.146  14.998  20.103  0.00  0.00    +0.000 C 
ATOM      6  C   UNL     1      -0.882  13.629  20.599  0.00  0.00    +0.000 A 
ATOM      7  C   UNL     1      -0.855  13.381  21.951  0.00  0.00    +0.000 A 
ATOM      8  N   UNL     1      -0.358  12.114  22.119  0.00  0.00    +0.000 N 
ATOM      9  C   UNL     1      -0.342  11.456  20.901  0.00  0.00    +0.000 A 
ATOM     10  C   UNL     1      -0.068  10.120  20.600  0.00  0.00    +0.000 A 
ATOM     11  C   UNL     1      -0.218   9.713  19.268  0.00  0.00    +0.000 A 
ATOM     12  C   UNL     1      -0.573  10.623  18.271  0.00  0.00    +0.000 A 
ATOM     13  C   UNL     1      -0.776  11.970  18.590  0.00  0.00    +0.000 A 
ATOM     14  C   UNL     1      -0.681  12.394  19.931  0.00  0.00    +0.000 A 
ATOM     15  C   UNL     1      -1.198  14.348  23.046  0.00  0.00    +0.000 C 
ATOM     16  C   UNL     1      -2.330  13.788  23.937  0.00  0.00    +0.000 C 
ATOM     17  C   UNL     1      -3.745  14.381  23.745  0.00  0.00    +0.000 C 
ATOM     18  H   UNL     1      -0.108  11.690  23.002  0.00  0.00    +0.000 HD
ENDROOT
BRANCH   1  20
ATOM     19  C   UNL     1      -5.317  17.450  24.964  0.00  0.00    +0.000 C 
ATOM     20  C   UNL     1      -4.929  16.717  23.689  0.00  0.00    +0.000 C 
ENDBRANCH   1  20
BRANCH  13  21
ATOM     21  O   UNL     1      -1.116  12.867  17.606  0.00  0.00    +0.000 OA
ATOM     22  H   UNL     1      -1.103  12.408  16.753  0.00  0.00    +0.000 HD
ENDBRANCH  13  21
BRANCH  17  23
ATOM     23  C   UNL     1      -4.622  13.713  22.693  0.00  0.00    +0.000 C 
ATOM     24  C   UNL     1      -5.793  13.105  22.972  0.00  0.00    +0.000 C 
BRANCH  24  25
ATOM     25  O   UNL     1      -6.330  13.020  24.229  0.00  0.00    +0.000 OA
ATOM     26  C   UNL     1      -7.606  13.656  24.293  0.00  0.00    +0.000 C 
ENDBRANCH  24  25
BRANCH  23  27
ATOM     27  C   UNL     1      -4.383  13.826  21.229  0.00  0.00    +0.000 C 
ATOM     28  O   UNL     1      -4.528  14.834  20.564  0.00  0.00    +0.000 OA
BRANCH  27  29
ATOM     29  O   UNL     1      -4.040  12.608  20.725  0.00  0.00    +0.000 OA
ATOM     30  C   UNL     1      -4.505  12.365  19.397  0.00  0.00    +0.000 C 
ENDBRANCH  27  29
ENDBRANCH  23  27
ENDBRANCH  17  23
TORSDOF 6
ENDMDL
MODEL 4
REMARK VINA RESULT:      -5.3      8.836     12.177
REMARK  Name = 
REMARK  9 active torsions:
REMARK  status: ('A' for Active; 'I' for Inactive)
REMARK    1  A    between atoms: C_1  and  C_2
REMARK    2  A    between atoms: C_2  and  C_3
REMARK    3  A    between atoms: C_15  and  O_16
REMARK    4  A    between atoms: C_20  and  C_21
REMARK    5  A    between atoms: C_21  and  C_25
REMARK    6  A    between atoms: C_22  and  O_23
REMARK    7  A    between atoms: O_23  and  C_24
REMARK    8  A    between atoms: C_25  and  O_27
REMARK    9  A    between atoms: O_27  and  C_28
REMARK                            x       y       z     vdW  Elec       q    Type
REMARK                         _______ _______ _______ _____ _____    ______ ____
ROOT
ATOM      1  C   UNL     1       5.954  15.109  24.157  0.00  0.00    +0.000 C 
ATOM      2  C   UNL     1       7.416  15.562  24.058  0.00  0.00    +0.000 C 
ATOM      3  N   UNL     1       8.446  14.544  23.889  0.00  0.00    +0.000 NA
ATOM      4  C   UNL     1       9.684  15.155  23.324  0.00  0.00    +0.000 C 
ATOM      5  C   UNL     1       9.792  15.162  21.776  0.00  0.00    +0.000 C 
ATOM      6  C   UNL     1       9.526  13.793  21.280  0.00  0.00    +0.000 A 
ATOM      7  C   UNL     1       8.796  12.915  22.045  0.00  0.00    +0.000 A 
ATOM      8  N   UNL     1       8.914  11.678  21.464  0.00  0.00    +0.000 N 
ATOM      9  C   UNL     1       9.462  11.810  20.199  0.00  0.00    +0.000 A 
ATOM     10  C   UNL     1       9.629  10.865  19.185  0.00  0.00    +0.000 A 
ATOM     11  C   UNL     1      10.139  11.314  17.960  0.00  0.00    +0.000 A 
ATOM     12  C   UNL     1      10.517  12.645  17.780  0.00  0.00    +0.000 A 
ATOM     13  C   UNL     1      10.401  13.557  18.835  0.00  0.00    +0.000 A 
ATOM     14  C   UNL     1       9.843  13.141  20.061  0.00  0.00    +0.000 A 
ATOM     15  C   UNL     1       8.093  13.222  23.334  0.00  0.00    +0.000 C 
ATOM     16  C   UNL     1       6.587  12.888  23.230  0.00  0.00    +0.000 C 
ATOM     17  C   UNL     1       5.605  14.071  23.070  0.00  0.00    +0.000 C 
ATOM     18  H   UNL     1       8.588  10.807  21.859  0.00  0.00    +0.000 HD
ENDROOT
BRANCH   1  20
ATOM     19  C   UNL     1       5.752  17.684  24.241  0.00  0.00    +0.000 C 
ATOM     20  C   UNL     1       5.030  16.346  24.235  0.00  0.00    +0.000 C 
ENDBRANCH   1  20
BRANCH  13  21
ATOM     21  O   UNL     1      10.783  14.865  18.659  0.00  0.00    +0.000 OA
ATOM     22  H   UNL     1      10.403  15.396  19.376  0.00  0.00    +0.000 HD
ENDBRANCH  13  21
BRANCH  17  23
ATOM     23  C   UNL     1       5.318  14.526  21.644  0.00  0.00    +0.000 C 
ATOM     24  C   UNL     1       4.123  14.375  21.038  0.00  0.00    +0.000 C 
BRANCH  24  25
ATOM     25  O   UNL     1       3.031  13.801  21.632  0.00  0.00    +0.000 OA
ATOM     26  C   UNL     1       2.104  13.319  20.658  0.00  0.00    +0.000 C 
ENDBRANCH  24  25
BRANCH  23  27
ATOM     27  C   UNL     1       6.257  15.352  20.838  0.00  0.00    +0.000 C 
ATOM     28  O   UNL     1       6.546  16.512  21.059  0.00  0.00    +0.000 OA
BRANCH  27  29
ATOM     29  O   UNL     1       6.697  14.634  19.768  0.00  0.00    +0.000 OA
ATOM     30  C   UNL     1       7.108  15.425  18.653  0.00  0.00    +0.000 C 
ENDBRANCH  27  29
ENDBRANCH  23  27
ENDBRANCH  17  23
TORSDOF 6
ENDMDL
MODEL 5
REMARK VINA RESULT:      -5.3      4.511      7.182
REMARK  Name = 
REMARK  9 active torsions:
REMARK  status: ('A' for Active; 'I' for Inactive)
REMARK    1  A    between atoms: C_1  and  C_2
REMARK    2  A    between atoms: C_2  and  C_3
REMARK    3  A    between atoms: C_15  and  O_16
REMARK    4  A    between atoms: C_20  and  C_21
REMARK    5  A    between atoms: C_21  and  C_25
REMARK    6  A    between atoms: C_22  and  O_23
REMARK    7  A    between atoms: O_23  and  C_24
REMARK    8  A    between atoms: C_25  and  O_27
REMARK    9  A    between atoms: O_27  and  C_28
REMARK                            x       y       z     vdW  Elec       q    Type
REMARK                         _______ _______ _______ _____ _____    ______ ____
ROOT
ATOM      1  C   UNL     1      -0.551  15.373  20.064  0.00  0.00    +0.000 C 
ATOM      2  C   UNL     1      -1.277  14.286  20.864  0.00  0.00    +0.000 C 
ATOM      3  N   UNL     1      -1.699  13.077  20.166  0.00  0.00    +0.000 NA
ATOM      4  C   UNL     1      -1.914  11.969  21.140  0.00  0.00    +0.000 C 
ATOM      5  C   UNL     1      -0.682  11.070  21.429  0.00  0.00    +0.000 C 
ATOM      6  C   UNL     1      -0.114  10.623  20.137  0.00  0.00    +0.000 A 
ATOM      7  C   UNL     1      -0.344  11.352  18.996  0.00  0.00    +0.000 A 
ATOM      8  N   UNL     1       0.083  10.592  17.937  0.00  0.00    +0.000 N 
ATOM      9  C   UNL     1       0.836   9.528  18.404  0.00  0.00    +0.000 A 
ATOM     10  C   UNL     1       1.594   8.585  17.708  0.00  0.00    +0.000 A 
ATOM     11  C   UNL     1       2.332   7.664  18.462  0.00  0.00    +0.000 A 
ATOM     12  C   UNL     1       2.266   7.655  19.856  0.00  0.00    +0.000 A 
ATOM     13  C   UNL     1       1.444   8.568  20.526  0.00  0.00    +0.000 A 
ATOM     14  C   UNL     1       0.732   9.538  19.792  0.00  0.00    +0.000 A 
ATOM     15  C   UNL     1      -1.033  12.683  18.907  0.00  0.00    +0.000 C 
ATOM     16  C   UNL     1      -0.113  13.733  18.244  0.00  0.00    +0.000 C 
ATOM     17  C   UNL     1       0.554  14.779  19.167  0.00  0.00    +0.000 C 
ATOM     18  H   UNL     1      -0.061  10.807  16.960  0.00  0.00    +0.000 HD
ENDROOT
BRANCH   1  20
ATOM     19  C   UNL     1       0.648  17.646  20.341  0.00  0.00    +0.000 C 
ATOM     20  C   UNL     1      -0.113  16.513  21.012  0.00  0.00    +0.000 C 
ENDBRANCH   1  20
BRANCH  13  21
ATOM     21  O   UNL     1       1.373   8.552  21.898  0.00  0.00    +0.000 OA
ATOM     22  H   UNL     1       1.941   9.256  22.245  0.00  0.00    +0.000 HD
ENDBRANCH  13  21
BRANCH  17  23
ATOM     23  C   UNL     1       1.900  14.389  19.769  0.00  0.00    +0.000 C 
ATOM     24  C   UNL     1       3.086  14.768  19.253  0.00  0.00    +0.000 C 
BRANCH  24  25
ATOM     25  O   UNL     1       3.221  15.547  18.134  0.00  0.00    +0.000 OA
ATOM     26  C   UNL     1       4.213  16.556  18.321  0.00  0.00    +0.000 C 
ENDBRANCH  24  25
BRANCH  23  27
ATOM     27  C   UNL     1       2.048  13.718  21.088  0.00  0.00    +0.000 C 
ATOM     28  O   UNL     1       2.107  12.517  21.268  0.00  0.00    +0.000 OA
BRANCH  27  29
ATOM     29  O   UNL     1       2.039  14.650  22.080  0.00  0.00    +0.000 OA
ATOM     30  C   UNL     1       3.323  15.187  22.400  0.00  0.00    +0.000 C 
ENDBRANCH  27  29
ENDBRANCH  23  27
ENDBRANCH  17  23
TORSDOF 6
ENDMDL
MODEL 6
REMARK VINA RESULT:      -5.2      4.164      6.991
REMARK  Name = 
REMARK  9 active torsions:
REMARK  status: ('A' for Active; 'I' for Inactive)
REMARK    1  A    between atoms: C_1  and  C_2
REMARK    2  A    between atoms: C_2  and  C_3
REMARK    3  A    between atoms: C_15  and  O_16
REMARK    4  A    between atoms: C_20  and  C_21
REMARK    5  A    between atoms: C_21  and  C_25
REMARK    6  A    between atoms: C_22  and  O_23
REMARK    7  A    between atoms: O_23  and  C_24
REMARK    8  A    between atoms: C_25  and  O_27
REMARK    9  A    between atoms: O_27  and  C_28
REMARK                            x       y       z     vdW  Elec       q    Type
REMARK                         _______ _______ _______ _____ _____    ______ ____
ROOT
ATOM      1  C   UNL     1      -0.275  10.501  20.676  0.00  0.00    +0.000 C 
ATOM      2  C   UNL     1       1.033  10.889  19.977  0.00  0.00    +0.000 C 
ATOM      3  N   UNL     1       0.958  11.727  18.785  0.00  0.00    +0.000 NA
ATOM      4  C   UNL     1       2.268  12.398  18.546  0.00  0.00    +0.000 C 
ATOM      5  C   UNL     1       2.448  13.791  19.207  0.00  0.00    +0.000 C 
ATOM      6  C   UNL     1       1.279  14.630  18.860  0.00  0.00    +0.000 A 
ATOM      7  C   UNL     1       0.089  14.040  18.509  0.00  0.00    +0.000 A 
ATOM      8  N   UNL     1      -0.723  15.028  18.015  0.00  0.00    +0.000 N 
ATOM      9  C   UNL     1      -0.178  16.267  18.312  0.00  0.00    +0.000 A 
ATOM     10  C   UNL     1      -0.709  17.548  18.150  0.00  0.00    +0.000 A 
ATOM     11  C   UNL     1       0.045  18.626  18.630  0.00  0.00    +0.000 A 
ATOM     12  C   UNL     1       1.305  18.430  19.197  0.00  0.00    +0.000 A 
ATOM     13  C   UNL     1       1.842  17.141  19.285  0.00  0.00    +0.000 A 
ATOM     14  C   UNL     1       1.081  16.034  18.857  0.00  0.00    +0.000 A 
ATOM     15  C   UNL     1      -0.230  12.574  18.553  0.00  0.00    +0.000 C 
ATOM     16  C   UNL     1      -1.464  12.308  19.445  0.00  0.00    +0.000 C 
ATOM     17  C   UNL     1      -1.211  11.715  20.851  0.00  0.00    +0.000 C 
ATOM     18  H   UNL     1      -1.617  14.888  17.567  0.00  0.00    +0.000 HD
ENDROOT
BRANCH   1  20
ATOM     19  C   UNL     1       0.932   8.484  21.752  0.00  0.00    +0.000 C 
ATOM     20  C   UNL     1       0.040   9.699  21.960  0.00  0.00    +0.000 C 
ENDBRANCH   1  20
BRANCH  13  21
ATOM     21  O   UNL     1       3.086  16.950  19.836  0.00  0.00    +0.000 OA
ATOM     22  H   UNL     1       2.997  16.365  20.604  0.00  0.00    +0.000 HD
ENDBRANCH  13  21
BRANCH  17  23
ATOM     23  C   UNL     1      -0.962  12.716  21.973  0.00  0.00    +0.000 C 
ATOM     24  C   UNL     1      -1.564  12.652  23.178  0.00  0.00    +0.000 C 
BRANCH  24  25
ATOM     25  O   UNL     1      -2.463  11.682  23.534  0.00  0.00    +0.000 OA
ATOM     26  C   UNL     1      -3.684  12.254  24.005  0.00  0.00    +0.000 C 
ENDBRANCH  24  25
BRANCH  23  27
ATOM     27  C   UNL     1       0.106  13.751  21.933  0.00  0.00    +0.000 C 
ATOM     28  O   UNL     1       1.299  13.539  22.033  0.00  0.00    +0.000 OA
BRANCH  27  29
ATOM     29  O   UNL     1      -0.457  14.986  21.834  0.00  0.00    +0.000 OA
ATOM     30  C   UNL     1       0.326  16.039  22.398  0.00  0.00    +0.000 C 
ENDBRANCH  27  29
ENDBRANCH  23  27
ENDBRANCH  17  23
TORSDOF 6
ENDMDL
MODEL 7
REMARK VINA RESULT:      -5.1      2.030      2.983
REMARK  Name = 
REMARK  9 active torsions:
REMARK  status: ('A' for Active; 'I' for Inactive)
REMARK    1  A    between atoms: C_1  and  C_2
REMARK    2  A    between atoms: C_2  and  C_3
REMARK    3  A    between atoms: C_15  and  O_16
REMARK    4  A    between atoms: C_20  and  C_21
REMARK    5  A    between atoms: C_21  and  C_25
REMARK    6  A    between atoms: C_22  and  O_23
REMARK    7  A    between atoms: O_23  and  C_24
REMARK    8  A    between atoms: C_25  and  O_27
REMARK    9  A    between atoms: O_27  and  C_28
REMARK                            x       y       z     vdW  Elec       q    Type
REMARK                         _______ _______ _______ _____ _____    ______ ____
ROOT
ATOM      1  C   UNL     1      -5.160  14.869  23.925  0.00  0.00    +0.000 C 
ATOM      2  C   UNL     1      -3.730  15.401  24.070  0.00  0.00    +0.000 C 
ATOM      3  N   UNL     1      -2.681  14.469  24.465  0.00  0.00    +0.000 NA
ATOM      4  C   UNL     1      -1.344  15.005  24.077  0.00  0.00    +0.000 C 
ATOM      5  C   UNL     1      -0.830  14.595  22.671  0.00  0.00    +0.000 C 
ATOM      6  C   UNL     1      -0.941  13.125  22.540  0.00  0.00    +0.000 A 
ATOM      7  C   UNL     1      -1.838  12.431  23.317  0.00  0.00    +0.000 A 
ATOM      8  N   UNL     1      -1.558  11.098  23.164  0.00  0.00    +0.000 N 
ATOM      9  C   UNL     1      -0.696  10.924  22.094  0.00  0.00    +0.000 A 
ATOM     10  C   UNL     1      -0.256   9.755  21.471  0.00  0.00    +0.000 A 
ATOM     11  C   UNL     1       0.555   9.892  20.337  0.00  0.00    +0.000 A 
ATOM     12  C   UNL     1       0.953  11.150  19.882  0.00  0.00    +0.000 A 
ATOM     13  C   UNL     1       0.553  12.303  20.567  0.00  0.00    +0.000 A 
ATOM     14  C   UNL     1      -0.306  12.193  21.680  0.00  0.00    +0.000 A 
ATOM     15  C   UNL     1      -2.861  13.019  24.244  0.00  0.00    +0.000 C 
ATOM     16  C   UNL     1      -4.282  12.541  23.866  0.00  0.00    +0.000 C 
ATOM     17  C   UNL     1      -5.199  13.547  23.132  0.00  0.00    +0.000 C 
ATOM     18  H   UNL     1      -1.968  10.344  23.698  0.00  0.00    +0.000 HD
ENDROOT
BRANCH   1  20
ATOM     19  C   UNL     1      -7.560  15.629  23.338  0.00  0.00    +0.000 C 
ATOM     20  C   UNL     1      -6.086  15.995  23.410  0.00  0.00    +0.000 C 
ENDBRANCH   1  20
BRANCH  13  21
ATOM     21  O   UNL     1       0.953  13.540  20.124  0.00  0.00    +0.000 OA
ATOM     22  H   UNL     1       0.515  14.217  20.662  0.00  0.00    +0.000 HD
ENDBRANCH  13  21
BRANCH  17  23
ATOM     23  C   UNL     1      -5.103  13.565  21.610  0.00  0.00    +0.000 C 
ATOM     24  C   UNL     1      -5.662  12.632  20.815  0.00  0.00    +0.000 C 
BRANCH  24  25
ATOM     25  O   UNL     1      -6.381  11.563  21.279  0.00  0.00    +0.000 OA
ATOM     26  C   UNL     1      -7.286  11.075  20.287  0.00  0.00    +0.000 C 
ENDBRANCH  24  25
BRANCH  23  27
ATOM     27  C   UNL     1      -4.553  14.709  20.834  0.00  0.00    +0.000 C 
ATOM     28  O   UNL     1      -3.387  15.056  20.815  0.00  0.00    +0.000 OA
BRANCH  27  29
ATOM     29  O   UNL     1      -5.565  15.360  20.197  0.00  0.00    +0.000 OA
ATOM     30  C   UNL     1      -5.268  16.709  19.837  0.00  0.00    +0.000 C 
ENDBRANCH  27  29
ENDBRANCH  23  27
ENDBRANCH  17  23
TORSDOF 6
ENDMDL
MODEL 8
REMARK VINA RESULT:      -5.1      9.525     12.744
REMARK  Name = 
REMARK  9 active torsions:
REMARK  status: ('A' for Active; 'I' for Inactive)
REMARK    1  A    between atoms: C_1  and  C_2
REMARK    2  A    between atoms: C_2  and  C_3
REMARK    3  A    between atoms: C_15  and  O_16
REMARK    4  A    between atoms: C_20  and  C_21
REMARK    5  A    between atoms: C_21  and  C_25
REMARK    6  A    between atoms: C_22  and  O_23
REMARK    7  A    between atoms: O_23  and  C_24
REMARK    8  A    between atoms: C_25  and  O_27
REMARK    9  A    between atoms: O_27  and  C_28
REMARK                            x       y       z     vdW  Elec       q    Type
REMARK                         _______ _______ _______ _____ _____    ______ ____
ROOT
ATOM      1  C   UNL     1       5.917  15.676  23.202  0.00  0.00    +0.000 C 
ATOM      2  C   UNL     1       7.340  16.142  23.530  0.00  0.00    +0.000 C 
ATOM      3  N   UNL     1       8.375  15.131  23.710  0.00  0.00    +0.000 NA
ATOM      4  C   UNL     1       9.724  15.737  23.521  0.00  0.00    +0.000 C 
ATOM      5  C   UNL     1      10.291  15.699  22.077  0.00  0.00    +0.000 C 
ATOM      6  C   UNL     1      10.187  14.313  21.568  0.00  0.00    +0.000 A 
ATOM      7  C   UNL     1       9.263  13.451  22.107  0.00  0.00    +0.000 A 
ATOM      8  N   UNL     1       9.551  12.199  21.627  0.00  0.00    +0.000 N 
ATOM      9  C   UNL     1      10.451  12.299  20.579  0.00  0.00    +0.000 A 
ATOM     10  C   UNL     1      10.916  11.326  19.693  0.00  0.00    +0.000 A 
ATOM     11  C   UNL     1      11.768  11.744  18.663  0.00  0.00    +0.000 A 
ATOM     12  C   UNL     1      12.181  13.073  18.562  0.00  0.00    +0.000 A 
ATOM     13  C   UNL     1      11.754  14.014  19.505  0.00  0.00    +0.000 A 
ATOM     14  C   UNL     1      10.855  13.629  20.520  0.00  0.00    +0.000 A 
ATOM     15  C   UNL     1       8.205  13.788  23.116  0.00  0.00    +0.000 C 
ATOM     16  C   UNL     1       6.800  13.435  22.577  0.00  0.00    +0.000 C 
ATOM     17  C   UNL     1       5.909  14.603  22.094  0.00  0.00    +0.000 C 
ATOM     18  H   UNL     1       9.122  11.336  21.933  0.00  0.00    +0.000 HD
ENDROOT
BRANCH   1  20
ATOM     19  C   UNL     1       3.522  16.596  22.886  0.00  0.00    +0.000 C 
ATOM     20  C   UNL     1       5.010  16.905  22.961  0.00  0.00    +0.000 C 
ENDBRANCH   1  20
BRANCH  13  21
ATOM     21  O   UNL     1      12.169  15.321  19.410  0.00  0.00    +0.000 OA
ATOM     22  H   UNL     1      12.301  15.668  20.305  0.00  0.00    +0.000 HD
ENDBRANCH  13  21
BRANCH  17  23
ATOM     23  C   UNL     1       6.062  15.012  20.634  0.00  0.00    +0.000 C 
ATOM     24  C   UNL     1       5.072  14.914  19.723  0.00  0.00    +0.000 C 
BRANCH  24  25
ATOM     25  O   UNL     1       3.818  14.440  20.004  0.00  0.00    +0.000 OA
ATOM     26  C   UNL     1       3.135  14.042  18.815  0.00  0.00    +0.000 C 
ENDBRANCH  24  25
BRANCH  23  27
ATOM     27  C   UNL     1       7.246  15.738  20.101  0.00  0.00    +0.000 C 
ATOM     28  O   UNL     1       7.562  16.878  20.382  0.00  0.00    +0.000 OA
BRANCH  27  29
ATOM     29  O   UNL     1       7.892  14.957  19.192  0.00  0.00    +0.000 OA
ATOM     30  C   UNL     1       8.662  15.679  18.231  0.00  0.00    +0.000 C 
ENDBRANCH  27  29
ENDBRANCH  23  27
ENDBRANCH  17  23
TORSDOF 6
ENDMDL
MODEL 9
REMARK VINA RESULT:      -5.1      2.363      3.971
REMARK  Name = 
REMARK  9 active torsions:
REMARK  status: ('A' for Active; 'I' for Inactive)
REMARK    1  A    between atoms: C_1  and  C_2
REMARK    2  A    between atoms: C_2  and  C_3
REMARK    3  A    between atoms: C_15  and  O_16
REMARK    4  A    between atoms: C_20  and  C_21
REMARK    5  A    between atoms: C_21  and  C_25
REMARK    6  A    between atoms: C_22  and  O_23
REMARK    7  A    between atoms: O_23  and  C_24
REMARK    8  A    between atoms: C_25  and  O_27
REMARK    9  A    between atoms: O_27  and  C_28
REMARK                            x       y       z     vdW  Elec       q    Type
REMARK                         _______ _______ _______ _____ _____    ______ ____
ROOT
ATOM      1  C   UNL     1      -2.656  14.205  21.546  0.00  0.00    +0.000 C 
ATOM      2  C   UNL     1      -1.224  14.604  21.171  0.00  0.00    +0.000 C 
ATOM      3  N   UNL     1      -0.126  13.772  21.650  0.00  0.00    +0.000 NA
ATOM      4  C   UNL     1       1.089  13.993  20.814  0.00  0.00    +0.000 C 
ATOM      5  C   UNL     1       1.248  13.058  19.586  0.00  0.00    +0.000 C 
ATOM      6  C   UNL     1       1.086  11.658  20.038  0.00  0.00    +0.000 A 
ATOM      7  C   UNL     1       0.388  11.384  21.189  0.00  0.00    +0.000 A 
ATOM      8  N   UNL     1       0.603  10.062  21.487  0.00  0.00    +0.000 N 
ATOM      9  C   UNL     1       1.183   9.430  20.400  0.00  0.00    +0.000 A 
ATOM     10  C   UNL     1       1.444   8.077  20.178  0.00  0.00    +0.000 A 
ATOM     11  C   UNL     1       1.965   7.716  18.929  0.00  0.00    +0.000 A 
ATOM     12  C   UNL     1       2.264   8.679  17.965  0.00  0.00    +0.000 A 
ATOM     13  C   UNL     1       2.056  10.035  18.241  0.00  0.00    +0.000 A 
ATOM     14  C   UNL     1       1.484  10.420  19.471  0.00  0.00    +0.000 A 
ATOM     15  C   UNL     1      -0.377  12.365  22.028  0.00  0.00    +0.000 C 
ATOM     16  C   UNL     1      -1.854  11.932  22.168  0.00  0.00    +0.000 C 
ATOM     17  C   UNL     1      -2.903  12.697  21.329  0.00  0.00    +0.000 C 
ATOM     18  H   UNL     1       0.319   9.596  22.338  0.00  0.00    +0.000 HD
ENDROOT
BRANCH   1  20
ATOM     19  C   UNL     1      -4.962  15.369  21.616  0.00  0.00    +0.000 C 
ATOM     20  C   UNL     1      -3.659  15.161  20.860  0.00  0.00    +0.000 C 
ENDBRANCH   1  20
BRANCH  13  21
ATOM     21  O   UNL     1       2.359  10.985  17.295  0.00  0.00    +0.000 OA
ATOM     22  H   UNL     1       2.700  11.771  17.746  0.00  0.00    +0.000 HD
ENDBRANCH  13  21
BRANCH  17  23
ATOM     23  C   UNL     1      -3.170  12.161  19.927  0.00  0.00    +0.000 C 
ATOM     24  C   UNL     1      -4.405  11.995  19.413  0.00  0.00    +0.000 C 
BRANCH  24  25
ATOM     25  O   UNL     1      -5.560  12.291  20.087  0.00  0.00    +0.000 OA
ATOM     26  C   UNL     1      -6.621  11.413  19.709  0.00  0.00    +0.000 C 
ENDBRANCH  24  25
BRANCH  23  27
ATOM     27  C   UNL     1      -2.105  11.947  18.911  0.00  0.00    +0.000 C 
ATOM     28  O   UNL     1      -1.540  12.821  18.282  0.00  0.00    +0.000 OA
BRANCH  27  29
ATOM     29  O   UNL     1      -1.901  10.612  18.735  0.00  0.00    +0.000 OA
ATOM     30  C   UNL     1      -1.615  10.229  17.389  0.00  0.00    +0.000 C 
ENDBRANCH  27  29
ENDBRANCH  23  27
ENDBRANCH  17  23
TORSDOF 6
ENDMDL
