MODEL 1
REMARK VINA RESULT:      -8.2      0.000      0.000
REMARK  Name = 
REMARK  3 active torsions:
REMARK  status: ('A' for Active; 'I' for Inactive)
REMARK    1  A    between atoms: C_2  and  C_4
REMARK    2  A    between atoms: C_5  and  N_6
REMARK    3  A    between atoms: N_9  and  C_10
REMARK                            x       y       z     vdW  Elec       q    Type
REMARK                         _______ _______ _______ _____ _____    ______ ____
ROOT
ATOM      1  C   UNL     1       6.703   5.322  17.762  0.00  0.00    +0.000 A 
ATOM      2  C   UNL     1       6.531   6.531  17.094  0.00  0.00    +0.000 A 
ATOM      3  S   UNL     1       4.940   6.716  16.484  0.00  0.00    +0.000 S 
ATOM      4  C   UNL     1       4.397   5.414  17.400  0.00  0.00    +0.000 A 
ATOM      5  C   UNL     1       5.430   4.607  17.834  0.00  0.00    +0.000 A 
ATOM      6  C   UNL     1       5.128   3.272  18.484  0.00  0.00    +0.000 C 
ATOM      7  C   UNL     1       3.595   2.965  18.526  0.00  0.00    +0.000 C 
ATOM      8  N   UNL     1       2.759   4.242  18.852  0.00  0.00    +0.000 N 
ATOM      9  C   UNL     1       3.189   4.832  20.210  0.00  0.00    +0.000 C 
ATOM     10  C   UNL     1       2.310   4.081  21.187  0.00  0.00    +0.000 C 
ATOM     11  C   UNL     1       0.963   4.223  20.519  0.00  0.00    +0.000 C 
ATOM     12  C   UNL     1       1.249   3.967  19.041  0.00  0.00    +0.000 C 
ATOM     13  C   UNL     1       2.954   5.204  17.666  0.00  0.00    +0.000 C 
ENDROOT
BRANCH   2  14
ATOM     14  N   UNL     1       7.407   7.577  16.785  0.00  0.00    +0.000 N 
ATOM     15  C   UNL     1       7.843   8.385  17.846  0.00  0.00    +0.000 C 
ATOM     16  O   UNL     1       7.655   8.064  19.019  0.00  0.00    +0.000 OA
ATOM     17  N   UNL     1       8.494   9.527  17.430  0.00  0.00    +0.000 N 
ATOM     18  H   UNL     1       8.090   7.420  16.054  0.00  0.00    +0.000 HD
ATOM     19  H   UNL     1       8.366   9.797  16.462  0.00  0.00    +0.000 HD
BRANCH  17  20
ATOM     20  C   UNL     1       9.002  10.525  18.308  0.00  0.00    +0.000 A 
ATOM     21  C   UNL     1       9.485  10.240  19.592  0.00  0.00    +0.000 A 
ATOM     22  C   UNL     1       9.886  11.257  20.463  0.00  0.00    +0.000 A 
ATOM     23  C   UNL     1       9.835  12.581  20.038  0.00  0.00    +0.000 A 
ATOM     24 CL   UNL     1      10.283  13.834  21.129  0.00  0.00    +0.000 Cl
ATOM     25  C   UNL     1       9.407  12.883  18.754  0.00  0.00    +0.000 A 
ATOM     26  C   UNL     1       8.999  11.860  17.884  0.00  0.00    +0.000 A 
ENDBRANCH  17  20
ENDBRANCH   2  14
BRANCH   1  28
ATOM     27  N   UNL     1       8.154   5.311  19.682  0.00  0.00    +0.000 N 
ATOM     28  C   UNL     1       7.930   4.859  18.413  0.00  0.00    +0.000 C 
ATOM     29  O   UNL     1       8.667   4.021  17.907  0.00  0.00    +0.000 OA
ATOM     30  H   UNL     1       8.892   4.827  20.181  0.00  0.00    +0.000 HD
ATOM     31  H   UNL     1       7.380   5.634  20.249  0.00  0.00    +0.000 HD
ENDBRANCH   1  28
TORSDOF 3
ENDMDL
MODEL 2
REMARK VINA RESULT:      -7.9      1.248      1.276
REMARK  Name = 
REMARK  3 active torsions:
REMARK  status: ('A' for Active; 'I' for Inactive)
REMARK    1  A    between atoms: C_2  and  C_4
REMARK    2  A    between atoms: C_5  and  N_6
REMARK    3  A    between atoms: N_9  and  C_10
REMARK                            x       y       z     vdW  Elec       q    Type
REMARK                         _______ _______ _______ _____ _____    ______ ____
ROOT
ATOM      1  C   UNL     1       5.841   5.240  16.983  0.00  0.00    +0.000 A 
ATOM      2  C   UNL     1       5.557   6.597  16.860  0.00  0.00    +0.000 A 
ATOM      3  S   UNL     1       3.884   6.929  17.030  0.00  0.00    +0.000 S 
ATOM      4  C   UNL     1       3.599   5.381  17.622  0.00  0.00    +0.000 A 
ATOM      5  C   UNL     1       4.625   4.505  17.327  0.00  0.00    +0.000 A 
ATOM      6  C   UNL     1       4.455   3.023  17.583  0.00  0.00    +0.000 C 
ATOM      7  C   UNL     1       3.034   2.674  18.135  0.00  0.00    +0.000 C 
ATOM      8  N   UNL     1       2.532   3.744  19.154  0.00  0.00    +0.000 N 
ATOM      9  C   UNL     1       3.513   3.860  20.337  0.00  0.00    +0.000 C 
ATOM     10  C   UNL     1       3.003   2.801  21.291  0.00  0.00    +0.000 C 
ATOM     11  C   UNL     1       1.527   3.118  21.300  0.00  0.00    +0.000 C 
ATOM     12  C   UNL     1       1.191   3.378  19.832  0.00  0.00    +0.000 C 
ATOM     13  C   UNL     1       2.357   5.052  18.360  0.00  0.00    +0.000 C 
ENDROOT
BRANCH   2  14
ATOM     14  N   UNL     1       6.353   7.712  16.576  0.00  0.00    +0.000 N 
ATOM     15  C   UNL     1       7.292   8.096  17.545  0.00  0.00    +0.000 C 
ATOM     16  O   UNL     1       7.568   7.367  18.497  0.00  0.00    +0.000 OA
ATOM     17  N   UNL     1       7.854   9.331  17.302  0.00  0.00    +0.000 N 
ATOM     18  H   UNL     1       6.644   7.852  15.615  0.00  0.00    +0.000 HD
ATOM     19  H   UNL     1       7.372   9.928  16.640  0.00  0.00    +0.000 HD
BRANCH  17  20
ATOM     20  C   UNL     1       8.806   9.961  18.152  0.00  0.00    +0.000 A 
ATOM     21  C   UNL     1       8.769   9.857  19.549  0.00  0.00    +0.000 A 
ATOM     22  C   UNL     1       9.663  10.569  20.356  0.00  0.00    +0.000 A 
ATOM     23  C   UNL     1      10.630  11.373  19.761  0.00  0.00    +0.000 A 
ATOM     24 CL   UNL     1      11.696  12.285  20.759  0.00  0.00    +0.000 Cl
ATOM     25  C   UNL     1      10.716  11.452  18.379  0.00  0.00    +0.000 A 
ATOM     26  C   UNL     1       9.814  10.742  17.572  0.00  0.00    +0.000 A 
ENDBRANCH  17  20
ENDBRANCH   2  14
BRANCH   1  28
ATOM     27  N   UNL     1       7.742   4.267  18.092  0.00  0.00    +0.000 N 
ATOM     28  C   UNL     1       7.166   4.623  16.906  0.00  0.00    +0.000 C 
ATOM     29  O   UNL     1       7.694   4.328  15.840  0.00  0.00    +0.000 OA
ATOM     30  H   UNL     1       8.556   3.668  18.005  0.00  0.00    +0.000 HD
ATOM     31  H   UNL     1       7.166   4.109  18.909  0.00  0.00    +0.000 HD
ENDBRANCH   1  28
TORSDOF 3
ENDMDL
MODEL 3
REMARK VINA RESULT:      -7.5      6.888      9.084
REMARK  Name = 
REMARK  3 active torsions:
REMARK  status: ('A' for Active; 'I' for Inactive)
REMARK    1  A    between atoms: C_2  and  C_4
REMARK    2  A    between atoms: C_5  and  N_6
REMARK    3  A    between atoms: N_9  and  C_10
REMARK                            x       y       z     vdW  Elec       q    Type
REMARK                         _______ _______ _______ _____ _____    ______ ____
ROOT
ATOM      1  C   UNL     1       1.480   8.376  20.216  0.00  0.00    +0.000 A 
ATOM      2  C   UNL     1       1.327   9.209  19.112  0.00  0.00    +0.000 A 
ATOM      3  S   UNL     1       2.251   8.682  17.768  0.00  0.00    +0.000 S 
ATOM      4  C   UNL     1       2.543   7.197  18.502  0.00  0.00    +0.000 A 
ATOM      5  C   UNL     1       2.313   7.228  19.864  0.00  0.00    +0.000 A 
ATOM      6  C   UNL     1       2.728   6.056  20.729  0.00  0.00    +0.000 C 
ATOM      7  C   UNL     1       3.442   4.934  19.908  0.00  0.00    +0.000 C 
ATOM      8  N   UNL     1       2.775   4.725  18.513  0.00  0.00    +0.000 N 
ATOM      9  C   UNL     1       1.288   4.353  18.680  0.00  0.00    +0.000 C 
ATOM     10  C   UNL     1       1.340   2.846  18.812  0.00  0.00    +0.000 C 
ATOM     11  C   UNL     1       2.241   2.493  17.653  0.00  0.00    +0.000 C 
ATOM     12  C   UNL     1       3.356   3.535  17.715  0.00  0.00    +0.000 C 
ATOM     13  C   UNL     1       3.005   6.026  17.721  0.00  0.00    +0.000 C 
ENDROOT
BRANCH   2  14
ATOM     14  N   UNL     1       0.620  10.399  18.911  0.00  0.00    +0.000 N 
ATOM     15  C   UNL     1      -0.775  10.309  18.804  0.00  0.00    +0.000 C 
ATOM     16  O   UNL     1      -1.377   9.276  19.095  0.00  0.00    +0.000 OA
ATOM     17  N   UNL     1      -1.366  11.474  18.364  0.00  0.00    +0.000 N 
ATOM     18  H   UNL     1       0.964  11.235  19.370  0.00  0.00    +0.000 HD
ATOM     19  H   UNL     1      -0.757  12.156  17.927  0.00  0.00    +0.000 HD
BRANCH  17  20
ATOM     20  C   UNL     1      -2.763  11.631  18.140  0.00  0.00    +0.000 A 
ATOM     21  C   UNL     1      -3.371  11.381  16.902  0.00  0.00    +0.000 A 
ATOM     22  C   UNL     1      -4.729  11.639  16.692  0.00  0.00    +0.000 A 
ATOM     23  C   UNL     1      -5.503  12.125  17.742  0.00  0.00    +0.000 A 
ATOM     24 CL   UNL     1      -7.163  12.487  17.466  0.00  0.00    +0.000 Cl
ATOM     25  C   UNL     1      -4.933  12.332  18.989  0.00  0.00    +0.000 A 
ATOM     26  C   UNL     1      -3.569  12.079  19.195  0.00  0.00    +0.000 A 
ENDBRANCH  17  20
ENDBRANCH   2  14
BRANCH   1  28
ATOM     27  N   UNL     1      -0.458   8.063  21.608  0.00  0.00    +0.000 N 
ATOM     28  C   UNL     1       0.822   8.531  21.514  0.00  0.00    +0.000 C 
ATOM     29  O   UNL     1       1.410   8.948  22.505  0.00  0.00    +0.000 OA
ATOM     30  H   UNL     1      -0.817   7.997  22.555  0.00  0.00    +0.000 HD
ATOM     31  H   UNL     1      -0.788   7.356  20.964  0.00  0.00    +0.000 HD
ENDBRANCH   1  28
TORSDOF 3
ENDMDL
MODEL 4
REMARK VINA RESULT:      -7.4      8.063     10.421
REMARK  Name = 
REMARK  3 active torsions:
REMARK  status: ('A' for Active; 'I' for Inactive)
REMARK    1  A    between atoms: C_2  and  C_4
REMARK    2  A    between atoms: C_5  and  N_6
REMARK    3  A    between atoms: N_9  and  C_10
REMARK                            x       y       z     vdW  Elec       q    Type
REMARK                         _______ _______ _______ _____ _____    ______ ____
ROOT
ATOM      1  C   UNL     1       0.225  11.942  20.913  0.00  0.00    +0.000 A 
ATOM      2  C   UNL     1       0.344  10.811  21.716  0.00  0.00    +0.000 A 
ATOM      3  S   UNL     1      -0.846  10.762  22.949  0.00  0.00    +0.000 S 
ATOM      4  C   UNL     1      -1.717  11.996  22.210  0.00  0.00    +0.000 A 
ATOM      5  C   UNL     1      -0.958  12.708  21.302  0.00  0.00    +0.000 A 
ATOM      6  C   UNL     1      -1.498  13.988  20.699  0.00  0.00    +0.000 C 
ATOM      7  C   UNL     1      -2.906  14.363  21.267  0.00  0.00    +0.000 C 
ATOM      8  N   UNL     1      -3.807  13.103  21.456  0.00  0.00    +0.000 N 
ATOM      9  C   UNL     1      -3.989  12.368  20.114  0.00  0.00    +0.000 C 
ATOM     10  C   UNL     1      -5.194  13.064  19.519  0.00  0.00    +0.000 C 
ATOM     11  C   UNL     1      -6.137  13.052  20.698  0.00  0.00    +0.000 C 
ATOM     12  C   UNL     1      -5.256  13.432  21.886  0.00  0.00    +0.000 C 
ATOM     13  C   UNL     1      -3.137  12.250  22.548  0.00  0.00    +0.000 C 
ENDROOT
BRANCH   2  14
ATOM     14  N   UNL     1       1.264   9.757  21.741  0.00  0.00    +0.000 N 
ATOM     15  C   UNL     1       1.140   8.772  20.751  0.00  0.00    +0.000 C 
ATOM     16  O   UNL     1       0.411   8.930  19.772  0.00  0.00    +0.000 OA
ATOM     17  N   UNL     1       1.914   7.657  20.991  0.00  0.00    +0.000 N 
ATOM     18  H   UNL     1       2.214   9.967  22.024  0.00  0.00    +0.000 HD
ATOM     19  H   UNL     1       2.268   7.542  21.933  0.00  0.00    +0.000 HD
BRANCH  17  20
ATOM     20  C   UNL     1       1.942   6.504  20.156  0.00  0.00    +0.000 A 
ATOM     21  C   UNL     1       1.409   5.267  20.544  0.00  0.00    +0.000 A 
ATOM     22  C   UNL     1       1.541   4.132  19.738  0.00  0.00    +0.000 A 
ATOM     23  C   UNL     1       2.187   4.237  18.510  0.00  0.00    +0.000 A 
ATOM     24 CL   UNL     1       2.390   2.828  17.542  0.00  0.00    +0.000 Cl
ATOM     25  C   UNL     1       2.678   5.462  18.084  0.00  0.00    +0.000 A 
ATOM     26  C   UNL     1       2.550   6.597  18.898  0.00  0.00    +0.000 A 
ENDBRANCH  17  20
ENDBRANCH   2  14
BRANCH   1  28
ATOM     27  N   UNL     1       0.681  11.778  18.555  0.00  0.00    +0.000 N 
ATOM     28  C   UNL     1       1.068  12.281  19.765  0.00  0.00    +0.000 C 
ATOM     29  O   UNL     1       2.005  13.066  19.845  0.00  0.00    +0.000 OA
ATOM     30  H   UNL     1       1.155  12.184  17.756  0.00  0.00    +0.000 HD
ATOM     31  H   UNL     1      -0.283  11.507  18.403  0.00  0.00    +0.000 HD
ENDBRANCH   1  28
TORSDOF 3
ENDMDL
MODEL 5
REMARK VINA RESULT:      -7.4      8.324     10.634
REMARK  Name = 
REMARK  3 active torsions:
REMARK  status: ('A' for Active; 'I' for Inactive)
REMARK    1  A    between atoms: C_2  and  C_4
REMARK    2  A    between atoms: C_5  and  N_6
REMARK    3  A    between atoms: N_9  and  C_10
REMARK                            x       y       z     vdW  Elec       q    Type
REMARK                         _______ _______ _______ _____ _____    ______ ____
ROOT
ATOM      1  C   UNL     1      -0.159  12.306  20.778  0.00  0.00    +0.000 A 
ATOM      2  C   UNL     1       0.054  11.220  21.622  0.00  0.00    +0.000 A 
ATOM      3  S   UNL     1      -1.122  11.122  22.865  0.00  0.00    +0.000 S 
ATOM      4  C   UNL     1      -2.093  12.254  22.087  0.00  0.00    +0.000 A 
ATOM      5  C   UNL     1      -1.398  12.989  21.147  0.00  0.00    +0.000 A 
ATOM      6  C   UNL     1      -2.042  14.198  20.502  0.00  0.00    +0.000 C 
ATOM      7  C   UNL     1      -3.473  14.481  21.066  0.00  0.00    +0.000 C 
ATOM      8  N   UNL     1      -4.269  13.162  21.310  0.00  0.00    +0.000 N 
ATOM      9  C   UNL     1      -4.398  12.363  19.997  0.00  0.00    +0.000 C 
ATOM     10  C   UNL     1      -5.657  12.939  19.386  0.00  0.00    +0.000 C 
ATOM     11  C   UNL     1      -6.591  12.895  20.572  0.00  0.00    +0.000 C 
ATOM     12  C   UNL     1      -5.738  13.389  21.738  0.00  0.00    +0.000 C 
ATOM     13  C   UNL     1      -3.527  12.406  22.428  0.00  0.00    +0.000 C 
ENDROOT
BRANCH   2  14
ATOM     14  N   UNL     1       1.055  10.245  21.679  0.00  0.00    +0.000 N 
ATOM     15  C   UNL     1       1.007   9.216  20.727  0.00  0.00    +0.000 C 
ATOM     16  O   UNL     1       0.263   9.279  19.748  0.00  0.00    +0.000 OA
ATOM     17  N   UNL     1       1.869   8.176  21.002  0.00  0.00    +0.000 N 
ATOM     18  H   UNL     1       1.987  10.540  21.947  0.00  0.00    +0.000 HD
ATOM     19  H   UNL     1       2.235   8.125  21.945  0.00  0.00    +0.000 HD
BRANCH  17  20
ATOM     20  C   UNL     1       1.985   6.999  20.210  0.00  0.00    +0.000 A 
ATOM     21  C   UNL     1       2.527   6.998  18.917  0.00  0.00    +0.000 A 
ATOM     22  C   UNL     1       2.537   5.841  18.132  0.00  0.00    +0.000 A 
ATOM     23  C   UNL     1       2.025   4.657  18.653  0.00  0.00    +0.000 A 
ATOM     24 CL   UNL     1       1.994   3.247  17.666  0.00  0.00    +0.000 Cl
ATOM     25  C   UNL     1       1.529   4.623  19.948  0.00  0.00    +0.000 A 
ATOM     26  C   UNL     1       1.515   5.787  20.731  0.00  0.00    +0.000 A 
ENDBRANCH  17  20
ENDBRANCH   2  14
BRANCH   1  28
ATOM     27  N   UNL     1       0.338  12.041  18.438  0.00  0.00    +0.000 N 
ATOM     28  C   UNL     1       0.648  12.668  19.612  0.00  0.00    +0.000 C 
ATOM     29  O   UNL     1       1.482  13.565  19.641  0.00  0.00    +0.000 OA
ATOM     30  H   UNL     1       0.767  12.448  17.614  0.00  0.00    +0.000 HD
ATOM     31  H   UNL     1      -0.584  11.645  18.302  0.00  0.00    +0.000 HD
ENDBRANCH   1  28
TORSDOF 3
ENDMDL
MODEL 6
REMARK VINA RESULT:      -7.4      1.438      1.866
REMARK  Name = 
REMARK  3 active torsions:
REMARK  status: ('A' for Active; 'I' for Inactive)
REMARK    1  A    between atoms: C_2  and  C_4
REMARK    2  A    between atoms: C_5  and  N_6
REMARK    3  A    between atoms: N_9  and  C_10
REMARK                            x       y       z     vdW  Elec       q    Type
REMARK                         _______ _______ _______ _____ _____    ______ ____
ROOT
ATOM      1  C   UNL     1       5.474   4.955  16.718  0.00  0.00    +0.000 A 
ATOM      2  C   UNL     1       5.434   6.346  16.771  0.00  0.00    +0.000 A 
ATOM      3  S   UNL     1       3.907   6.933  17.283  0.00  0.00    +0.000 S 
ATOM      4  C   UNL     1       3.440   5.396  17.779  0.00  0.00    +0.000 A 
ATOM      5  C   UNL     1       4.217   4.401  17.220  0.00  0.00    +0.000 A 
ATOM      6  C   UNL     1       3.816   2.949  17.372  0.00  0.00    +0.000 C 
ATOM      7  C   UNL     1       2.469   2.783  18.149  0.00  0.00    +0.000 C 
ATOM      8  N   UNL     1       2.359   3.791  19.335  0.00  0.00    +0.000 N 
ATOM      9  C   UNL     1       3.530   3.595  20.317  0.00  0.00    +0.000 C 
ATOM     10  C   UNL     1       2.999   2.530  21.253  0.00  0.00    +0.000 C 
ATOM     11  C   UNL     1       1.632   3.090  21.568  0.00  0.00    +0.000 C 
ATOM     12  C   UNL     1       1.108   3.579  20.219  0.00  0.00    +0.000 C 
ATOM     13  C   UNL     1       2.302   5.196  18.707  0.00  0.00    +0.000 C 
ENDROOT
BRANCH   2  14
ATOM     14  N   UNL     1       6.367   7.335  16.442  0.00  0.00    +0.000 N 
ATOM     15  C   UNL     1       7.014   7.988  17.501  0.00  0.00    +0.000 C 
ATOM     16  O   UNL     1       6.943   7.568  18.655  0.00  0.00    +0.000 OA
ATOM     17  N   UNL     1       7.721   9.103  17.105  0.00  0.00    +0.000 N 
ATOM     18  H   UNL     1       6.933   7.192  15.614  0.00  0.00    +0.000 HD
ATOM     19  H   UNL     1       7.500   9.481  16.191  0.00  0.00    +0.000 HD
BRANCH  17  20
ATOM     20  C   UNL     1       8.435   9.957  17.992  0.00  0.00    +0.000 A 
ATOM     21  C   UNL     1       8.649  11.319  17.734  0.00  0.00    +0.000 A 
ATOM     22  C   UNL     1       9.438  12.105  18.580  0.00  0.00    +0.000 A 
ATOM     23  C   UNL     1      10.000  11.533  19.718  0.00  0.00    +0.000 A 
ATOM     24 CL   UNL     1      11.010  12.492  20.730  0.00  0.00    +0.000 Cl
ATOM     25  C   UNL     1       9.760  10.201  20.018  0.00  0.00    +0.000 A 
ATOM     26  C   UNL     1       8.973   9.413  19.165  0.00  0.00    +0.000 A 
ENDBRANCH  17  20
ENDBRANCH   2  14
BRANCH   1  28
ATOM     27  N   UNL     1       6.424   3.227  15.338  0.00  0.00    +0.000 N 
ATOM     28  C   UNL     1       6.626   4.136  16.339  0.00  0.00    +0.000 C 
ATOM     29  O   UNL     1       7.746   4.321  16.800  0.00  0.00    +0.000 OA
ATOM     30  H   UNL     1       7.272   2.820  14.959  0.00  0.00    +0.000 HD
ATOM     31  H   UNL     1       5.667   3.358  14.680  0.00  0.00    +0.000 HD
ENDBRANCH   1  28
TORSDOF 3
ENDMDL
MODEL 7
REMARK VINA RESULT:      -7.2      4.213      9.462
REMARK  Name = 
REMARK  3 active torsions:
REMARK  status: ('A' for Active; 'I' for Inactive)
REMARK    1  A    between atoms: C_2  and  C_4
REMARK    2  A    between atoms: C_5  and  N_6
REMARK    3  A    between atoms: N_9  and  C_10
REMARK                            x       y       z     vdW  Elec       q    Type
REMARK                         _______ _______ _______ _____ _____    ______ ____
ROOT
ATOM      1  C   UNL     1      10.308  12.530  19.101  0.00  0.00    +0.000 A 
ATOM      2  C   UNL     1       9.804  11.481  19.864  0.00  0.00    +0.000 A 
ATOM      3  S   UNL     1       9.008  12.031  21.279  0.00  0.00    +0.000 S 
ATOM      4  C   UNL     1       9.001  13.612  20.706  0.00  0.00    +0.000 A 
ATOM      5  C   UNL     1       9.914  13.809  19.689  0.00  0.00    +0.000 A 
ATOM      6  C   UNL     1      10.209  15.210  19.196  0.00  0.00    +0.000 C 
ATOM      7  C   UNL     1       9.422  16.300  19.995  0.00  0.00    +0.000 C 
ATOM      8  N   UNL     1       7.968  15.837  20.324  0.00  0.00    +0.000 N 
ATOM      9  C   UNL     1       7.201  15.517  19.025  0.00  0.00    +0.000 C 
ATOM     10  C   UNL     1       6.622  16.863  18.646  0.00  0.00    +0.000 C 
ATOM     11  C   UNL     1       6.033  17.297  19.967  0.00  0.00    +0.000 C 
ATOM     12  C   UNL     1       7.103  16.930  20.993  0.00  0.00    +0.000 C 
ATOM     13  C   UNL     1       8.100  14.638  21.281  0.00  0.00    +0.000 C 
ENDROOT
BRANCH   2  14
ATOM     14  N   UNL     1       9.869  10.090  19.727  0.00  0.00    +0.000 N 
ATOM     15  C   UNL     1       8.880   9.474  18.946  0.00  0.00    +0.000 C 
ATOM     16  O   UNL     1       8.124  10.130  18.230  0.00  0.00    +0.000 OA
ATOM     17  N   UNL     1       8.869   8.101  19.064  0.00  0.00    +0.000 N 
ATOM     18  H   UNL     1      10.787   9.664  19.674  0.00  0.00    +0.000 HD
ATOM     19  H   UNL     1       9.362   7.707  19.857  0.00  0.00    +0.000 HD
BRANCH  17  20
ATOM     20  C   UNL     1       7.942   7.246  18.403  0.00  0.00    +0.000 A 
ATOM     21  C   UNL     1       7.205   7.642  17.278  0.00  0.00    +0.000 A 
ATOM     22  C   UNL     1       6.233   6.811  16.713  0.00  0.00    +0.000 A 
ATOM     23  C   UNL     1       6.012   5.550  17.259  0.00  0.00    +0.000 A 
ATOM     24 CL   UNL     1       4.781   4.548  16.592  0.00  0.00    +0.000 Cl
ATOM     25  C   UNL     1       6.764   5.118  18.341  0.00  0.00    +0.000 A 
ATOM     26  C   UNL     1       7.734   5.957  18.909  0.00  0.00    +0.000 A 
ENDBRANCH  17  20
ENDBRANCH   2  14
BRANCH   1  28
ATOM     27  N   UNL     1      12.162  11.651  17.842  0.00  0.00    +0.000 N 
ATOM     28  C   UNL     1      11.025  12.410  17.831  0.00  0.00    +0.000 C 
ATOM     29  O   UNL     1      10.584  12.860  16.780  0.00  0.00    +0.000 OA
ATOM     30  H   UNL     1      12.525  11.418  16.924  0.00  0.00    +0.000 HD
ATOM     31  H   UNL     1      12.296  10.949  18.558  0.00  0.00    +0.000 HD
ENDBRANCH   1  28
TORSDOF 3
ENDMDL
MODEL 8
REMARK VINA RESULT:      -7.1      8.292     10.430
REMARK  Name = 
REMARK  3 active torsions:
REMARK  status: ('A' for Active; 'I' for Inactive)
REMARK    1  A    between atoms: C_2  and  C_4
REMARK    2  A    between atoms: C_5  and  N_6
REMARK    3  A    between atoms: N_9  and  C_10
REMARK                            x       y       z     vdW  Elec       q    Type
REMARK                         _______ _______ _______ _____ _____    ______ ____
ROOT
ATOM      1  C   UNL     1      -0.955  12.026  19.258  0.00  0.00    +0.000 A 
ATOM      2  C   UNL     1       0.337  11.609  19.562  0.00  0.00    +0.000 A 
ATOM      3  S   UNL     1       0.997  12.460  20.895  0.00  0.00    +0.000 S 
ATOM      4  C   UNL     1      -0.512  13.089  21.290  0.00  0.00    +0.000 A 
ATOM      5  C   UNL     1      -1.408  13.006  20.242  0.00  0.00    +0.000 A 
ATOM      6  C   UNL     1      -2.745  13.713  20.330  0.00  0.00    +0.000 C 
ATOM      7  C   UNL     1      -2.902  14.523  21.659  0.00  0.00    +0.000 C 
ATOM      8  N   UNL     1      -2.301  13.755  22.877  0.00  0.00    +0.000 N 
ATOM      9  C   UNL     1      -2.988  12.386  23.041  0.00  0.00    +0.000 C 
ATOM     10  C   UNL     1      -4.178  12.719  23.916  0.00  0.00    +0.000 C 
ATOM     11  C   UNL     1      -3.512  13.537  24.997  0.00  0.00    +0.000 C 
ATOM     12  C   UNL     1      -2.551  14.449  24.237  0.00  0.00    +0.000 C 
ATOM     13  C   UNL     1      -0.784  13.665  22.628  0.00  0.00    +0.000 C 
ENDROOT
BRANCH   2  14
ATOM     14  N   UNL     1       1.202  10.684  18.966  0.00  0.00    +0.000 N 
ATOM     15  C   UNL     1       1.058   9.338  19.336  0.00  0.00    +0.000 C 
ATOM     16  O   UNL     1       0.083   8.947  19.975  0.00  0.00    +0.000 OA
ATOM     17  N   UNL     1       2.094   8.540  18.901  0.00  0.00    +0.000 N 
ATOM     18  H   UNL     1       1.466  10.840  18.001  0.00  0.00    +0.000 HD
ATOM     19  H   UNL     1       2.942   9.012  18.610  0.00  0.00    +0.000 HD
BRANCH  17  20
ATOM     20  C   UNL     1       2.203   7.147  19.174  0.00  0.00    +0.000 A 
ATOM     21  C   UNL     1       1.987   6.598  20.446  0.00  0.00    +0.000 A 
ATOM     22  C   UNL     1       2.198   5.239  20.698  0.00  0.00    +0.000 A 
ATOM     23  C   UNL     1       2.600   4.405  19.659  0.00  0.00    +0.000 A 
ATOM     24 CL   UNL     1       2.905   2.742  19.984  0.00  0.00    +0.000 Cl
ATOM     25  C   UNL     1       2.771   4.917  18.382  0.00  0.00    +0.000 A 
ATOM     26  C   UNL     1       2.566   6.283  18.133  0.00  0.00    +0.000 A 
ENDBRANCH  17  20
ENDBRANCH   2  14
BRANCH   1  28
ATOM     27  N   UNL     1      -1.792  12.173  17.005  0.00  0.00    +0.000 N 
ATOM     28  C   UNL     1      -1.807  11.495  18.192  0.00  0.00    +0.000 C 
ATOM     29  O   UNL     1      -2.417  10.437  18.301  0.00  0.00    +0.000 OA
ATOM     30  H   UNL     1      -2.224  11.681  16.231  0.00  0.00    +0.000 HD
ATOM     31  H   UNL     1      -1.003  12.759  16.767  0.00  0.00    +0.000 HD
ENDBRANCH   1  28
TORSDOF 3
ENDMDL
MODEL 9
REMARK VINA RESULT:      -7.0      8.375     10.323
REMARK  Name = 
REMARK  3 active torsions:
REMARK  status: ('A' for Active; 'I' for Inactive)
REMARK    1  A    between atoms: C_2  and  C_4
REMARK    2  A    between atoms: C_5  and  N_6
REMARK    3  A    between atoms: N_9  and  C_10
REMARK                            x       y       z     vdW  Elec       q    Type
REMARK                         _______ _______ _______ _____ _____    ______ ____
ROOT
ATOM      1  C   UNL     1      -1.772  12.026  18.982  0.00  0.00    +0.000 A 
ATOM      2  C   UNL     1      -0.381  11.974  19.014  0.00  0.00    +0.000 A 
ATOM      3  S   UNL     1       0.284  13.080  20.142  0.00  0.00    +0.000 S 
ATOM      4  C   UNL     1      -1.227  13.344  20.831  0.00  0.00    +0.000 A 
ATOM      5  C   UNL     1      -2.260  12.946  20.006  0.00  0.00    +0.000 A 
ATOM      6  C   UNL     1      -3.690  13.302  20.357  0.00  0.00    +0.000 C 
ATOM      7  C   UNL     1      -3.786  14.162  21.659  0.00  0.00    +0.000 C 
ATOM      8  N   UNL     1      -2.773  13.683  22.744  0.00  0.00    +0.000 N 
ATOM      9  C   UNL     1      -3.028  12.205  23.101  0.00  0.00    +0.000 C 
ATOM     10  C   UNL     1      -4.064  12.307  24.200  0.00  0.00    +0.000 C 
ATOM     11  C   UNL     1      -3.434  13.359  25.082  0.00  0.00    +0.000 C 
ATOM     12  C   UNL     1      -2.920  14.411  24.101  0.00  0.00    +0.000 C 
ATOM     13  C   UNL     1      -1.367  13.951  22.176  0.00  0.00    +0.000 C 
ENDROOT
BRANCH   2  14
ATOM     14  N   UNL     1       0.559  11.245  18.278  0.00  0.00    +0.000 N 
ATOM     15  C   UNL     1       0.848   9.943  18.713  0.00  0.00    +0.000 C 
ATOM     16  O   UNL     1       0.155   9.378  19.559  0.00  0.00    +0.000 OA
ATOM     17  N   UNL     1       1.949   9.392  18.093  0.00  0.00    +0.000 N 
ATOM     18  H   UNL     1       0.577  11.377  17.273  0.00  0.00    +0.000 HD
ATOM     19  H   UNL     1       2.570  10.033  17.613  0.00  0.00    +0.000 HD
BRANCH  17  20
ATOM     20  C   UNL     1       2.469   8.099  18.382  0.00  0.00    +0.000 A 
ATOM     21  C   UNL     1       2.189   7.410  19.571  0.00  0.00    +0.000 A 
ATOM     22  C   UNL     1       2.795   6.184  19.863  0.00  0.00    +0.000 A 
ATOM     23  C   UNL     1       3.672   5.618  18.942  0.00  0.00    +0.000 A 
ATOM     24 CL   UNL     1       4.452   4.133  19.326  0.00  0.00    +0.000 Cl
ATOM     25  C   UNL     1       3.924   6.258  17.738  0.00  0.00    +0.000 A 
ATOM     26  C   UNL     1       3.320   7.491  17.450  0.00  0.00    +0.000 A 
ENDBRANCH  17  20
ENDBRANCH   2  14
BRANCH   1  28
ATOM     27  N   UNL     1      -3.492  11.877  17.305  0.00  0.00    +0.000 N 
ATOM     28  C   UNL     1      -2.649  11.205  18.145  0.00  0.00    +0.000 C 
ATOM     29  O   UNL     1      -2.564   9.984  18.101  0.00  0.00    +0.000 OA
ATOM     30  H   UNL     1      -3.938  11.299  16.602  0.00  0.00    +0.000 HD
ATOM     31  H   UNL     1      -3.278  12.825  17.023  0.00  0.00    +0.000 HD
ENDBRANCH   1  28
TORSDOF 3
ENDMDL
