MODEL 1
REMARK VINA RESULT:      -7.5      0.000      0.000
REMARK  Name = 
REMARK  5 active torsions:
REMARK  status: ('A' for Active; 'I' for Inactive)
REMARK    1  A    between atoms: C_1  and  C_2
REMARK    2  A    between atoms: N_11  and  C_12
REMARK    3  A    between atoms: C_12  and  C_13
REMARK    4  A    between atoms: C_16  and  C_17
REMARK    5  A    between atoms: N_19  and  O_20
REMARK                            x       y       z     vdW  Elec       q    Type
REMARK                         _______ _______ _______ _____ _____    ______ ____
ROOT
ATOM      1  C   UNL     1      -2.834  15.974  23.333  0.00  0.00    +0.000 C 
ATOM      2  C   UNL     1      -2.319  14.581  23.593  0.00  0.00    +0.000 C 
ATOM      3  O   UNL     1      -2.627  13.999  24.632  0.00  0.00    +0.000 OA
ATOM      4  N   UNL     1      -1.514  14.005  22.621  0.00  0.00    +0.000 N 
ATOM      5  C   UNL     1      -1.104  12.613  22.775  0.00  0.00    +0.000 C 
ATOM      6  C   UNL     1      -1.700  11.765  21.649  0.00  0.00    +0.000 C 
ATOM      7  C   UNL     1      -1.335  12.336  20.260  0.00  0.00    +0.000 C 
ATOM      8  C   UNL     1      -1.721  13.831  20.184  0.00  0.00    +0.000 C 
ATOM      9  C   UNL     1      -1.141  14.625  21.352  0.00  0.00    +0.000 C 
ATOM     10  C   UNL     1       0.182  12.119  19.935  0.00  0.00    +0.000 C 
ATOM     11  N   UNL     1       0.265  11.173  18.827  0.00  0.00    +0.000 N 
ATOM     12  C   UNL     1      -1.006  10.902  18.379  0.00  0.00    +0.000 A 
ATOM     13  C   UNL     1      -1.389  10.117  17.304  0.00  0.00    +0.000 A 
ATOM     14  C   UNL     1      -2.748   9.974  17.005  0.00  0.00    +0.000 A 
ATOM     15  C   UNL     1      -3.719  10.616  17.781  0.00  0.00    +0.000 A 
ATOM     16  C   UNL     1      -3.340  11.407  18.863  0.00  0.00    +0.000 A 
ATOM     17  C   UNL     1      -1.985  11.544  19.146  0.00  0.00    +0.000 A 
ENDROOT
BRANCH  11  18
ATOM     18  C   UNL     1       1.523  10.682  18.303  0.00  0.00    +0.000 C 
BRANCH  18  19
ATOM     19  C   UNL     1       1.747   9.242  18.713  0.00  0.00    +0.000 A 
ATOM     20  C   UNL     1       1.408   8.808  20.003  0.00  0.00    +0.000 A 
ATOM     21  C   UNL     1       1.690   7.503  20.412  0.00  0.00    +0.000 A 
ATOM     22  C   UNL     1       2.330   6.617  19.541  0.00  0.00    +0.000 A 
ATOM     23  C   UNL     1       2.629   7.024  18.235  0.00  0.00    +0.000 A 
ATOM     24  C   UNL     1       2.340   8.330  17.827  0.00  0.00    +0.000 A 
BRANCH  22  25
ATOM     25  C   UNL     1       2.686   5.264  20.045  0.00  0.00    +0.000 C 
ATOM     26  O   UNL     1       3.301   4.460  19.351  0.00  0.00    +0.000 OA
ATOM     27  N   UNL     1       2.220   4.938  21.302  0.00  0.00    +0.000 N 
ATOM     28  H   UNL     1       1.430   5.416  21.721  0.00  0.00    +0.000 HD
BRANCH  27  29
ATOM     29  O   UNL     1       2.371   3.574  21.655  0.00  0.00    +0.000 OA
ATOM     30  H   UNL     1       1.655   3.450  22.317  0.00  0.00    +0.000 HD
ENDBRANCH  27  29
ENDBRANCH  22  25
ENDBRANCH  18  19
ENDBRANCH  11  18
TORSDOF 4
ENDMDL
MODEL 2
REMARK VINA RESULT:      -7.5      4.212      7.371
REMARK  Name = 
REMARK  5 active torsions:
REMARK  status: ('A' for Active; 'I' for Inactive)
REMARK    1  A    between atoms: C_1  and  C_2
REMARK    2  A    between atoms: N_11  and  C_12
REMARK    3  A    between atoms: C_12  and  C_13
REMARK    4  A    between atoms: C_16  and  C_17
REMARK    5  A    between atoms: N_19  and  O_20
REMARK                            x       y       z     vdW  Elec       q    Type
REMARK                         _______ _______ _______ _____ _____    ______ ____
ROOT
ATOM      1  C   UNL     1      -0.947  10.386  18.626  0.00  0.00    +0.000 C 
ATOM      2  C   UNL     1      -0.022  10.114  19.785  0.00  0.00    +0.000 C 
ATOM      3  O   UNL     1      -0.245  10.627  20.881  0.00  0.00    +0.000 OA
ATOM      4  N   UNL     1       1.054   9.267  19.559  0.00  0.00    +0.000 N 
ATOM      5  C   UNL     1       1.895   8.875  20.685  0.00  0.00    +0.000 C 
ATOM      6  C   UNL     1       1.783   7.367  20.920  0.00  0.00    +0.000 C 
ATOM      7  C   UNL     1       2.108   6.571  19.636  0.00  0.00    +0.000 C 
ATOM      8  C   UNL     1       1.244   7.082  18.462  0.00  0.00    +0.000 C 
ATOM      9  C   UNL     1       1.354   8.596  18.296  0.00  0.00    +0.000 C 
ATOM     10  C   UNL     1       3.636   6.639  19.295  0.00  0.00    +0.000 C 
ATOM     11  N   UNL     1       4.187   5.298  19.464  0.00  0.00    +0.000 N 
ATOM     12  C   UNL     1       3.160   4.428  19.741  0.00  0.00    +0.000 A 
ATOM     13  C   UNL     1       3.217   3.054  19.903  0.00  0.00    +0.000 A 
ATOM     14  C   UNL     1       2.044   2.342  20.173  0.00  0.00    +0.000 A 
ATOM     15  C   UNL     1       0.817   3.006  20.281  0.00  0.00    +0.000 A 
ATOM     16  C   UNL     1       0.753   4.388  20.118  0.00  0.00    +0.000 A 
ATOM     17  C   UNL     1       1.926   5.082  19.845  0.00  0.00    +0.000 A 
ENDROOT
BRANCH  11  18
ATOM     18  C   UNL     1       5.595   4.999  19.302  0.00  0.00    +0.000 C 
BRANCH  18  19
ATOM     19  C   UNL     1       5.968   4.956  17.835  0.00  0.00    +0.000 A 
ATOM     20  C   UNL     1       4.996   4.680  16.862  0.00  0.00    +0.000 A 
ATOM     21  C   UNL     1       5.351   4.556  15.517  0.00  0.00    +0.000 A 
ATOM     22  C   UNL     1       6.686   4.690  15.128  0.00  0.00    +0.000 A 
ATOM     23  C   UNL     1       7.657   5.013  16.084  0.00  0.00    +0.000 A 
ATOM     24  C   UNL     1       7.298   5.142  17.429  0.00  0.00    +0.000 A 
BRANCH  22  25
ATOM     25  C   UNL     1       7.031   4.469  13.699  0.00  0.00    +0.000 C 
ATOM     26  O   UNL     1       7.729   5.263  13.074  0.00  0.00    +0.000 OA
ATOM     27  N   UNL     1       6.462   3.366  13.097  0.00  0.00    +0.000 N 
ATOM     28  H   UNL     1       5.625   2.927  13.464  0.00  0.00    +0.000 HD
BRANCH  27  29
ATOM     29  O   UNL     1       6.618   3.312  11.690  0.00  0.00    +0.000 OA
ATOM     30  H   UNL     1       7.058   4.170  11.496  0.00  0.00    +0.000 HD
ENDBRANCH  27  29
ENDBRANCH  22  25
ENDBRANCH  18  19
ENDBRANCH  11  18
TORSDOF 4
ENDMDL
MODEL 3
REMARK VINA RESULT:      -7.4      0.735      1.171
REMARK  Name = 
REMARK  5 active torsions:
REMARK  status: ('A' for Active; 'I' for Inactive)
REMARK    1  A    between atoms: C_1  and  C_2
REMARK    2  A    between atoms: N_11  and  C_12
REMARK    3  A    between atoms: C_12  and  C_13
REMARK    4  A    between atoms: C_16  and  C_17
REMARK    5  A    between atoms: N_19  and  O_20
REMARK                            x       y       z     vdW  Elec       q    Type
REMARK                         _______ _______ _______ _____ _____    ______ ____
ROOT
ATOM      1  C   UNL     1      -2.366  15.822  23.337  0.00  0.00    +0.000 C 
ATOM      2  C   UNL     1      -1.987  14.386  23.599  0.00  0.00    +0.000 C 
ATOM      3  O   UNL     1      -2.391  13.823  24.616  0.00  0.00    +0.000 OA
ATOM      4  N   UNL     1      -1.195  13.751  22.653  0.00  0.00    +0.000 N 
ATOM      5  C   UNL     1      -0.917  12.326  22.805  0.00  0.00    +0.000 C 
ATOM      6  C   UNL     1      -1.537  11.547  21.643  0.00  0.00    +0.000 C 
ATOM      7  C   UNL     1      -1.063  12.098  20.279  0.00  0.00    +0.000 C 
ATOM      8  C   UNL     1      -1.312  13.622  20.208  0.00  0.00    +0.000 C 
ATOM      9  C   UNL     1      -0.714  14.349  21.410  0.00  0.00    +0.000 C 
ATOM     10  C   UNL     1       0.441  11.750  20.015  0.00  0.00    +0.000 C 
ATOM     11  N   UNL     1       0.489  10.812  18.897  0.00  0.00    +0.000 N 
ATOM     12  C   UNL     1      -0.781  10.659  18.393  0.00  0.00    +0.000 A 
ATOM     13  C   UNL     1      -1.185   9.923  17.292  0.00  0.00    +0.000 A 
ATOM     14  C   UNL     1      -2.537   9.904  16.933  0.00  0.00    +0.000 A 
ATOM     15  C   UNL     1      -3.481  10.621  17.677  0.00  0.00    +0.000 A 
ATOM     16  C   UNL     1      -3.080  11.364  18.786  0.00  0.00    +0.000 A 
ATOM     17  C   UNL     1      -1.732  11.378  19.127  0.00  0.00    +0.000 A 
ENDROOT
BRANCH  11  18
ATOM     18  C   UNL     1       1.720  10.216  18.420  0.00  0.00    +0.000 C 
BRANCH  18  19
ATOM     19  C   UNL     1       1.872   8.806  18.949  0.00  0.00    +0.000 A 
ATOM     20  C   UNL     1       2.358   7.784  18.122  0.00  0.00    +0.000 A 
ATOM     21  C   UNL     1       2.420   6.466  18.580  0.00  0.00    +0.000 A 
ATOM     22  C   UNL     1       1.982   6.149  19.868  0.00  0.00    +0.000 A 
ATOM     23  C   UNL     1       1.540   7.169  20.720  0.00  0.00    +0.000 A 
ATOM     24  C   UNL     1       1.484   8.488  20.260  0.00  0.00    +0.000 A 
BRANCH  22  25
ATOM     25  C   UNL     1       1.988   4.722  20.285  0.00  0.00    +0.000 C 
ATOM     26  O   UNL     1       3.035   4.117  20.494  0.00  0.00    +0.000 OA
ATOM     27  N   UNL     1       0.759   4.098  20.349  0.00  0.00    +0.000 N 
ATOM     28  H   UNL     1      -0.047   4.449  19.843  0.00  0.00    +0.000 HD
BRANCH  27  29
ATOM     29  O   UNL     1       0.815   2.693  20.517  0.00  0.00    +0.000 OA
ATOM     30  H   UNL     1       1.555   2.441  19.921  0.00  0.00    +0.000 HD
ENDBRANCH  27  29
ENDBRANCH  22  25
ENDBRANCH  18  19
ENDBRANCH  11  18
TORSDOF 4
ENDMDL
MODEL 4
REMARK VINA RESULT:      -7.2      4.622      7.720
REMARK  Name = 
REMARK  5 active torsions:
REMARK  status: ('A' for Active; 'I' for Inactive)
REMARK    1  A    between atoms: C_1  and  C_2
REMARK    2  A    between atoms: N_11  and  C_12
REMARK    3  A    between atoms: C_12  and  C_13
REMARK    4  A    between atoms: C_16  and  C_17
REMARK    5  A    between atoms: N_19  and  O_20
REMARK                            x       y       z     vdW  Elec       q    Type
REMARK                         _______ _______ _______ _____ _____    ______ ____
ROOT
ATOM      1  C   UNL     1      -0.481  10.109  18.565  0.00  0.00    +0.000 C 
ATOM      2  C   UNL     1       0.432   9.542  19.622  0.00  0.00    +0.000 C 
ATOM      3  O   UNL     1       0.189   9.741  20.812  0.00  0.00    +0.000 OA
ATOM      4  N   UNL     1       1.521   8.796  19.193  0.00  0.00    +0.000 N 
ATOM      5  C   UNL     1       2.352   8.122  20.186  0.00  0.00    +0.000 C 
ATOM      6  C   UNL     1       2.254   6.605  20.004  0.00  0.00    +0.000 C 
ATOM      7  C   UNL     1       2.606   6.186  18.559  0.00  0.00    +0.000 C 
ATOM      8  C   UNL     1       1.751   6.989  17.553  0.00  0.00    +0.000 C 
ATOM      9  C   UNL     1       1.845   8.492  17.801  0.00  0.00    +0.000 C 
ATOM     10  C   UNL     1       4.137   6.355  18.273  0.00  0.00    +0.000 C 
ATOM     11  N   UNL     1       4.701   5.023  18.084  0.00  0.00    +0.000 N 
ATOM     12  C   UNL     1       3.680   4.103  18.101  0.00  0.00    +0.000 A 
ATOM     13  C   UNL     1       3.751   2.736  17.888  0.00  0.00    +0.000 A 
ATOM     14  C   UNL     1       2.583   1.969  17.938  0.00  0.00    +0.000 A 
ATOM     15  C   UNL     1       1.347   2.570  18.201  0.00  0.00    +0.000 A 
ATOM     16  C   UNL     1       1.269   3.944  18.415  0.00  0.00    +0.000 A 
ATOM     17  C   UNL     1       2.438   4.695  18.358  0.00  0.00    +0.000 A 
ENDROOT
BRANCH  11  18
ATOM     18  C   UNL     1       6.115   4.789  17.869  0.00  0.00    +0.000 C 
BRANCH  18  19
ATOM     19  C   UNL     1       6.892   6.085  17.964  0.00  0.00    +0.000 A 
ATOM     20  C   UNL     1       7.874   6.255  18.950  0.00  0.00    +0.000 A 
ATOM     21  C   UNL     1       8.533   7.477  19.095  0.00  0.00    +0.000 A 
ATOM     22  C   UNL     1       8.208   8.553  18.263  0.00  0.00    +0.000 A 
ATOM     23  C   UNL     1       7.265   8.380  17.244  0.00  0.00    +0.000 A 
ATOM     24  C   UNL     1       6.610   7.153  17.098  0.00  0.00    +0.000 A 
BRANCH  22  25
ATOM     25  C   UNL     1       8.875   9.859  18.505  0.00  0.00    +0.000 C 
ATOM     26  O   UNL     1       8.917  10.731  17.641  0.00  0.00    +0.000 OA
ATOM     27  N   UNL     1       9.509  10.007  19.722  0.00  0.00    +0.000 N 
ATOM     28  H   UNL     1       9.799   9.208  20.275  0.00  0.00    +0.000 HD
BRANCH  27  29
ATOM     29  O   UNL     1      10.326  11.158  19.830  0.00  0.00    +0.000 OA
ATOM     30  H   UNL     1      10.991  10.880  20.498  0.00  0.00    +0.000 HD
ENDBRANCH  27  29
ENDBRANCH  22  25
ENDBRANCH  18  19
ENDBRANCH  11  18
TORSDOF 4
ENDMDL
MODEL 5
REMARK VINA RESULT:      -7.1      4.370      7.587
REMARK  Name = 
REMARK  5 active torsions:
REMARK  status: ('A' for Active; 'I' for Inactive)
REMARK    1  A    between atoms: C_1  and  C_2
REMARK    2  A    between atoms: N_11  and  C_12
REMARK    3  A    between atoms: C_12  and  C_13
REMARK    4  A    between atoms: C_16  and  C_17
REMARK    5  A    between atoms: N_19  and  O_20
REMARK                            x       y       z     vdW  Elec       q    Type
REMARK                         _______ _______ _______ _____ _____    ______ ____
ROOT
ATOM      1  C   UNL     1      -0.682  10.263  19.036  0.00  0.00    +0.000 C 
ATOM      2  C   UNL     1       0.126   9.748  20.200  0.00  0.00    +0.000 C 
ATOM      3  O   UNL     1      -0.165  10.089  21.346  0.00  0.00    +0.000 OA
ATOM      4  N   UNL     1       1.175   8.885  19.918  0.00  0.00    +0.000 N 
ATOM      5  C   UNL     1       1.897   8.263  21.023  0.00  0.00    +0.000 C 
ATOM      6  C   UNL     1       1.693   6.747  20.992  0.00  0.00    +0.000 C 
ATOM      7  C   UNL     1       2.088   6.153  19.622  0.00  0.00    +0.000 C 
ATOM      8  C   UNL     1       1.353   6.902  18.487  0.00  0.00    +0.000 C 
ATOM      9  C   UNL     1       1.550   8.412  18.587  0.00  0.00    +0.000 C 
ATOM     10  C   UNL     1       3.641   6.181  19.415  0.00  0.00    +0.000 C 
ATOM     11  N   UNL     1       4.111   4.800  19.398  0.00  0.00    +0.000 N 
ATOM     12  C   UNL     1       3.022   3.961  19.445  0.00  0.00    +0.000 A 
ATOM     13  C   UNL     1       2.999   2.578  19.378  0.00  0.00    +0.000 A 
ATOM     14  C   UNL     1       1.774   1.905  19.433  0.00  0.00    +0.000 A 
ATOM     15  C   UNL     1       0.576   2.617  19.557  0.00  0.00    +0.000 A 
ATOM     16  C   UNL     1       0.593   4.009  19.625  0.00  0.00    +0.000 A 
ATOM     17  C   UNL     1       1.817   4.664  19.563  0.00  0.00    +0.000 A 
ENDROOT
BRANCH  11  18
ATOM     18  C   UNL     1       5.511   4.444  19.296  0.00  0.00    +0.000 C 
BRANCH  18  19
ATOM     19  C   UNL     1       5.960   4.445  17.850  0.00  0.00    +0.000 A 
ATOM     20  C   UNL     1       7.282   4.770  17.515  0.00  0.00    +0.000 A 
ATOM     21  C   UNL     1       7.678   4.854  16.179  0.00  0.00    +0.000 A 
ATOM     22  C   UNL     1       6.751   4.630  15.157  0.00  0.00    +0.000 A 
ATOM     23  C   UNL     1       5.441   4.257  15.479  0.00  0.00    +0.000 A 
ATOM     24  C   UNL     1       5.049   4.168  16.819  0.00  0.00    +0.000 A 
BRANCH  22  25
ATOM     25  C   UNL     1       7.195   4.811  13.749  0.00  0.00    +0.000 C 
ATOM     26  O   UNL     1       6.857   4.032  12.862  0.00  0.00    +0.000 OA
ATOM     27  N   UNL     1       8.066   5.854  13.512  0.00  0.00    +0.000 N 
ATOM     28  H   UNL     1       8.630   6.260  14.251  0.00  0.00    +0.000 HD
BRANCH  27  29
ATOM     29  O   UNL     1       8.649   5.857  12.221  0.00  0.00    +0.000 OA
ATOM     30  H   UNL     1       9.531   5.457  12.390  0.00  0.00    +0.000 HD
ENDBRANCH  27  29
ENDBRANCH  22  25
ENDBRANCH  18  19
ENDBRANCH  11  18
TORSDOF 4
ENDMDL
MODEL 6
REMARK VINA RESULT:      -7.0      3.510      9.315
REMARK  Name = 
REMARK  5 active torsions:
REMARK  status: ('A' for Active; 'I' for Inactive)
REMARK    1  A    between atoms: C_1  and  C_2
REMARK    2  A    between atoms: N_11  and  C_12
REMARK    3  A    between atoms: C_12  and  C_13
REMARK    4  A    between atoms: C_16  and  C_17
REMARK    5  A    between atoms: N_19  and  O_20
REMARK                            x       y       z     vdW  Elec       q    Type
REMARK                         _______ _______ _______ _____ _____    ______ ____
ROOT
ATOM      1  C   UNL     1       7.842   4.487  15.738  0.00  0.00    +0.000 C 
ATOM      2  C   UNL     1       6.650   5.397  15.587  0.00  0.00    +0.000 C 
ATOM      3  O   UNL     1       6.359   5.846  14.479  0.00  0.00    +0.000 OA
ATOM      4  N   UNL     1       5.914   5.681  16.729  0.00  0.00    +0.000 N 
ATOM      5  C   UNL     1       4.680   6.449  16.602  0.00  0.00    +0.000 C 
ATOM      6  C   UNL     1       3.484   5.587  17.011  0.00  0.00    +0.000 C 
ATOM      7  C   UNL     1       3.670   5.001  18.429  0.00  0.00    +0.000 C 
ATOM      8  C   UNL     1       5.027   4.267  18.525  0.00  0.00    +0.000 C 
ATOM      9  C   UNL     1       6.182   5.152  18.064  0.00  0.00    +0.000 C 
ATOM     10  C   UNL     1       3.540   6.112  19.526  0.00  0.00    +0.000 C 
ATOM     11  N   UNL     1       2.333   5.834  20.296  0.00  0.00    +0.000 N 
ATOM     12  C   UNL     1       1.803   4.638  19.874  0.00  0.00    +0.000 A 
ATOM     13  C   UNL     1       0.705   3.959  20.376  0.00  0.00    +0.000 A 
ATOM     14  C   UNL     1       0.330   2.737  19.806  0.00  0.00    +0.000 A 
ATOM     15  C   UNL     1       1.054   2.199  18.736  0.00  0.00    +0.000 A 
ATOM     16  C   UNL     1       2.159   2.877  18.228  0.00  0.00    +0.000 A 
ATOM     17  C   UNL     1       2.523   4.088  18.807  0.00  0.00    +0.000 A 
ENDROOT
BRANCH  11  18
ATOM     18  C   UNL     1       1.856   6.700  21.355  0.00  0.00    +0.000 C 
BRANCH  18  19
ATOM     19  C   UNL     1       1.220   7.947  20.780  0.00  0.00    +0.000 A 
ATOM     20  C   UNL     1       0.203   8.614  21.478  0.00  0.00    +0.000 A 
ATOM     21  C   UNL     1      -0.444   9.715  20.914  0.00  0.00    +0.000 A 
ATOM     22  C   UNL     1      -0.094  10.156  19.635  0.00  0.00    +0.000 A 
ATOM     23  C   UNL     1       0.953   9.529  18.949  0.00  0.00    +0.000 A 
ATOM     24  C   UNL     1       1.603   8.430  19.520  0.00  0.00    +0.000 A 
BRANCH  22  25
ATOM     25  C   UNL     1      -0.864  11.279  19.039  0.00  0.00    +0.000 C 
ATOM     26  O   UNL     1      -2.011  11.534  19.396  0.00  0.00    +0.000 OA
ATOM     27  N   UNL     1      -0.249  11.966  18.013  0.00  0.00    +0.000 N 
ATOM     28  H   UNL     1       0.505  11.558  17.471  0.00  0.00    +0.000 HD
BRANCH  27  29
ATOM     29  O   UNL     1      -1.090  12.867  17.314  0.00  0.00    +0.000 OA
ATOM     30  H   UNL     1      -0.850  13.731  17.717  0.00  0.00    +0.000 HD
ENDBRANCH  27  29
ENDBRANCH  22  25
ENDBRANCH  18  19
ENDBRANCH  11  18
TORSDOF 4
ENDMDL
MODEL 7
REMARK VINA RESULT:      -7.0      2.935      3.772
REMARK  Name = 
REMARK  5 active torsions:
REMARK  status: ('A' for Active; 'I' for Inactive)
REMARK    1  A    between atoms: C_1  and  C_2
REMARK    2  A    between atoms: N_11  and  C_12
REMARK    3  A    between atoms: C_12  and  C_13
REMARK    4  A    between atoms: C_16  and  C_17
REMARK    5  A    between atoms: N_19  and  O_20
REMARK                            x       y       z     vdW  Elec       q    Type
REMARK                         _______ _______ _______ _____ _____    ______ ____
ROOT
ATOM      1  C   UNL     1       3.314  16.734  18.884  0.00  0.00    +0.000 C 
ATOM      2  C   UNL     1       2.563  16.149  20.053  0.00  0.00    +0.000 C 
ATOM      3  O   UNL     1       2.084  16.894  20.908  0.00  0.00    +0.000 OA
ATOM      4  N   UNL     1       2.434  14.768  20.104  0.00  0.00    +0.000 N 
ATOM      5  C   UNL     1       1.605  14.173  21.146  0.00  0.00    +0.000 C 
ATOM      6  C   UNL     1       0.405  13.463  20.516  0.00  0.00    +0.000 C 
ATOM      7  C   UNL     1       0.853  12.430  19.458  0.00  0.00    +0.000 C 
ATOM      8  C   UNL     1       1.790  13.100  18.427  0.00  0.00    +0.000 C 
ATOM      9  C   UNL     1       2.945  13.832  19.105  0.00  0.00    +0.000 C 
ATOM     10  C   UNL     1       1.532  11.186  20.127  0.00  0.00    +0.000 C 
ATOM     11  N   UNL     1       0.661  10.036  19.908  0.00  0.00    +0.000 N 
ATOM     12  C   UNL     1      -0.379  10.416  19.094  0.00  0.00    +0.000 A 
ATOM     13  C   UNL     1      -1.395   9.631  18.575  0.00  0.00    +0.000 A 
ATOM     14  C   UNL     1      -2.363  10.213  17.749  0.00  0.00    +0.000 A 
ATOM     15  C   UNL     1      -2.312  11.578  17.446  0.00  0.00    +0.000 A 
ATOM     16  C   UNL     1      -1.292  12.372  17.965  0.00  0.00    +0.000 A 
ATOM     17  C   UNL     1      -0.335  11.780  18.780  0.00  0.00    +0.000 A 
ENDROOT
BRANCH  11  18
ATOM     18  C   UNL     1       0.939   8.723  20.452  0.00  0.00    +0.000 C 
BRANCH  18  19
ATOM     19  C   UNL     1       1.833   7.935  19.519  0.00  0.00    +0.000 A 
ATOM     20  C   UNL     1       2.339   6.685  19.904  0.00  0.00    +0.000 A 
ATOM     21  C   UNL     1       3.231   5.993  19.082  0.00  0.00    +0.000 A 
ATOM     22  C   UNL     1       3.642   6.550  17.867  0.00  0.00    +0.000 A 
ATOM     23  C   UNL     1       3.106   7.774  17.449  0.00  0.00    +0.000 A 
ATOM     24  C   UNL     1       2.209   8.461  18.273  0.00  0.00    +0.000 A 
BRANCH  22  25
ATOM     25  C   UNL     1       4.655   5.819  17.062  0.00  0.00    +0.000 C 
ATOM     26  O   UNL     1       5.022   4.686  17.363  0.00  0.00    +0.000 OA
ATOM     27  N   UNL     1       5.215   6.512  16.008  0.00  0.00    +0.000 N 
ATOM     28  H   UNL     1       5.208   7.525  15.969  0.00  0.00    +0.000 HD
BRANCH  27  29
ATOM     29  O   UNL     1       6.334   5.881  15.412  0.00  0.00    +0.000 OA
ATOM     30  H   UNL     1       6.807   6.640  15.002  0.00  0.00    +0.000 HD
ENDBRANCH  27  29
ENDBRANCH  22  25
ENDBRANCH  18  19
ENDBRANCH  11  18
TORSDOF 4
ENDMDL
MODEL 8
REMARK VINA RESULT:      -6.9      1.170      1.226
REMARK  Name = 
REMARK  5 active torsions:
REMARK  status: ('A' for Active; 'I' for Inactive)
REMARK    1  A    between atoms: C_1  and  C_2
REMARK    2  A    between atoms: N_11  and  C_12
REMARK    3  A    between atoms: C_12  and  C_13
REMARK    4  A    between atoms: C_16  and  C_17
REMARK    5  A    between atoms: N_19  and  O_20
REMARK                            x       y       z     vdW  Elec       q    Type
REMARK                         _______ _______ _______ _____ _____    ______ ____
ROOT
ATOM      1  C   UNL     1      -1.438  16.856  22.005  0.00  0.00    +0.000 C 
ATOM      2  C   UNL     1      -1.120  15.488  22.552  0.00  0.00    +0.000 C 
ATOM      3  O   UNL     1      -1.469  15.187  23.693  0.00  0.00    +0.000 OA
ATOM      4  N   UNL     1      -0.444  14.607  21.718  0.00  0.00    +0.000 N 
ATOM      5  C   UNL     1      -0.233  13.233  22.162  0.00  0.00    +0.000 C 
ATOM      6  C   UNL     1      -0.988  12.268  21.245  0.00  0.00    +0.000 C 
ATOM      7  C   UNL     1      -0.598  12.476  19.764  0.00  0.00    +0.000 C 
ATOM      8  C   UNL     1      -0.767  13.962  19.375  0.00  0.00    +0.000 C 
ATOM      9  C   UNL     1      -0.034  14.887  20.344  0.00  0.00    +0.000 C 
ATOM     10  C   UNL     1       0.858  11.971  19.482  0.00  0.00    +0.000 C 
ATOM     11  N   UNL     1       0.762  10.814  18.599  0.00  0.00    +0.000 N 
ATOM     12  C   UNL     1      -0.551  10.647  18.228  0.00  0.00    +0.000 A 
ATOM     13  C   UNL     1      -1.084   9.721  17.347  0.00  0.00    +0.000 A 
ATOM     14  C   UNL     1      -2.460   9.723  17.094  0.00  0.00    +0.000 A 
ATOM     15  C   UNL     1      -3.298  10.649  17.723  0.00  0.00    +0.000 A 
ATOM     16  C   UNL     1      -2.767  11.584  18.610  0.00  0.00    +0.000 A 
ATOM     17  C   UNL     1      -1.398  11.573  18.848  0.00  0.00    +0.000 A 
ENDROOT
BRANCH  11  18
ATOM     18  C   UNL     1       1.916  10.042  18.183  0.00  0.00    +0.000 C 
BRANCH  18  19
ATOM     19  C   UNL     1       1.851   8.638  18.745  0.00  0.00    +0.000 A 
ATOM     20  C   UNL     1       1.473   8.421  20.078  0.00  0.00    +0.000 A 
ATOM     21  C   UNL     1       1.493   7.137  20.624  0.00  0.00    +0.000 A 
ATOM     22  C   UNL     1       1.907   6.050  19.848  0.00  0.00    +0.000 A 
ATOM     23  C   UNL     1       2.239   6.247  18.502  0.00  0.00    +0.000 A 
ATOM     24  C   UNL     1       2.213   7.535  17.957  0.00  0.00    +0.000 A 
BRANCH  22  25
ATOM     25  C   UNL     1       1.992   4.714  20.492  0.00  0.00    +0.000 C 
ATOM     26  O   UNL     1       2.496   4.565  21.602  0.00  0.00    +0.000 OA
ATOM     27  N   UNL     1       1.546   3.644  19.744  0.00  0.00    +0.000 N 
ATOM     28  H   UNL     1       1.479   3.688  18.733  0.00  0.00    +0.000 HD
BRANCH  27  29
ATOM     29  O   UNL     1       1.855   2.372  20.284  0.00  0.00    +0.000 OA
ATOM     30  H   UNL     1       2.640   2.567  20.842  0.00  0.00    +0.000 HD
ENDBRANCH  27  29
ENDBRANCH  22  25
ENDBRANCH  18  19
ENDBRANCH  11  18
TORSDOF 4
ENDMDL
MODEL 9
REMARK VINA RESULT:      -6.9      2.735      4.209
REMARK  Name = 
REMARK  5 active torsions:
REMARK  status: ('A' for Active; 'I' for Inactive)
REMARK    1  A    between atoms: C_1  and  C_2
REMARK    2  A    between atoms: N_11  and  C_12
REMARK    3  A    between atoms: C_12  and  C_13
REMARK    4  A    between atoms: C_16  and  C_17
REMARK    5  A    between atoms: N_19  and  O_20
REMARK                            x       y       z     vdW  Elec       q    Type
REMARK                         _______ _______ _______ _____ _____    ______ ____
ROOT
ATOM      1  C   UNL     1      -6.497  13.413  18.544  0.00  0.00    +0.000 C 
ATOM      2  C   UNL     1      -5.564  12.426  17.889  0.00  0.00    +0.000 C 
ATOM      3  O   UNL     1      -5.764  12.072  16.728  0.00  0.00    +0.000 OA
ATOM      4  N   UNL     1      -4.492  11.964  18.640  0.00  0.00    +0.000 N 
ATOM      5  C   UNL     1      -3.495  11.112  18.000  0.00  0.00    +0.000 C 
ATOM      6  C   UNL     1      -2.140  11.823  17.974  0.00  0.00    +0.000 C 
ATOM      7  C   UNL     1      -1.711  12.272  19.389  0.00  0.00    +0.000 C 
ATOM      8  C   UNL     1      -2.837  13.103  20.045  0.00  0.00    +0.000 C 
ATOM      9  C   UNL     1      -4.176  12.371  20.007  0.00  0.00    +0.000 C 
ATOM     10  C   UNL     1      -1.312  11.046  20.279  0.00  0.00    +0.000 C 
ATOM     11  N   UNL     1       0.120  11.139  20.543  0.00  0.00    +0.000 N 
ATOM     12  C   UNL     1       0.590  12.324  20.027  0.00  0.00    +0.000 A 
ATOM     13  C   UNL     1       1.867  12.852  20.112  0.00  0.00    +0.000 A 
ATOM     14  C   UNL     1       2.142  14.090  19.523  0.00  0.00    +0.000 A 
ATOM     15  C   UNL     1       1.139  14.796  18.849  0.00  0.00    +0.000 A 
ATOM     16  C   UNL     1      -0.148  14.270  18.761  0.00  0.00    +0.000 A 
ATOM     17  C   UNL     1      -0.408  13.041  19.356  0.00  0.00    +0.000 A 
ENDROOT
BRANCH  11  18
ATOM     18  C   UNL     1       0.853  10.130  21.280  0.00  0.00    +0.000 C 
BRANCH  18  19
ATOM     19  C   UNL     1       1.324   9.028  20.355  0.00  0.00    +0.000 A 
ATOM     20  C   UNL     1       1.617   7.753  20.859  0.00  0.00    +0.000 A 
ATOM     21  C   UNL     1       2.132   6.759  20.025  0.00  0.00    +0.000 A 
ATOM     22  C   UNL     1       2.375   7.031  18.675  0.00  0.00    +0.000 A 
ATOM     23  C   UNL     1       2.041   8.285  18.151  0.00  0.00    +0.000 A 
ATOM     24  C   UNL     1       1.521   9.277  18.988  0.00  0.00    +0.000 A 
BRANCH  22  25
ATOM     25  C   UNL     1       3.000   5.971  17.842  0.00  0.00    +0.000 C 
ATOM     26  O   UNL     1       2.464   4.878  17.681  0.00  0.00    +0.000 OA
ATOM     27  N   UNL     1       4.249   6.254  17.328  0.00  0.00    +0.000 N 
ATOM     28  H   UNL     1       4.849   6.962  17.736  0.00  0.00    +0.000 HD
BRANCH  27  29
ATOM     29  O   UNL     1       4.914   5.148  16.742  0.00  0.00    +0.000 OA
ATOM     30  H   UNL     1       4.312   4.911  16.002  0.00  0.00    +0.000 HD
ENDBRANCH  27  29
ENDBRANCH  22  25
ENDBRANCH  18  19
ENDBRANCH  11  18
TORSDOF 4
ENDMDL
