MODEL 1
REMARK VINA RESULT:      -9.0      0.000      0.000
REMARK  Name = 
REMARK  8 active torsions:
REMARK  status: ('A' for Active; 'I' for Inactive)
REMARK    1  A    between atoms: C_1  and  C_2
REMARK    2  A    between atoms: C_7  and  S_8
REMARK    3  A    between atoms: S_8  and  N_11
REMARK    4  A    between atoms: N_11  and  C_12
REMARK    5  A    between atoms: N_22  and  N_23
REMARK    6  A    between atoms: C_24  and  C_26
REMARK    7  A    between atoms: C_26  and  N_27
REMARK    8  A    between atoms: N_27  and  C_28
REMARK                            x       y       z     vdW  Elec       q    Type
REMARK                         _______ _______ _______ _____ _____    ______ ____
ROOT
ATOM      1  C   UNL     1       3.987   3.168  19.636  0.00  0.00    +0.000 C 
ATOM      2  C   UNL     1       3.535   4.598  19.472  0.00  0.00    +0.000 A 
ATOM      3  N   UNL     1       2.609   5.024  20.275  0.00  0.00    +0.000 NA
ATOM      4  C   UNL     1       2.175   6.348  20.144  0.00  0.00    +0.000 A 
ATOM      5  C   UNL     1       1.283   6.852  21.091  0.00  0.00    +0.000 A 
ATOM      6  C   UNL     1       0.839   8.173  21.015  0.00  0.00    +0.000 A 
ATOM      7  C   UNL     1       1.299   9.000  19.984  0.00  0.00    +0.000 A 
ATOM      8  C   UNL     1       2.164   8.506  19.005  0.00  0.00    +0.000 A 
ATOM      9  C   UNL     1       2.595   7.177  19.099  0.00  0.00    +0.000 A 
ATOM     10  C   UNL     1       3.502   6.590  18.093  0.00  0.00    +0.000 A 
ATOM     11  O   UNL     1       3.648   7.143  17.007  0.00  0.00    +0.000 OA
ATOM     12  N   UNL     1       4.077   5.367  18.463  0.00  0.00    +0.000 N 
ENDROOT
BRANCH  12  13
ATOM     13  N   UNL     1       5.109   4.857  17.636  0.00  0.00    +0.000 N 
ATOM     14  C   UNL     1       6.431   5.194  17.914  0.00  0.00    +0.000 C 
ATOM     15  O   UNL     1       6.779   5.836  18.905  0.00  0.00    +0.000 OA
ATOM     16  H   UNL     1       4.858   4.221  16.890  0.00  0.00    +0.000 HD
BRANCH  14  17
ATOM     17  C   UNL     1       7.450   4.592  16.935  0.00  0.00    +0.000 C 
BRANCH  17  18
ATOM     18  N   UNL     1       7.401   5.355  15.691  0.00  0.00    +0.000 N 
ATOM     19  H   UNL     1       8.075   6.110  15.632  0.00  0.00    +0.000 HD
BRANCH  18  20
ATOM     20  C   UNL     1       7.088   4.778  14.468  0.00  0.00    +0.000 A 
ATOM     21  C   UNL     1       6.028   3.887  14.272  0.00  0.00    +0.000 A 
ATOM     22  C   UNL     1       5.731   3.391  12.996  0.00  0.00    +0.000 A 
ATOM     23  C   UNL     1       6.484   3.789  11.894  0.00  0.00    +0.000 A 
ATOM     24  C   UNL     1       7.517   4.701  12.061  0.00  0.00    +0.000 A 
ATOM     25  C   UNL     1       7.801   5.199  13.338  0.00  0.00    +0.000 A 
ENDBRANCH  18  20
ENDBRANCH  17  18
ENDBRANCH  14  17
ENDBRANCH  12  13
BRANCH   7  26
ATOM     26  S   UNL     1       0.716  10.682  19.898  0.00  0.00    +0.000 S 
ATOM     27  O   UNL     1       1.196  11.390  21.061  0.00  0.00    +0.000 OA
ATOM     28  O   UNL     1       1.006  11.162  18.565  0.00  0.00    +0.000 OA
BRANCH  26  29
ATOM     29  N   UNL     1      -0.964  10.512  19.974  0.00  0.00    +0.000 N 
ATOM     30  H   UNL     1      -1.362  10.923  20.817  0.00  0.00    +0.000 HD
BRANCH  29  31
ATOM     31  C   UNL     1      -1.708  10.650  18.767  0.00  0.00    +0.000 A 
ATOM     32  C   UNL     1      -2.781  11.532  18.721  0.00  0.00    +0.000 A 
ATOM     33  C   UNL     1      -3.557  11.627  17.566  0.00  0.00    +0.000 A 
ATOM     34  C   UNL     1      -3.269  10.816  16.468  0.00  0.00    +0.000 A 
ATOM     35  C   UNL     1      -2.198   9.922  16.523  0.00  0.00    +0.000 A 
ATOM     36  C   UNL     1      -1.407   9.840  17.669  0.00  0.00    +0.000 A 
ENDBRANCH  29  31
ENDBRANCH  26  29
ENDBRANCH   7  26
TORSDOF 7
ENDMDL
MODEL 2
REMARK VINA RESULT:      -9.0      3.015      9.603
REMARK  Name = 
REMARK  8 active torsions:
REMARK  status: ('A' for Active; 'I' for Inactive)
REMARK    1  A    between atoms: C_1  and  C_2
REMARK    2  A    between atoms: C_7  and  S_8
REMARK    3  A    between atoms: S_8  and  N_11
REMARK    4  A    between atoms: N_11  and  C_12
REMARK    5  A    between atoms: N_22  and  N_23
REMARK    6  A    between atoms: C_24  and  C_26
REMARK    7  A    between atoms: C_26  and  N_27
REMARK    8  A    between atoms: N_27  and  C_28
REMARK                            x       y       z     vdW  Elec       q    Type
REMARK                         _______ _______ _______ _____ _____    ______ ____
ROOT
ATOM      1  C   UNL     1       0.423  10.151  21.742  0.00  0.00    +0.000 C 
ATOM      2  C   UNL     1       0.963   9.149  20.752  0.00  0.00    +0.000 A 
ATOM      3  N   UNL     1       1.344   7.999  21.217  0.00  0.00    +0.000 NA
ATOM      4  C   UNL     1       1.846   7.053  20.317  0.00  0.00    +0.000 A 
ATOM      5  C   UNL     1       2.127   5.771  20.789  0.00  0.00    +0.000 A 
ATOM      6  C   UNL     1       2.607   4.786  19.925  0.00  0.00    +0.000 A 
ATOM      7  C   UNL     1       2.802   5.087  18.571  0.00  0.00    +0.000 A 
ATOM      8  C   UNL     1       2.560   6.374  18.085  0.00  0.00    +0.000 A 
ATOM      9  C   UNL     1       2.082   7.347  18.970  0.00  0.00    +0.000 A 
ATOM     10  C   UNL     1       1.814   8.728  18.523  0.00  0.00    +0.000 A 
ATOM     11  O   UNL     1       2.291   9.130  17.465  0.00  0.00    +0.000 OA
ATOM     12  N   UNL     1       1.072   9.505  19.423  0.00  0.00    +0.000 N 
ENDROOT
BRANCH  12  13
ATOM     13  N   UNL     1       0.609  10.763  18.967  0.00  0.00    +0.000 N 
ATOM     14  C   UNL     1      -0.720  10.896  18.574  0.00  0.00    +0.000 C 
ATOM     15  O   UNL     1      -1.560  10.004  18.689  0.00  0.00    +0.000 OA
ATOM     16  H   UNL     1       1.248  11.547  18.985  0.00  0.00    +0.000 HD
BRANCH  14  17
ATOM     17  C   UNL     1      -1.092  12.305  18.085  0.00  0.00    +0.000 C 
BRANCH  17  18
ATOM     18  N   UNL     1      -2.013  12.899  19.050  0.00  0.00    +0.000 N 
ATOM     19  H   UNL     1      -2.992  12.701  18.875  0.00  0.00    +0.000 HD
BRANCH  18  20
ATOM     20  C   UNL     1      -1.697  13.055  20.392  0.00  0.00    +0.000 A 
ATOM     21  C   UNL     1      -0.586  13.768  20.857  0.00  0.00    +0.000 A 
ATOM     22  C   UNL     1      -0.362  13.937  22.230  0.00  0.00    +0.000 A 
ATOM     23  C   UNL     1      -1.255  13.407  23.158  0.00  0.00    +0.000 A 
ATOM     24  C   UNL     1      -2.383  12.728  22.717  0.00  0.00    +0.000 A 
ATOM     25  C   UNL     1      -2.604  12.570  21.344  0.00  0.00    +0.000 A 
ENDBRANCH  18  20
ENDBRANCH  17  18
ENDBRANCH  14  17
ENDBRANCH  12  13
BRANCH   7  26
ATOM     26  S   UNL     1       3.423   3.820  17.484  0.00  0.00    +0.000 S 
ATOM     27  O   UNL     1       4.114   2.834  18.281  0.00  0.00    +0.000 OA
ATOM     28  O   UNL     1       2.332   3.437  16.614  0.00  0.00    +0.000 OA
BRANCH  26  29
ATOM     29  N   UNL     1       4.523   4.654  16.508  0.00  0.00    +0.000 N 
ATOM     30  H   UNL     1       4.075   5.104  15.711  0.00  0.00    +0.000 HD
BRANCH  29  31
ATOM     31  C   UNL     1       5.584   5.358  17.144  0.00  0.00    +0.000 A 
ATOM     32  C   UNL     1       5.807   6.694  16.829  0.00  0.00    +0.000 A 
ATOM     33  C   UNL     1       6.884   7.375  17.396  0.00  0.00    +0.000 A 
ATOM     34  C   UNL     1       7.752   6.705  18.259  0.00  0.00    +0.000 A 
ATOM     35  C   UNL     1       7.533   5.360  18.563  0.00  0.00    +0.000 A 
ATOM     36  C   UNL     1       6.443   4.682  18.014  0.00  0.00    +0.000 A 
ENDBRANCH  29  31
ENDBRANCH  26  29
ENDBRANCH   7  26
TORSDOF 7
ENDMDL
MODEL 3
REMARK VINA RESULT:      -8.9      3.353      9.596
REMARK  Name = 
REMARK  8 active torsions:
REMARK  status: ('A' for Active; 'I' for Inactive)
REMARK    1  A    between atoms: C_1  and  C_2
REMARK    2  A    between atoms: C_7  and  S_8
REMARK    3  A    between atoms: S_8  and  N_11
REMARK    4  A    between atoms: N_11  and  C_12
REMARK    5  A    between atoms: N_22  and  N_23
REMARK    6  A    between atoms: C_24  and  C_26
REMARK    7  A    between atoms: C_26  and  N_27
REMARK    8  A    between atoms: N_27  and  C_28
REMARK                            x       y       z     vdW  Elec       q    Type
REMARK                         _______ _______ _______ _____ _____    ______ ____
ROOT
ATOM      1  C   UNL     1      -0.350   9.860  21.551  0.00  0.00    +0.000 C 
ATOM      2  C   UNL     1       0.557   9.221  20.528  0.00  0.00    +0.000 A 
ATOM      3  N   UNL     1       1.217   8.166  20.896  0.00  0.00    +0.000 NA
ATOM      4  C   UNL     1       2.062   7.555  19.962  0.00  0.00    +0.000 A 
ATOM      5  C   UNL     1       2.667   6.345  20.307  0.00  0.00    +0.000 A 
ATOM      6  C   UNL     1       3.499   5.686  19.401  0.00  0.00    +0.000 A 
ATOM      7  C   UNL     1       3.724   6.241  18.135  0.00  0.00    +0.000 A 
ATOM      8  C   UNL     1       3.158   7.468  17.785  0.00  0.00    +0.000 A 
ATOM      9  C   UNL     1       2.328   8.114  18.709  0.00  0.00    +0.000 A 
ATOM     10  C   UNL     1       1.705   9.417  18.404  0.00  0.00    +0.000 A 
ATOM     11  O   UNL     1       2.140  10.100  17.481  0.00  0.00    +0.000 OA
ATOM     12  N   UNL     1       0.683   9.800  19.282  0.00  0.00    +0.000 N 
ENDROOT
BRANCH  12  13
ATOM     13  N   UNL     1      -0.089  10.933  18.927  0.00  0.00    +0.000 N 
ATOM     14  C   UNL     1      -1.242  10.759  18.165  0.00  0.00    +0.000 C 
ATOM     15  O   UNL     1      -1.697   9.659  17.857  0.00  0.00    +0.000 OA
ATOM     16  H   UNL     1       0.195  11.839  19.278  0.00  0.00    +0.000 HD
BRANCH  14  17
ATOM     17  C   UNL     1      -1.978  12.066  17.833  0.00  0.00    +0.000 C 
BRANCH  17  18
ATOM     18  N   UNL     1      -3.318  11.733  17.357  0.00  0.00    +0.000 N 
ATOM     19  H   UNL     1      -3.340  11.069  16.591  0.00  0.00    +0.000 HD
BRANCH  18  20
ATOM     20  C   UNL     1      -4.418  11.663  18.200  0.00  0.00    +0.000 A 
ATOM     21  C   UNL     1      -4.483  12.278  19.455  0.00  0.00    +0.000 A 
ATOM     22  C   UNL     1      -5.650  12.217  20.227  0.00  0.00    +0.000 A 
ATOM     23  C   UNL     1      -6.775  11.551  19.749  0.00  0.00    +0.000 A 
ATOM     24  C   UNL     1      -6.745  10.966  18.491  0.00  0.00    +0.000 A 
ATOM     25  C   UNL     1      -5.577  11.038  17.722  0.00  0.00    +0.000 A 
ENDBRANCH  18  20
ENDBRANCH  17  18
ENDBRANCH  14  17
ENDBRANCH  12  13
BRANCH   7  26
ATOM     26  S   UNL     1       4.796   5.389  16.995  0.00  0.00    +0.000 S 
ATOM     27  O   UNL     1       5.166   6.308  15.945  0.00  0.00    +0.000 OA
ATOM     28  O   UNL     1       5.807   4.721  17.785  0.00  0.00    +0.000 OA
BRANCH  26  29
ATOM     29  N   UNL     1       3.808   4.166  16.377  0.00  0.00    +0.000 N 
ATOM     30  H   UNL     1       4.236   3.675  15.593  0.00  0.00    +0.000 HD
BRANCH  29  31
ATOM     31  C   UNL     1       3.047   3.388  17.296  0.00  0.00    +0.000 A 
ATOM     32  C   UNL     1       1.718   3.716  17.538  0.00  0.00    +0.000 A 
ATOM     33  C   UNL     1       0.985   3.003  18.485  0.00  0.00    +0.000 A 
ATOM     34  C   UNL     1       1.595   1.976  19.206  0.00  0.00    +0.000 A 
ATOM     35  C   UNL     1       2.933   1.657  18.970  0.00  0.00    +0.000 A 
ATOM     36  C   UNL     1       3.664   2.356  18.008  0.00  0.00    +0.000 A 
ENDBRANCH  29  31
ENDBRANCH  26  29
ENDBRANCH   7  26
TORSDOF 7
ENDMDL
MODEL 4
REMARK VINA RESULT:      -8.9      0.844      1.190
REMARK  Name = 
REMARK  8 active torsions:
REMARK  status: ('A' for Active; 'I' for Inactive)
REMARK    1  A    between atoms: C_1  and  C_2
REMARK    2  A    between atoms: C_7  and  S_8
REMARK    3  A    between atoms: S_8  and  N_11
REMARK    4  A    between atoms: N_11  and  C_12
REMARK    5  A    between atoms: N_22  and  N_23
REMARK    6  A    between atoms: C_24  and  C_26
REMARK    7  A    between atoms: C_26  and  N_27
REMARK    8  A    between atoms: N_27  and  C_28
REMARK                            x       y       z     vdW  Elec       q    Type
REMARK                         _______ _______ _______ _____ _____    ______ ____
ROOT
ATOM      1  C   UNL     1       3.430   3.705  19.858  0.00  0.00    +0.000 C 
ATOM      2  C   UNL     1       3.082   5.151  19.606  0.00  0.00    +0.000 A 
ATOM      3  N   UNL     1       2.191   5.691  20.381  0.00  0.00    +0.000 NA
ATOM      4  C   UNL     1       1.855   7.033  20.168  0.00  0.00    +0.000 A 
ATOM      5  C   UNL     1       1.003   7.656  21.081  0.00  0.00    +0.000 A 
ATOM      6  C   UNL     1       0.657   8.999  20.924  0.00  0.00    +0.000 A 
ATOM      7  C   UNL     1       1.172   9.727  19.845  0.00  0.00    +0.000 A 
ATOM      8  C   UNL     1       1.997   9.112  18.900  0.00  0.00    +0.000 A 
ATOM      9  C   UNL     1       2.331   7.764  19.075  0.00  0.00    +0.000 A 
ATOM     10  C   UNL     1       3.191   7.053  18.109  0.00  0.00    +0.000 A 
ATOM     11  O   UNL     1       3.373   7.526  16.991  0.00  0.00    +0.000 OA
ATOM     12  N   UNL     1       3.676   5.815  18.553  0.00  0.00    +0.000 N 
ENDROOT
BRANCH  12  13
ATOM     13  N   UNL     1       4.666   5.183  17.761  0.00  0.00    +0.000 N 
ATOM     14  C   UNL     1       6.009   5.342  18.097  0.00  0.00    +0.000 C 
ATOM     15  O   UNL     1       6.396   5.923  19.110  0.00  0.00    +0.000 OA
ATOM     16  H   UNL     1       4.366   4.592  16.997  0.00  0.00    +0.000 HD
BRANCH  14  17
ATOM     17  C   UNL     1       6.981   4.621  17.151  0.00  0.00    +0.000 C 
BRANCH  17  18
ATOM     18  N   UNL     1       7.102   5.409  15.927  0.00  0.00    +0.000 N 
ATOM     19  H   UNL     1       7.789   6.154  15.971  0.00  0.00    +0.000 HD
BRANCH  18  20
ATOM     20  C   UNL     1       6.942   4.860  14.662  0.00  0.00    +0.000 A 
ATOM     21  C   UNL     1       5.934   3.950  14.326  0.00  0.00    +0.000 A 
ATOM     22  C   UNL     1       5.793   3.484  13.012  0.00  0.00    +0.000 A 
ATOM     23  C   UNL     1       6.651   3.934  12.012  0.00  0.00    +0.000 A 
ATOM     24  C   UNL     1       7.634   4.865  12.316  0.00  0.00    +0.000 A 
ATOM     25  C   UNL     1       7.763   5.332  13.630  0.00  0.00    +0.000 A 
ENDBRANCH  18  20
ENDBRANCH  17  18
ENDBRANCH  14  17
ENDBRANCH  12  13
BRANCH   7  26
ATOM     26  S   UNL     1       0.713  11.438  19.657  0.00  0.00    +0.000 S 
ATOM     27  O   UNL     1      -0.241  11.769  20.688  0.00  0.00    +0.000 OA
ATOM     28  O   UNL     1       1.939  12.191  19.511  0.00  0.00    +0.000 OA
BRANCH  26  29
ATOM     29  N   UNL     1      -0.035  11.471  18.141  0.00  0.00    +0.000 N 
ATOM     30  H   UNL     1       0.582  11.154  17.393  0.00  0.00    +0.000 HD
BRANCH  29  31
ATOM     31  C   UNL     1      -1.405  11.094  18.060  0.00  0.00    +0.000 A 
ATOM     32  C   UNL     1      -1.754   9.904  17.431  0.00  0.00    +0.000 A 
ATOM     33  C   UNL     1      -3.096   9.557  17.287  0.00  0.00    +0.000 A 
ATOM     34  C   UNL     1      -4.090  10.420  17.753  0.00  0.00    +0.000 A 
ATOM     35  C   UNL     1      -3.737  11.620  18.374  0.00  0.00    +0.000 A 
ATOM     36  C   UNL     1      -2.393  11.959  18.537  0.00  0.00    +0.000 A 
ENDBRANCH  29  31
ENDBRANCH  26  29
ENDBRANCH   7  26
TORSDOF 7
ENDMDL
MODEL 5
REMARK VINA RESULT:      -8.8      3.506      9.930
REMARK  Name = 
REMARK  8 active torsions:
REMARK  status: ('A' for Active; 'I' for Inactive)
REMARK    1  A    between atoms: C_1  and  C_2
REMARK    2  A    between atoms: C_7  and  S_8
REMARK    3  A    between atoms: S_8  and  N_11
REMARK    4  A    between atoms: N_11  and  C_12
REMARK    5  A    between atoms: N_22  and  N_23
REMARK    6  A    between atoms: C_24  and  C_26
REMARK    7  A    between atoms: C_26  and  N_27
REMARK    8  A    between atoms: N_27  and  C_28
REMARK                            x       y       z     vdW  Elec       q    Type
REMARK                         _______ _______ _______ _____ _____    ______ ____
ROOT
ATOM      1  C   UNL     1       0.187  10.522  18.452  0.00  0.00    +0.000 C 
ATOM      2  C   UNL     1       1.109   9.355  18.707  0.00  0.00    +0.000 A 
ATOM      3  N   UNL     1       1.908   9.007  17.745  0.00  0.00    +0.000 NA
ATOM      4  C   UNL     1       2.774   7.929  17.959  0.00  0.00    +0.000 A 
ATOM      5  C   UNL     1       3.727   7.640  16.983  0.00  0.00    +0.000 A 
ATOM      6  C   UNL     1       4.629   6.589  17.162  0.00  0.00    +0.000 A 
ATOM      7  C   UNL     1       4.578   5.824  18.333  0.00  0.00    +0.000 A 
ATOM      8  C   UNL     1       3.608   6.075  19.306  0.00  0.00    +0.000 A 
ATOM      9  C   UNL     1       2.712   7.132  19.106  0.00  0.00    +0.000 A 
ATOM     10  C   UNL     1       1.659   7.445  20.091  0.00  0.00    +0.000 A 
ATOM     11  O   UNL     1       1.349   6.611  20.938  0.00  0.00    +0.000 OA
ATOM     12  N   UNL     1       1.035   8.686  19.911  0.00  0.00    +0.000 N 
ENDROOT
BRANCH  12  13
ATOM     13  N   UNL     1       0.165   9.132  20.937  0.00  0.00    +0.000 N 
ATOM     14  C   UNL     1       0.707   9.574  22.142  0.00  0.00    +0.000 C 
ATOM     15  O   UNL     1       1.914   9.699  22.343  0.00  0.00    +0.000 OA
ATOM     16  H   UNL     1      -0.828   9.161  20.748  0.00  0.00    +0.000 HD
BRANCH  14  17
ATOM     17  C   UNL     1      -0.341  10.014  23.176  0.00  0.00    +0.000 C 
BRANCH  17  18
ATOM     18  N   UNL     1      -1.288  10.911  22.519  0.00  0.00    +0.000 N 
ATOM     19  H   UNL     1      -1.963  10.448  21.921  0.00  0.00    +0.000 HD
BRANCH  18  20
ATOM     20  C   UNL     1      -1.764  12.070  23.119  0.00  0.00    +0.000 A 
ATOM     21  C   UNL     1      -1.051  13.272  23.171  0.00  0.00    +0.000 A 
ATOM     22  C   UNL     1      -1.618  14.421  23.738  0.00  0.00    +0.000 A 
ATOM     23  C   UNL     1      -2.914  14.386  24.249  0.00  0.00    +0.000 A 
ATOM     24  C   UNL     1      -3.651  13.213  24.173  0.00  0.00    +0.000 A 
ATOM     25  C   UNL     1      -3.080  12.072  23.597  0.00  0.00    +0.000 A 
ENDBRANCH  18  20
ENDBRANCH  17  18
ENDBRANCH  14  17
ENDBRANCH  12  13
BRANCH   7  26
ATOM     26  S   UNL     1       5.731   4.482  18.541  0.00  0.00    +0.000 S 
ATOM     27  O   UNL     1       6.822   4.672  17.615  0.00  0.00    +0.000 OA
ATOM     28  O   UNL     1       5.977   4.352  19.960  0.00  0.00    +0.000 OA
BRANCH  26  29
ATOM     29  N   UNL     1       4.825   3.124  18.101  0.00  0.00    +0.000 N 
ATOM     30  H   UNL     1       5.387   2.275  18.057  0.00  0.00    +0.000 HD
BRANCH  29  31
ATOM     31  C   UNL     1       3.502   3.004  18.616  0.00  0.00    +0.000 A 
ATOM     32  C   UNL     1       2.418   3.305  17.799  0.00  0.00    +0.000 A 
ATOM     33  C   UNL     1       1.123   3.255  18.312  0.00  0.00    +0.000 A 
ATOM     34  C   UNL     1       0.920   2.926  19.653  0.00  0.00    +0.000 A 
ATOM     35  C   UNL     1       2.012   2.637  20.474  0.00  0.00    +0.000 A 
ATOM     36  C   UNL     1       3.308   2.666  19.957  0.00  0.00    +0.000 A 
ENDBRANCH  29  31
ENDBRANCH  26  29
ENDBRANCH   7  26
TORSDOF 7
ENDMDL
MODEL 6
REMARK VINA RESULT:      -8.7      2.232      2.708
REMARK  Name = 
REMARK  8 active torsions:
REMARK  status: ('A' for Active; 'I' for Inactive)
REMARK    1  A    between atoms: C_1  and  C_2
REMARK    2  A    between atoms: C_7  and  S_8
REMARK    3  A    between atoms: S_8  and  N_11
REMARK    4  A    between atoms: N_11  and  C_12
REMARK    5  A    between atoms: N_22  and  N_23
REMARK    6  A    between atoms: C_24  and  C_26
REMARK    7  A    between atoms: C_26  and  N_27
REMARK    8  A    between atoms: N_27  and  C_28
REMARK                            x       y       z     vdW  Elec       q    Type
REMARK                         _______ _______ _______ _____ _____    ______ ____
ROOT
ATOM      1  C   UNL     1       3.940   3.243  19.359  0.00  0.00    +0.000 C 
ATOM      2  C   UNL     1       3.470   4.674  19.270  0.00  0.00    +0.000 A 
ATOM      3  N   UNL     1       2.531   5.043  20.086  0.00  0.00    +0.000 NA
ATOM      4  C   UNL     1       2.081   6.367  20.024  0.00  0.00    +0.000 A 
ATOM      5  C   UNL     1       1.173   6.806  20.988  0.00  0.00    +0.000 A 
ATOM      6  C   UNL     1       0.713   8.123  20.981  0.00  0.00    +0.000 A 
ATOM      7  C   UNL     1       1.171   9.012  20.002  0.00  0.00    +0.000 A 
ATOM      8  C   UNL     1       2.052   8.584  19.006  0.00  0.00    +0.000 A 
ATOM      9  C   UNL     1       2.499   7.257  19.030  0.00  0.00    +0.000 A 
ATOM     10  C   UNL     1       3.424   6.739  18.003  0.00  0.00    +0.000 A 
ATOM     11  O   UNL     1       3.572   7.353  16.951  0.00  0.00    +0.000 OA
ATOM     12  N   UNL     1       4.011   5.504  18.310  0.00  0.00    +0.000 N 
ENDROOT
BRANCH  12  13
ATOM     13  N   UNL     1       5.058   5.055  17.468  0.00  0.00    +0.000 N 
ATOM     14  C   UNL     1       6.379   5.237  17.868  0.00  0.00    +0.000 C 
ATOM     15  O   UNL     1       6.704   5.681  18.968  0.00  0.00    +0.000 OA
ATOM     16  H   UNL     1       4.813   4.568  16.614  0.00  0.00    +0.000 HD
BRANCH  14  17
ATOM     17  C   UNL     1       7.416   4.721  16.859  0.00  0.00    +0.000 C 
BRANCH  17  18
ATOM     18  N   UNL     1       7.247   5.456  15.608  0.00  0.00    +0.000 N 
ATOM     19  H   UNL     1       7.837   6.275  15.516  0.00  0.00    +0.000 HD
BRANCH  18  20
ATOM     20  C   UNL     1       6.954   4.830  14.404  0.00  0.00    +0.000 A 
ATOM     21  C   UNL     1       5.863   3.975  14.211  0.00  0.00    +0.000 A 
ATOM     22  C   UNL     1       5.592   3.427  12.950  0.00  0.00    +0.000 A 
ATOM     23  C   UNL     1       6.403   3.737  11.861  0.00  0.00    +0.000 A 
ATOM     24  C   UNL     1       7.467   4.611  12.022  0.00  0.00    +0.000 A 
ATOM     25  C   UNL     1       7.726   5.162  13.283  0.00  0.00    +0.000 A 
ENDBRANCH  18  20
ENDBRANCH  17  18
ENDBRANCH  14  17
ENDBRANCH  12  13
BRANCH   7  26
ATOM     26  S   UNL     1       0.567  10.688  20.003  0.00  0.00    +0.000 S 
ATOM     27  O   UNL     1      -0.876  10.652  19.978  0.00  0.00    +0.000 OA
ATOM     28  O   UNL     1       1.273  11.391  21.052  0.00  0.00    +0.000 OA
BRANCH  26  29
ATOM     29  N   UNL     1       1.159  11.313  18.548  0.00  0.00    +0.000 N 
ATOM     30  H   UNL     1       0.665  10.946  17.735  0.00  0.00    +0.000 HD
BRANCH  29  31
ATOM     31  C   UNL     1       1.545  12.683  18.513  0.00  0.00    +0.000 A 
ATOM     32  C   UNL     1       2.882  13.015  18.329  0.00  0.00    +0.000 A 
ATOM     33  C   UNL     1       3.280  14.351  18.359  0.00  0.00    +0.000 A 
ATOM     34  C   UNL     1       2.337  15.351  18.600  0.00  0.00    +0.000 A 
ATOM     35  C   UNL     1       0.997  15.013  18.797  0.00  0.00    +0.000 A 
ATOM     36  C   UNL     1       0.592  13.679  18.747  0.00  0.00    +0.000 A 
ENDBRANCH  29  31
ENDBRANCH  26  29
ENDBRANCH   7  26
TORSDOF 7
ENDMDL
MODEL 7
REMARK VINA RESULT:      -8.7      3.478      9.693
REMARK  Name = 
REMARK  8 active torsions:
REMARK  status: ('A' for Active; 'I' for Inactive)
REMARK    1  A    between atoms: C_1  and  C_2
REMARK    2  A    between atoms: C_7  and  S_8
REMARK    3  A    between atoms: S_8  and  N_11
REMARK    4  A    between atoms: N_11  and  C_12
REMARK    5  A    between atoms: N_22  and  N_23
REMARK    6  A    between atoms: C_24  and  C_26
REMARK    7  A    between atoms: C_26  and  N_27
REMARK    8  A    between atoms: N_27  and  C_28
REMARK                            x       y       z     vdW  Elec       q    Type
REMARK                         _______ _______ _______ _____ _____    ______ ____
ROOT
ATOM      1  C   UNL     1       0.365  10.657  18.299  0.00  0.00    +0.000 C 
ATOM      2  C   UNL     1       1.234   9.455  18.578  0.00  0.00    +0.000 A 
ATOM      3  N   UNL     1       2.065   9.095  17.649  0.00  0.00    +0.000 NA
ATOM      4  C   UNL     1       2.883   7.984  17.886  0.00  0.00    +0.000 A 
ATOM      5  C   UNL     1       3.873   7.677  16.951  0.00  0.00    +0.000 A 
ATOM      6  C   UNL     1       4.729   6.593  17.155  0.00  0.00    +0.000 A 
ATOM      7  C   UNL     1       4.596   5.813  18.310  0.00  0.00    +0.000 A 
ATOM      8  C   UNL     1       3.589   6.082  19.240  0.00  0.00    +0.000 A 
ATOM      9  C   UNL     1       2.740   7.172  19.015  0.00  0.00    +0.000 A 
ATOM     10  C   UNL     1       1.652   7.506  19.954  0.00  0.00    +0.000 A 
ATOM     11  O   UNL     1       1.274   6.671  20.771  0.00  0.00    +0.000 OA
ATOM     12  N   UNL     1       1.079   8.771  19.765  0.00  0.00    +0.000 N 
ENDROOT
BRANCH  12  13
ATOM     13  N   UNL     1       0.177   9.230  20.756  0.00  0.00    +0.000 N 
ATOM     14  C   UNL     1       0.674   9.640  21.991  0.00  0.00    +0.000 C 
ATOM     15  O   UNL     1       1.874   9.723  22.251  0.00  0.00    +0.000 OA
ATOM     16  H   UNL     1      -0.805   9.293  20.521  0.00  0.00    +0.000 HD
BRANCH  14  17
ATOM     17  C   UNL     1      -0.406  10.099  22.982  0.00  0.00    +0.000 C 
BRANCH  17  18
ATOM     18  N   UNL     1      -0.674  11.515  22.748  0.00  0.00    +0.000 N 
ATOM     19  H   UNL     1       0.076  12.015  22.284  0.00  0.00    +0.000 HD
BRANCH  18  20
ATOM     20  C   UNL     1      -1.942  12.002  22.460  0.00  0.00    +0.000 A 
ATOM     21  C   UNL     1      -2.926  12.239  23.426  0.00  0.00    +0.000 A 
ATOM     22  C   UNL     1      -4.165  12.791  23.071  0.00  0.00    +0.000 A 
ATOM     23  C   UNL     1      -4.430  13.126  21.746  0.00  0.00    +0.000 A 
ATOM     24  C   UNL     1      -3.454  12.935  20.779  0.00  0.00    +0.000 A 
ATOM     25  C   UNL     1      -2.216  12.391  21.143  0.00  0.00    +0.000 A 
ENDBRANCH  18  20
ENDBRANCH  17  18
ENDBRANCH  14  17
ENDBRANCH  12  13
BRANCH   7  26
ATOM     26  S   UNL     1       5.691   4.429  18.549  0.00  0.00    +0.000 S 
ATOM     27  O   UNL     1       6.720   4.482  17.538  0.00  0.00    +0.000 OA
ATOM     28  O   UNL     1       6.034   4.399  19.954  0.00  0.00    +0.000 OA
BRANCH  26  29
ATOM     29  N   UNL     1       4.689   3.094  18.288  0.00  0.00    +0.000 N 
ATOM     30  H   UNL     1       5.214   2.238  18.112  0.00  0.00    +0.000 HD
BRANCH  29  31
ATOM     31  C   UNL     1       3.503   2.981  19.069  0.00  0.00    +0.000 A 
ATOM     32  C   UNL     1       2.263   3.143  18.461  0.00  0.00    +0.000 A 
ATOM     33  C   UNL     1       1.099   3.101  19.227  0.00  0.00    +0.000 A 
ATOM     34  C   UNL     1       1.184   2.922  20.609  0.00  0.00    +0.000 A 
ATOM     35  C   UNL     1       2.431   2.773  21.218  0.00  0.00    +0.000 A 
ATOM     36  C   UNL     1       3.596   2.794  20.451  0.00  0.00    +0.000 A 
ENDBRANCH  29  31
ENDBRANCH  26  29
ENDBRANCH   7  26
TORSDOF 7
ENDMDL
MODEL 8
REMARK VINA RESULT:      -8.7      2.924      9.714
REMARK  Name = 
REMARK  8 active torsions:
REMARK  status: ('A' for Active; 'I' for Inactive)
REMARK    1  A    between atoms: C_1  and  C_2
REMARK    2  A    between atoms: C_7  and  S_8
REMARK    3  A    between atoms: S_8  and  N_11
REMARK    4  A    between atoms: N_11  and  C_12
REMARK    5  A    between atoms: N_22  and  N_23
REMARK    6  A    between atoms: C_24  and  C_26
REMARK    7  A    between atoms: C_26  and  N_27
REMARK    8  A    between atoms: N_27  and  C_28
REMARK                            x       y       z     vdW  Elec       q    Type
REMARK                         _______ _______ _______ _____ _____    ______ ____
ROOT
ATOM      1  C   UNL     1       0.231  10.246  21.637  0.00  0.00    +0.000 C 
ATOM      2  C   UNL     1       0.808   9.232  20.680  0.00  0.00    +0.000 A 
ATOM      3  N   UNL     1       1.311   8.150  21.193  0.00  0.00    +0.000 NA
ATOM      4  C   UNL     1       1.850   7.194  20.324  0.00  0.00    +0.000 A 
ATOM      5  C   UNL     1       2.265   5.973  20.857  0.00  0.00    +0.000 A 
ATOM      6  C   UNL     1       2.788   4.979  20.028  0.00  0.00    +0.000 A 
ATOM      7  C   UNL     1       2.890   5.209  18.651  0.00  0.00    +0.000 A 
ATOM      8  C   UNL     1       2.514   6.437  18.103  0.00  0.00    +0.000 A 
ATOM      9  C   UNL     1       1.994   7.421  18.952  0.00  0.00    +0.000 A 
ATOM     10  C   UNL     1       1.586   8.743  18.439  0.00  0.00    +0.000 A 
ATOM     11  O   UNL     1       1.975   9.115  17.335  0.00  0.00    +0.000 OA
ATOM     12  N   UNL     1       0.823   9.510  19.329  0.00  0.00    +0.000 N 
ENDROOT
BRANCH  12  13
ATOM     13  N   UNL     1       0.230  10.693  18.825  0.00  0.00    +0.000 N 
ATOM     14  C   UNL     1      -1.066  10.641  18.317  0.00  0.00    +0.000 C 
ATOM     15  O   UNL     1      -1.780   9.640  18.368  0.00  0.00    +0.000 OA
ATOM     16  H   UNL     1       0.750  11.559  18.891  0.00  0.00    +0.000 HD
BRANCH  14  17
ATOM     17  C   UNL     1      -1.587  11.986  17.787  0.00  0.00    +0.000 C 
BRANCH  17  18
ATOM     18  N   UNL     1      -2.471  12.567  18.793  0.00  0.00    +0.000 N 
ATOM     19  H   UNL     1      -2.292  13.543  18.999  0.00  0.00    +0.000 HD
BRANCH  18  20
ATOM     20  C   UNL     1      -3.801  12.194  18.929  0.00  0.00    +0.000 A 
ATOM     21  C   UNL     1      -4.572  12.446  20.069  0.00  0.00    +0.000 A 
ATOM     22  C   UNL     1      -5.929  12.097  20.113  0.00  0.00    +0.000 A 
ATOM     23  C   UNL     1      -6.536  11.502  19.010  0.00  0.00    +0.000 A 
ATOM     24  C   UNL     1      -5.799  11.277  17.856  0.00  0.00    +0.000 A 
ATOM     25  C   UNL     1      -4.447  11.637  17.817  0.00  0.00    +0.000 A 
ENDBRANCH  18  20
ENDBRANCH  17  18
ENDBRANCH  14  17
ENDBRANCH  12  13
BRANCH   7  26
ATOM     26  S   UNL     1       3.567   3.932  17.609  0.00  0.00    +0.000 S 
ATOM     27  O   UNL     1       4.338   3.032  18.434  0.00  0.00    +0.000 OA
ATOM     28  O   UNL     1       2.484   3.439  16.787  0.00  0.00    +0.000 OA
BRANCH  26  29
ATOM     29  N   UNL     1       4.588   4.785  16.567  0.00  0.00    +0.000 N 
ATOM     30  H   UNL     1       4.078   5.276  15.833  0.00  0.00    +0.000 HD
BRANCH  29  31
ATOM     31  C   UNL     1       5.720   5.445  17.127  0.00  0.00    +0.000 A 
ATOM     32  C   UNL     1       6.541   4.763  18.017  0.00  0.00    +0.000 A 
ATOM     33  C   UNL     1       7.612   5.419  18.622  0.00  0.00    +0.000 A 
ATOM     34  C   UNL     1       7.842   6.769  18.351  0.00  0.00    +0.000 A 
ATOM     35  C   UNL     1       7.008   7.454  17.466  0.00  0.00    +0.000 A 
ATOM     36  C   UNL     1       5.947   6.794  16.843  0.00  0.00    +0.000 A 
ENDBRANCH  29  31
ENDBRANCH  26  29
ENDBRANCH   7  26
TORSDOF 7
ENDMDL
MODEL 9
REMARK VINA RESULT:      -8.6      3.257      9.270
REMARK  Name = 
REMARK  8 active torsions:
REMARK  status: ('A' for Active; 'I' for Inactive)
REMARK    1  A    between atoms: C_1  and  C_2
REMARK    2  A    between atoms: C_7  and  S_8
REMARK    3  A    between atoms: S_8  and  N_11
REMARK    4  A    between atoms: N_11  and  C_12
REMARK    5  A    between atoms: N_22  and  N_23
REMARK    6  A    between atoms: C_24  and  C_26
REMARK    7  A    between atoms: C_26  and  N_27
REMARK    8  A    between atoms: N_27  and  C_28
REMARK                            x       y       z     vdW  Elec       q    Type
REMARK                         _______ _______ _______ _____ _____    ______ ____
ROOT
ATOM      1  C   UNL     1       0.400  10.338  21.593  0.00  0.00    +0.000 C 
ATOM      2  C   UNL     1       0.948   9.302  20.641  0.00  0.00    +0.000 A 
ATOM      3  N   UNL     1       1.339   8.175  21.151  0.00  0.00    +0.000 NA
ATOM      4  C   UNL     1       1.848   7.198  20.287  0.00  0.00    +0.000 A 
ATOM      5  C   UNL     1       2.141   5.938  20.809  0.00  0.00    +0.000 A 
ATOM      6  C   UNL     1       2.628   4.924  19.983  0.00  0.00    +0.000 A 
ATOM      7  C   UNL     1       2.819   5.174  18.619  0.00  0.00    +0.000 A 
ATOM      8  C   UNL     1       2.567   6.439  18.083  0.00  0.00    +0.000 A 
ATOM      9  C   UNL     1       2.080   7.442  18.930  0.00  0.00    +0.000 A 
ATOM     10  C   UNL     1       1.801   8.802  18.430  0.00  0.00    +0.000 A 
ATOM     11  O   UNL     1       2.274   9.166  17.357  0.00  0.00    +0.000 OA
ATOM     12  N   UNL     1       1.054   9.607  19.300  0.00  0.00    +0.000 N 
ENDROOT
BRANCH  12  13
ATOM     13  N   UNL     1       0.579  10.843  18.796  0.00  0.00    +0.000 N 
ATOM     14  C   UNL     1      -0.756  10.954  18.414  0.00  0.00    +0.000 C 
ATOM     15  O   UNL     1      -1.590  10.065  18.580  0.00  0.00    +0.000 OA
ATOM     16  H   UNL     1       1.216  11.629  18.772  0.00  0.00    +0.000 HD
BRANCH  14  17
ATOM     17  C   UNL     1      -1.139  12.339  17.870  0.00  0.00    +0.000 C 
BRANCH  17  18
ATOM     18  N   UNL     1      -0.917  13.326  18.924  0.00  0.00    +0.000 N 
ATOM     19  H   UNL     1      -0.939  12.949  19.865  0.00  0.00    +0.000 HD
BRANCH  18  20
ATOM     20  C   UNL     1      -0.070  14.414  18.768  0.00  0.00    +0.000 A 
ATOM     21  C   UNL     1      -0.496  15.746  18.783  0.00  0.00    +0.000 A 
ATOM     22  C   UNL     1       0.425  16.798  18.682  0.00  0.00    +0.000 A 
ATOM     23  C   UNL     1       1.787  16.530  18.576  0.00  0.00    +0.000 A 
ATOM     24  C   UNL     1       2.234  15.217  18.597  0.00  0.00    +0.000 A 
ATOM     25  C   UNL     1       1.309  14.172  18.707  0.00  0.00    +0.000 A 
ENDBRANCH  18  20
ENDBRANCH  17  18
ENDBRANCH  14  17
ENDBRANCH  12  13
BRANCH   7  26
ATOM     26  S   UNL     1       3.450   3.870  17.581  0.00  0.00    +0.000 S 
ATOM     27  O   UNL     1       4.200   2.954  18.406  0.00  0.00    +0.000 OA
ATOM     28  O   UNL     1       2.347   3.405  16.770  0.00  0.00    +0.000 OA
BRANCH  26  29
ATOM     29  N   UNL     1       4.488   4.686  16.526  0.00  0.00    +0.000 N 
ATOM     30  H   UNL     1       3.989   5.166  15.777  0.00  0.00    +0.000 HD
BRANCH  29  31
ATOM     31  C   UNL     1       5.625   5.344  17.077  0.00  0.00    +0.000 A 
ATOM     32  C   UNL     1       6.467   4.653  17.940  0.00  0.00    +0.000 A 
ATOM     33  C   UNL     1       7.543   5.306  18.537  0.00  0.00    +0.000 A 
ATOM     34  C   UNL     1       7.759   6.662  18.285  0.00  0.00    +0.000 A 
ATOM     35  C   UNL     1       6.904   7.357  17.427  0.00  0.00    +0.000 A 
ATOM     36  C   UNL     1       5.838   6.700  16.812  0.00  0.00    +0.000 A 
ENDBRANCH  29  31
ENDBRANCH  26  29
ENDBRANCH   7  26
TORSDOF 7
ENDMDL
