MODEL 1
REMARK VINA RESULT:      -8.3      0.000      0.000
REMARK  Name = 
REMARK  14 active torsions:
REMARK  status: ('A' for Active; 'I' for Inactive)
REMARK    1  A    between atoms: C_1  and  C_2
REMARK    2  A    between atoms: C_2  and  O_3
REMARK    3  A    between atoms: O_3  and  C_4
REMARK    4  A    between atoms: C_4  and  C_6
REMARK    5  A    between atoms: C_6  and  C_7
REMARK    6  A    between atoms: C_6  and  N_17
REMARK    7  A    between atoms: C_7  and  C_8
REMARK    8  A    between atoms: C_12  and  C_13
REMARK    9  A    between atoms: C_18  and  C_20
REMARK   10  A    between atoms: C_20  and  N_21
REMARK   11  A    between atoms: N_21  and  S_22
REMARK   12  A    between atoms: S_22  and  C_25
REMARK   13  A    between atoms: C_28  and  C_29
REMARK   14  A    between atoms: C_29  and  S_31
REMARK                            x       y       z     vdW  Elec       q    Type
REMARK                         _______ _______ _______ _____ _____    ______ ____
ROOT
ATOM      1  N   UNL     1       3.053   5.795  18.425  0.00  0.00    +0.000 N 
ATOM      2  C   UNL     1       2.504   6.929  18.983  0.00  0.00    +0.000 C 
ATOM      3  O   UNL     1       2.032   6.949  20.116  0.00  0.00    +0.000 OA
ATOM      4  H   UNL     1       3.402   5.823  17.470  0.00  0.00    +0.000 HD
ENDROOT
BRANCH   1   5
ATOM      5  C   UNL     1       3.159   4.478  19.090  0.00  0.00    +0.000 C 
BRANCH   5   6
ATOM      6  C   UNL     1       2.036   3.599  18.505  0.00  0.00    +0.000 C 
ATOM      7  O   UNL     1       1.436   3.892  17.474  0.00  0.00    +0.000 OA
BRANCH   6   8
ATOM      8  O   UNL     1       1.765   2.508  19.272  0.00  0.00    +0.000 OA
BRANCH   8  10
ATOM      9  C   UNL     1       1.563   2.765  21.680  0.00  0.00    +0.000 C 
ATOM     10  C   UNL     1       0.832   2.716  20.351  0.00  0.00    +0.000 C 
ENDBRANCH   8  10
ENDBRANCH   6   8
ENDBRANCH   5   6
BRANCH   5  11
ATOM     11  C   UNL     1       4.547   3.812  18.963  0.00  0.00    +0.000 C 
BRANCH  11  12
ATOM     12  C   UNL     1       5.561   4.593  18.153  0.00  0.00    +0.000 A 
ATOM     13  C   UNL     1       6.364   5.553  18.782  0.00  0.00    +0.000 A 
ATOM     14  C   UNL     1       7.231   6.357  18.045  0.00  0.00    +0.000 A 
ATOM     15  C   UNL     1       7.364   6.158  16.673  0.00  0.00    +0.000 A 
ATOM     16  C   UNL     1       6.659   5.126  16.046  0.00  0.00    +0.000 A 
ATOM     17  C   UNL     1       5.731   4.369  16.778  0.00  0.00    +0.000 A 
BRANCH  16  18
ATOM     18  C   UNL     1       6.945   4.798  14.620  0.00  0.00    +0.000 C 
ATOM     19  N   UNL     1       7.758   5.495  13.888  0.00  0.00    +0.000 NA
ATOM     20  N   UNL     1       6.373   3.724  14.010  0.00  0.00    +0.000 N 
ATOM     21  H   UNL     1       8.198   6.245  14.427  0.00  0.00    +0.000 HD
ATOM     22  H   UNL     1       5.399   3.567  14.222  0.00  0.00    +0.000 HD
ATOM     23  H   UNL     1       6.546   3.759  13.008  0.00  0.00    +0.000 HD
ENDBRANCH  16  18
ENDBRANCH  11  12
ENDBRANCH   5  11
ENDBRANCH   1   5
BRANCH   2  24
ATOM     24  C   UNL     1       2.580   8.168  18.082  0.00  0.00    +0.000 C 
BRANCH  24  25
ATOM     25  N   UNL     1       1.282   8.852  17.978  0.00  0.00    +0.000 NA
ATOM     26  H   UNL     1       0.446   8.267  17.928  0.00  0.00    +0.000 HD
BRANCH  25  27
ATOM     27  S   UNL     1       1.053  10.251  18.873  0.00  0.00    +0.000 S 
ATOM     28  O   UNL     1       1.132   9.864  20.265  0.00  0.00    +0.000 OA
ATOM     29  O   UNL     1       1.900  11.274  18.315  0.00  0.00    +0.000 OA
BRANCH  27  30
ATOM     30  C   UNL     1      -0.644  10.673  18.541  0.00  0.00    +0.000 A 
ATOM     31  C   UNL     1      -1.338   9.999  17.536  0.00  0.00    +0.000 A 
ATOM     32  C   UNL     1      -2.675  10.326  17.278  0.00  0.00    +0.000 A 
ATOM     33  C   UNL     1      -3.336  11.315  18.030  0.00  0.00    +0.000 A 
ATOM     34  C   UNL     1      -2.633  11.954  19.063  0.00  0.00    +0.000 A 
ATOM     35  C   UNL     1      -1.289  11.641  19.314  0.00  0.00    +0.000 A 
BRANCH  33  36
ATOM     36  C   UNL     1      -4.764  11.623  17.717  0.00  0.00    +0.000 C 
ATOM     37  N   UNL     1      -5.138  12.476  16.822  0.00  0.00    +0.000 NA
ATOM     38  H   UNL     1      -4.352  12.883  16.317  0.00  0.00    +0.000 HD
BRANCH  36  39
ATOM     39  S   UNL     1      -6.063  10.840  18.600  0.00  0.00    +0.000 S 
ATOM     40  H   UNL     1      -5.399  10.425  19.681  0.00  0.00    +0.000 HD
ENDBRANCH  36  39
ENDBRANCH  33  36
ENDBRANCH  27  30
ENDBRANCH  25  27
ENDBRANCH  24  25
ENDBRANCH   2  24
TORSDOF 13
ENDMDL
MODEL 2
REMARK VINA RESULT:      -7.8      1.489      2.115
REMARK  Name = 
REMARK  14 active torsions:
REMARK  status: ('A' for Active; 'I' for Inactive)
REMARK    1  A    between atoms: C_1  and  C_2
REMARK    2  A    between atoms: C_2  and  O_3
REMARK    3  A    between atoms: O_3  and  C_4
REMARK    4  A    between atoms: C_4  and  C_6
REMARK    5  A    between atoms: C_6  and  C_7
REMARK    6  A    between atoms: C_6  and  N_17
REMARK    7  A    between atoms: C_7  and  C_8
REMARK    8  A    between atoms: C_12  and  C_13
REMARK    9  A    between atoms: C_18  and  C_20
REMARK   10  A    between atoms: C_20  and  N_21
REMARK   11  A    between atoms: N_21  and  S_22
REMARK   12  A    between atoms: S_22  and  C_25
REMARK   13  A    between atoms: C_28  and  C_29
REMARK   14  A    between atoms: C_29  and  S_31
REMARK                            x       y       z     vdW  Elec       q    Type
REMARK                         _______ _______ _______ _____ _____    ______ ____
ROOT
ATOM      1  N   UNL     1       1.729   7.808  19.505  0.00  0.00    +0.000 N 
ATOM      2  C   UNL     1       1.368   8.270  20.753  0.00  0.00    +0.000 C 
ATOM      3  O   UNL     1       1.930   7.909  21.782  0.00  0.00    +0.000 OA
ATOM      4  H   UNL     1       1.210   8.114  18.686  0.00  0.00    +0.000 HD
ENDROOT
BRANCH   1   5
ATOM      5  C   UNL     1       2.819   6.846  19.230  0.00  0.00    +0.000 C 
BRANCH   5   6
ATOM      6  C   UNL     1       2.209   5.438  19.378  0.00  0.00    +0.000 C 
ATOM      7  O   UNL     1       2.239   4.811  20.434  0.00  0.00    +0.000 OA
BRANCH   6   8
ATOM      8  O   UNL     1       1.685   4.965  18.215  0.00  0.00    +0.000 OA
BRANCH   8  10
ATOM      9  C   UNL     1       2.849   2.999  17.388  0.00  0.00    +0.000 C 
ATOM     10  C   UNL     1       1.616   3.530  18.096  0.00  0.00    +0.000 C 
ENDBRANCH   8  10
ENDBRANCH   6   8
ENDBRANCH   5   6
BRANCH   5  11
ATOM     11  C   UNL     1       3.509   7.042  17.862  0.00  0.00    +0.000 C 
BRANCH  11  12
ATOM     12  C   UNL     1       4.740   6.189  17.637  0.00  0.00    +0.000 A 
ATOM     13  C   UNL     1       5.423   5.648  18.735  0.00  0.00    +0.000 A 
ATOM     14  C   UNL     1       6.614   4.947  18.563  0.00  0.00    +0.000 A 
ATOM     15  C   UNL     1       7.101   4.710  17.280  0.00  0.00    +0.000 A 
ATOM     16  C   UNL     1       6.373   5.139  16.166  0.00  0.00    +0.000 A 
ATOM     17  C   UNL     1       5.214   5.910  16.346  0.00  0.00    +0.000 A 
BRANCH  16  18
ATOM     18  C   UNL     1       6.799   4.722  14.800  0.00  0.00    +0.000 C 
ATOM     19  N   UNL     1       6.331   3.666  14.210  0.00  0.00    +0.000 NA
ATOM     20  N   UNL     1       7.702   5.448  14.086  0.00  0.00    +0.000 N 
ATOM     21  H   UNL     1       5.614   3.207  14.776  0.00  0.00    +0.000 HD
ATOM     22  H   UNL     1       8.486   5.809  14.609  0.00  0.00    +0.000 HD
ATOM     23  H   UNL     1       7.996   4.927  13.264  0.00  0.00    +0.000 HD
ENDBRANCH  16  18
ENDBRANCH  11  12
ENDBRANCH   5  11
ENDBRANCH   1   5
BRANCH   2  24
ATOM     24  C   UNL     1       0.237   9.306  20.731  0.00  0.00    +0.000 C 
BRANCH  24  25
ATOM     25  N   UNL     1       0.739  10.660  20.448  0.00  0.00    +0.000 NA
ATOM     26  H   UNL     1       1.609  10.943  20.902  0.00  0.00    +0.000 HD
BRANCH  25  27
ATOM     27  S   UNL     1       0.595  11.243  18.882  0.00  0.00    +0.000 S 
ATOM     28  O   UNL     1       1.078  12.607  18.908  0.00  0.00    +0.000 OA
ATOM     29  O   UNL     1       1.147  10.255  17.992  0.00  0.00    +0.000 OA
BRANCH  27  30
ATOM     30  C   UNL     1      -1.166  11.314  18.635  0.00  0.00    +0.000 A 
ATOM     31  C   UNL     1      -1.754  10.527  17.644  0.00  0.00    +0.000 A 
ATOM     32  C   UNL     1      -3.141  10.578  17.452  0.00  0.00    +0.000 A 
ATOM     33  C   UNL     1      -3.953  11.399  18.257  0.00  0.00    +0.000 A 
ATOM     34  C   UNL     1      -3.347  12.153  19.274  0.00  0.00    +0.000 A 
ATOM     35  C   UNL     1      -1.956  12.118  19.459  0.00  0.00    +0.000 A 
BRANCH  33  36
ATOM     36  C   UNL     1      -5.427  11.413  18.014  0.00  0.00    +0.000 C 
ATOM     37  N   UNL     1      -5.971  11.791  16.905  0.00  0.00    +0.000 NA
ATOM     38  H   UNL     1      -5.282  12.033  16.193  0.00  0.00    +0.000 HD
BRANCH  36  39
ATOM     39  S   UNL     1      -6.547  10.931  19.276  0.00  0.00    +0.000 S 
ATOM     40  H   UNL     1      -7.283  10.036  18.613  0.00  0.00    +0.000 HD
ENDBRANCH  36  39
ENDBRANCH  33  36
ENDBRANCH  27  30
ENDBRANCH  25  27
ENDBRANCH  24  25
ENDBRANCH   2  24
TORSDOF 13
ENDMDL
MODEL 3
REMARK VINA RESULT:      -7.7      2.964      3.987
REMARK  Name = 
REMARK  14 active torsions:
REMARK  status: ('A' for Active; 'I' for Inactive)
REMARK    1  A    between atoms: C_1  and  C_2
REMARK    2  A    between atoms: C_2  and  O_3
REMARK    3  A    between atoms: O_3  and  C_4
REMARK    4  A    between atoms: C_4  and  C_6
REMARK    5  A    between atoms: C_6  and  C_7
REMARK    6  A    between atoms: C_6  and  N_17
REMARK    7  A    between atoms: C_7  and  C_8
REMARK    8  A    between atoms: C_12  and  C_13
REMARK    9  A    between atoms: C_18  and  C_20
REMARK   10  A    between atoms: C_20  and  N_21
REMARK   11  A    between atoms: N_21  and  S_22
REMARK   12  A    between atoms: S_22  and  C_25
REMARK   13  A    between atoms: C_28  and  C_29
REMARK   14  A    between atoms: C_29  and  S_31
REMARK                            x       y       z     vdW  Elec       q    Type
REMARK                         _______ _______ _______ _____ _____    ______ ____
ROOT
ATOM      1  N   UNL     1       2.468   5.599  17.939  0.00  0.00    +0.000 N 
ATOM      2  C   UNL     1       2.371   6.774  18.653  0.00  0.00    +0.000 C 
ATOM      3  O   UNL     1       2.460   6.815  19.876  0.00  0.00    +0.000 OA
ATOM      4  H   UNL     1       2.354   5.614  16.928  0.00  0.00    +0.000 HD
ENDROOT
BRANCH   1   5
ATOM      5  C   UNL     1       2.695   4.258  18.521  0.00  0.00    +0.000 C 
BRANCH   5   6
ATOM      6  C   UNL     1       1.330   3.542  18.520  0.00  0.00    +0.000 C 
ATOM      7  O   UNL     1       0.509   3.683  17.618  0.00  0.00    +0.000 OA
BRANCH   6   8
ATOM      8  O   UNL     1       1.129   2.787  19.635  0.00  0.00    +0.000 OA
BRANCH   8  10
ATOM      9  C   UNL     1       2.341   2.773  21.740  0.00  0.00    +0.000 C 
ATOM     10  C   UNL     1       1.292   3.469  20.894  0.00  0.00    +0.000 C 
ENDBRANCH   8  10
ENDBRANCH   6   8
ENDBRANCH   5   6
BRANCH   5  11
ATOM     11  C   UNL     1       3.787   3.432  17.807  0.00  0.00    +0.000 C 
BRANCH  11  12
ATOM     12  C   UNL     1       5.022   4.213  17.406  0.00  0.00    +0.000 A 
ATOM     13  C   UNL     1       5.286   4.451  16.051  0.00  0.00    +0.000 A 
ATOM     14  C   UNL     1       6.465   5.076  15.649  0.00  0.00    +0.000 A 
ATOM     15  C   UNL     1       7.363   5.542  16.606  0.00  0.00    +0.000 A 
ATOM     16  C   UNL     1       7.061   5.420  17.966  0.00  0.00    +0.000 A 
ATOM     17  C   UNL     1       5.911   4.723  18.365  0.00  0.00    +0.000 A 
BRANCH  16  18
ATOM     18  C   UNL     1       7.932   6.084  18.977  0.00  0.00    +0.000 C 
ATOM     19  N   UNL     1       8.402   7.283  18.821  0.00  0.00    +0.000 NA
ATOM     20  N   UNL     1       8.268   5.464  20.141  0.00  0.00    +0.000 N 
ATOM     21  H   UNL     1       8.059   7.710  17.957  0.00  0.00    +0.000 HD
ATOM     22  H   UNL     1       8.494   4.483  20.066  0.00  0.00    +0.000 HD
ATOM     23  H   UNL     1       8.995   5.991  20.620  0.00  0.00    +0.000 HD
ENDBRANCH  16  18
ENDBRANCH  11  12
ENDBRANCH   5  11
ENDBRANCH   1   5
BRANCH   2  24
ATOM     24  C   UNL     1       2.190   8.022  17.780  0.00  0.00    +0.000 C 
BRANCH  24  25
ATOM     25  N   UNL     1       2.212   9.258  18.579  0.00  0.00    +0.000 NA
ATOM     26  H   UNL     1       2.970   9.918  18.401  0.00  0.00    +0.000 HD
BRANCH  25  27
ATOM     27  S   UNL     1       0.750  10.008  18.911  0.00  0.00    +0.000 S 
ATOM     28  O   UNL     1      -0.109   9.752  17.774  0.00  0.00    +0.000 OA
ATOM     29  O   UNL     1       0.366   9.652  20.252  0.00  0.00    +0.000 OA
BRANCH  27  30
ATOM     30  C   UNL     1       1.164  11.739  18.876  0.00  0.00    +0.000 A 
ATOM     31  C   UNL     1       2.325  12.156  18.225  0.00  0.00    +0.000 A 
ATOM     32  C   UNL     1       2.650  13.518  18.193  0.00  0.00    +0.000 A 
ATOM     33  C   UNL     1       1.811  14.476  18.792  0.00  0.00    +0.000 A 
ATOM     34  C   UNL     1       0.627  14.041  19.407  0.00  0.00    +0.000 A 
ATOM     35  C   UNL     1       0.306  12.676  19.457  0.00  0.00    +0.000 A 
BRANCH  33  36
ATOM     36  C   UNL     1       2.200  15.917  18.725  0.00  0.00    +0.000 C 
ATOM     37  N   UNL     1       1.453  16.844  18.224  0.00  0.00    +0.000 NA
ATOM     38  H   UNL     1       0.544  16.493  17.921  0.00  0.00    +0.000 HD
BRANCH  36  39
ATOM     39  S   UNL     1       3.765  16.449  19.313  0.00  0.00    +0.000 S 
ATOM     40  H   UNL     1       3.457  17.678  19.732  0.00  0.00    +0.000 HD
ENDBRANCH  36  39
ENDBRANCH  33  36
ENDBRANCH  27  30
ENDBRANCH  25  27
ENDBRANCH  24  25
ENDBRANCH   2  24
TORSDOF 13
ENDMDL
MODEL 4
REMARK VINA RESULT:      -7.7      2.662      3.182
REMARK  Name = 
REMARK  14 active torsions:
REMARK  status: ('A' for Active; 'I' for Inactive)
REMARK    1  A    between atoms: C_1  and  C_2
REMARK    2  A    between atoms: C_2  and  O_3
REMARK    3  A    between atoms: O_3  and  C_4
REMARK    4  A    between atoms: C_4  and  C_6
REMARK    5  A    between atoms: C_6  and  C_7
REMARK    6  A    between atoms: C_6  and  N_17
REMARK    7  A    between atoms: C_7  and  C_8
REMARK    8  A    between atoms: C_12  and  C_13
REMARK    9  A    between atoms: C_18  and  C_20
REMARK   10  A    between atoms: C_20  and  N_21
REMARK   11  A    between atoms: N_21  and  S_22
REMARK   12  A    between atoms: S_22  and  C_25
REMARK   13  A    between atoms: C_28  and  C_29
REMARK   14  A    between atoms: C_29  and  S_31
REMARK                            x       y       z     vdW  Elec       q    Type
REMARK                         _______ _______ _______ _____ _____    ______ ____
ROOT
ATOM      1  N   UNL     1       1.993   6.979  19.345  0.00  0.00    +0.000 N 
ATOM      2  C   UNL     1       2.189   8.171  18.681  0.00  0.00    +0.000 C 
ATOM      3  O   UNL     1       3.137   8.362  17.927  0.00  0.00    +0.000 OA
ATOM      4  H   UNL     1       1.208   6.882  19.984  0.00  0.00    +0.000 HD
ENDROOT
BRANCH   1   5
ATOM      5  C   UNL     1       2.864   5.788  19.242  0.00  0.00    +0.000 C 
BRANCH   5   6
ATOM      6  C   UNL     1       2.207   4.688  20.099  0.00  0.00    +0.000 C 
ATOM      7  O   UNL     1       1.138   4.852  20.681  0.00  0.00    +0.000 OA
BRANCH   6   8
ATOM      8  O   UNL     1       2.957   3.554  20.169  0.00  0.00    +0.000 OA
BRANCH   8  10
ATOM      9  C   UNL     1       3.387   1.725  18.628  0.00  0.00    +0.000 C 
ATOM     10  C   UNL     1       2.383   2.383  19.556  0.00  0.00    +0.000 C 
ENDBRANCH   8  10
ENDBRANCH   6   8
ENDBRANCH   5   6
BRANCH   5  11
ATOM     11  C   UNL     1       3.131   5.318  17.795  0.00  0.00    +0.000 C 
BRANCH  11  12
ATOM     12  C   UNL     1       4.589   5.097  17.451  0.00  0.00    +0.000 A 
ATOM     13  C   UNL     1       5.535   4.969  18.478  0.00  0.00    +0.000 A 
ATOM     14  C   UNL     1       6.895   4.868  18.190  0.00  0.00    +0.000 A 
ATOM     15  C   UNL     1       7.322   4.815  16.866  0.00  0.00    +0.000 A 
ATOM     16  C   UNL     1       6.384   4.820  15.829  0.00  0.00    +0.000 A 
ATOM     17  C   UNL     1       5.023   4.999  16.120  0.00  0.00    +0.000 A 
BRANCH  16  18
ATOM     18  C   UNL     1       6.832   4.575  14.428  0.00  0.00    +0.000 C 
ATOM     19  N   UNL     1       6.368   3.606  13.702  0.00  0.00    +0.000 NA
ATOM     20  N   UNL     1       7.749   5.379  13.826  0.00  0.00    +0.000 N 
ATOM     21  H   UNL     1       5.639   3.083  14.195  0.00  0.00    +0.000 HD
ATOM     22  H   UNL     1       8.527   5.666  14.402  0.00  0.00    +0.000 HD
ATOM     23  H   UNL     1       8.055   4.964  12.949  0.00  0.00    +0.000 HD
ENDBRANCH  16  18
ENDBRANCH  11  12
ENDBRANCH   5  11
ENDBRANCH   1   5
BRANCH   2  24
ATOM     24  C   UNL     1       1.092   9.214  18.935  0.00  0.00    +0.000 C 
BRANCH  24  25
ATOM     25  N   UNL     1       1.367  10.018  20.136  0.00  0.00    +0.000 NA
ATOM     26  H   UNL     1       1.390  11.033  20.026  0.00  0.00    +0.000 HD
BRANCH  25  27
ATOM     27  S   UNL     1       0.682   9.529  21.586  0.00  0.00    +0.000 S 
ATOM     28  O   UNL     1      -0.043   8.309  21.305  0.00  0.00    +0.000 OA
ATOM     29  O   UNL     1       1.703   9.594  22.599  0.00  0.00    +0.000 OA
BRANCH  27  30
ATOM     30  C   UNL     1      -0.526  10.795  21.912  0.00  0.00    +0.000 A 
ATOM     31  C   UNL     1      -0.784  11.766  20.945  0.00  0.00    +0.000 A 
ATOM     32  C   UNL     1      -1.738  12.760  21.198  0.00  0.00    +0.000 A 
ATOM     33  C   UNL     1      -2.456  12.782  22.409  0.00  0.00    +0.000 A 
ATOM     34  C   UNL     1      -2.210  11.773  23.353  0.00  0.00    +0.000 A 
ATOM     35  C   UNL     1      -1.243  10.786  23.110  0.00  0.00    +0.000 A 
BRANCH  33  36
ATOM     36  C   UNL     1      -3.466  13.861  22.627  0.00  0.00    +0.000 C 
ATOM     37  N   UNL     1      -4.042  14.091  23.761  0.00  0.00    +0.000 NA
ATOM     38  H   UNL     1      -3.696  13.486  24.505  0.00  0.00    +0.000 HD
BRANCH  36  39
ATOM     39  S   UNL     1      -3.973  14.894  21.302  0.00  0.00    +0.000 S 
ATOM     40  H   UNL     1      -4.676  15.810  21.971  0.00  0.00    +0.000 HD
ENDBRANCH  36  39
ENDBRANCH  33  36
ENDBRANCH  27  30
ENDBRANCH  25  27
ENDBRANCH  24  25
ENDBRANCH   2  24
TORSDOF 13
ENDMDL
MODEL 5
REMARK VINA RESULT:      -7.6      1.302      1.779
REMARK  Name = 
REMARK  14 active torsions:
REMARK  status: ('A' for Active; 'I' for Inactive)
REMARK    1  A    between atoms: C_1  and  C_2
REMARK    2  A    between atoms: C_2  and  O_3
REMARK    3  A    between atoms: O_3  and  C_4
REMARK    4  A    between atoms: C_4  and  C_6
REMARK    5  A    between atoms: C_6  and  C_7
REMARK    6  A    between atoms: C_6  and  N_17
REMARK    7  A    between atoms: C_7  and  C_8
REMARK    8  A    between atoms: C_12  and  C_13
REMARK    9  A    between atoms: C_18  and  C_20
REMARK   10  A    between atoms: C_20  and  N_21
REMARK   11  A    between atoms: N_21  and  S_22
REMARK   12  A    between atoms: S_22  and  C_25
REMARK   13  A    between atoms: C_28  and  C_29
REMARK   14  A    between atoms: C_29  and  S_31
REMARK                            x       y       z     vdW  Elec       q    Type
REMARK                         _______ _______ _______ _____ _____    ______ ____
ROOT
ATOM      1  N   UNL     1       1.841   7.363  19.166  0.00  0.00    +0.000 N 
ATOM      2  C   UNL     1       1.514   7.755  20.446  0.00  0.00    +0.000 C 
ATOM      3  O   UNL     1       2.145   7.390  21.434  0.00  0.00    +0.000 OA
ATOM      4  H   UNL     1       1.266   7.667  18.384  0.00  0.00    +0.000 HD
ENDROOT
BRANCH   1   5
ATOM      5  C   UNL     1       2.970   6.478  18.803  0.00  0.00    +0.000 C 
BRANCH   5   6
ATOM      6  C   UNL     1       2.356   5.118  18.420  0.00  0.00    +0.000 C 
ATOM      7  O   UNL     1       1.448   5.008  17.600  0.00  0.00    +0.000 OA
BRANCH   6   8
ATOM      8  O   UNL     1       2.897   4.079  19.115  0.00  0.00    +0.000 OA
BRANCH   8  10
ATOM      9  C   UNL     1       1.226   3.826  20.859  0.00  0.00    +0.000 C 
ATOM     10  C   UNL     1       1.956   3.162  19.706  0.00  0.00    +0.000 C 
ENDBRANCH   8  10
ENDBRANCH   6   8
ENDBRANCH   5   6
BRANCH   5  11
ATOM     11  C   UNL     1       3.885   7.039  17.692  0.00  0.00    +0.000 C 
BRANCH  11  12
ATOM     12  C   UNL     1       5.095   6.188  17.367  0.00  0.00    +0.000 A 
ATOM     13  C   UNL     1       5.858   5.637  18.405  0.00  0.00    +0.000 A 
ATOM     14  C   UNL     1       7.032   4.937  18.138  0.00  0.00    +0.000 A 
ATOM     15  C   UNL     1       7.421   4.712  16.820  0.00  0.00    +0.000 A 
ATOM     16  C   UNL     1       6.611   5.152  15.768  0.00  0.00    +0.000 A 
ATOM     17  C   UNL     1       5.469   5.921  16.041  0.00  0.00    +0.000 A 
BRANCH  16  18
ATOM     18  C   UNL     1       6.933   4.747  14.370  0.00  0.00    +0.000 C 
ATOM     19  N   UNL     1       7.787   5.387  13.632  0.00  0.00    +0.000 NA
ATOM     20  N   UNL     1       6.353   3.659  13.795  0.00  0.00    +0.000 N 
ATOM     21  H   UNL     1       8.229   6.152  14.148  0.00  0.00    +0.000 HD
ATOM     22  H   UNL     1       5.369   3.536  13.982  0.00  0.00    +0.000 HD
ATOM     23  H   UNL     1       6.559   3.639  12.799  0.00  0.00    +0.000 HD
ENDBRANCH  16  18
ENDBRANCH  11  12
ENDBRANCH   5  11
ENDBRANCH   1   5
BRANCH   2  24
ATOM     24  C   UNL     1       0.326   8.722  20.518  0.00  0.00    +0.000 C 
BRANCH  24  25
ATOM     25  N   UNL     1       0.750  10.124  20.382  0.00  0.00    +0.000 NA
ATOM     26  H   UNL     1       1.562  10.424  20.924  0.00  0.00    +0.000 HD
BRANCH  25  27
ATOM     27  S   UNL     1       0.682  10.825  18.860  0.00  0.00    +0.000 S 
ATOM     28  O   UNL     1       1.163  12.181  19.012  0.00  0.00    +0.000 OA
ATOM     29  O   UNL     1       1.275   9.904  17.924  0.00  0.00    +0.000 OA
BRANCH  27  30
ATOM     30  C   UNL     1      -1.065  10.922  18.535  0.00  0.00    +0.000 A 
ATOM     31  C   UNL     1      -1.843  11.856  19.221  0.00  0.00    +0.000 A 
ATOM     32  C   UNL     1      -3.217  11.937  18.963  0.00  0.00    +0.000 A 
ATOM     33  C   UNL     1      -3.824  11.102  18.006  0.00  0.00    +0.000 A 
ATOM     34  C   UNL     1      -3.018  10.196  17.298  0.00  0.00    +0.000 A 
ATOM     35  C   UNL     1      -1.644  10.100  17.566  0.00  0.00    +0.000 A 
BRANCH  33  36
ATOM     36  C   UNL     1      -5.292  11.232  17.765  0.00  0.00    +0.000 C 
ATOM     37  N   UNL     1      -5.805  11.859  16.759  0.00  0.00    +0.000 NA
ATOM     38  H   UNL     1      -5.097  12.216  16.118  0.00  0.00    +0.000 HD
BRANCH  36  39
ATOM     39  S   UNL     1      -6.448  10.544  18.892  0.00  0.00    +0.000 S 
ATOM     40  H   UNL     1      -7.376  10.101  18.041  0.00  0.00    +0.000 HD
ENDBRANCH  36  39
ENDBRANCH  33  36
ENDBRANCH  27  30
ENDBRANCH  25  27
ENDBRANCH  24  25
ENDBRANCH   2  24
TORSDOF 13
ENDMDL
MODEL 6
REMARK VINA RESULT:      -7.6      0.748      1.125
REMARK  Name = 
REMARK  14 active torsions:
REMARK  status: ('A' for Active; 'I' for Inactive)
REMARK    1  A    between atoms: C_1  and  C_2
REMARK    2  A    between atoms: C_2  and  O_3
REMARK    3  A    between atoms: O_3  and  C_4
REMARK    4  A    between atoms: C_4  and  C_6
REMARK    5  A    between atoms: C_6  and  C_7
REMARK    6  A    between atoms: C_6  and  N_17
REMARK    7  A    between atoms: C_7  and  C_8
REMARK    8  A    between atoms: C_12  and  C_13
REMARK    9  A    between atoms: C_18  and  C_20
REMARK   10  A    between atoms: C_20  and  N_21
REMARK   11  A    between atoms: N_21  and  S_22
REMARK   12  A    between atoms: S_22  and  C_25
REMARK   13  A    between atoms: C_28  and  C_29
REMARK   14  A    between atoms: C_29  and  S_31
REMARK                            x       y       z     vdW  Elec       q    Type
REMARK                         _______ _______ _______ _____ _____    ______ ____
ROOT
ATOM      1  N   UNL     1       3.295   6.026  18.650  0.00  0.00    +0.000 N 
ATOM      2  C   UNL     1       2.480   7.035  19.114  0.00  0.00    +0.000 C 
ATOM      3  O   UNL     1       1.779   6.915  20.114  0.00  0.00    +0.000 OA
ATOM      4  H   UNL     1       3.833   6.164  17.797  0.00  0.00    +0.000 HD
ENDROOT
BRANCH   1   5
ATOM      5  C   UNL     1       3.448   4.692  19.273  0.00  0.00    +0.000 C 
BRANCH   5   6
ATOM      6  C   UNL     1       2.485   3.747  18.530  0.00  0.00    +0.000 C 
ATOM      7  O   UNL     1       1.962   4.043  17.458  0.00  0.00    +0.000 OA
BRANCH   6   8
ATOM      8  O   UNL     1       2.251   2.590  19.209  0.00  0.00    +0.000 OA
BRANCH   8  10
ATOM      9  C   UNL     1       1.607   2.659  21.550  0.00  0.00    +0.000 C 
ATOM     10  C   UNL     1       1.128   2.608  20.111  0.00  0.00    +0.000 C 
ENDBRANCH   8  10
ENDBRANCH   6   8
ENDBRANCH   5   6
BRANCH   5  11
ATOM     11  C   UNL     1       4.898   4.158  19.283  0.00  0.00    +0.000 C 
BRANCH  11  12
ATOM     12  C   UNL     1       5.844   4.856  18.329  0.00  0.00    +0.000 A 
ATOM     13  C   UNL     1       6.707   5.852  18.807  0.00  0.00    +0.000 A 
ATOM     14  C   UNL     1       7.514   6.580  17.935  0.00  0.00    +0.000 A 
ATOM     15  C   UNL     1       7.526   6.270  16.578  0.00  0.00    +0.000 A 
ATOM     16  C   UNL     1       6.761   5.201  16.099  0.00  0.00    +0.000 A 
ATOM     17  C   UNL     1       5.893   4.520  16.967  0.00  0.00    +0.000 A 
BRANCH  16  18
ATOM     18  C   UNL     1       6.919   4.756  14.685  0.00  0.00    +0.000 C 
ATOM     19  N   UNL     1       7.699   5.359  13.842  0.00  0.00    +0.000 NA
ATOM     20  N   UNL     1       6.259   3.667  14.206  0.00  0.00    +0.000 N 
ATOM     21  H   UNL     1       8.209   6.126  14.286  0.00  0.00    +0.000 HD
ATOM     22  H   UNL     1       5.299   3.570  14.503  0.00  0.00    +0.000 HD
ATOM     23  H   UNL     1       6.354   3.619  13.194  0.00  0.00    +0.000 HD
ENDBRANCH  16  18
ENDBRANCH  11  12
ENDBRANCH   5  11
ENDBRANCH   1   5
BRANCH   2  24
ATOM     24  C   UNL     1       2.565   8.331  18.297  0.00  0.00    +0.000 C 
BRANCH  24  25
ATOM     25  N   UNL     1       1.274   9.035  18.249  0.00  0.00    +0.000 NA
ATOM     26  H   UNL     1       0.427   8.465  18.275  0.00  0.00    +0.000 HD
BRANCH  25  27
ATOM     27  S   UNL     1       1.127  10.471  19.103  0.00  0.00    +0.000 S 
ATOM     28  O   UNL     1       1.367  10.146  20.493  0.00  0.00    +0.000 OA
ATOM     29  O   UNL     1       1.892  11.475  18.411  0.00  0.00    +0.000 OA
BRANCH  27  30
ATOM     30  C   UNL     1      -0.602  10.862  18.947  0.00  0.00    +0.000 A 
ATOM     31  C   UNL     1      -1.148  11.892  19.713  0.00  0.00    +0.000 A 
ATOM     32  C   UNL     1      -2.507  12.204  19.587  0.00  0.00    +0.000 A 
ATOM     33  C   UNL     1      -3.329  11.505  18.683  0.00  0.00    +0.000 A 
ATOM     34  C   UNL     1      -2.753  10.499  17.893  0.00  0.00    +0.000 A 
ATOM     35  C   UNL     1      -1.396  10.172  18.028  0.00  0.00    +0.000 A 
BRANCH  33  36
ATOM     36  C   UNL     1      -4.772  11.881  18.584  0.00  0.00    +0.000 C 
ATOM     37  N   UNL     1      -5.558  11.999  19.602  0.00  0.00    +0.000 NA
ATOM     38  H   UNL     1      -5.075  11.855  20.489  0.00  0.00    +0.000 HD
BRANCH  36  39
ATOM     39  S   UNL     1      -5.518  12.161  17.021  0.00  0.00    +0.000 S 
ATOM     40  H   UNL     1      -6.800  12.252  17.381  0.00  0.00    +0.000 HD
ENDBRANCH  36  39
ENDBRANCH  33  36
ENDBRANCH  27  30
ENDBRANCH  25  27
ENDBRANCH  24  25
ENDBRANCH   2  24
TORSDOF 13
ENDMDL
MODEL 7
REMARK VINA RESULT:      -7.5      6.294      9.023
REMARK  Name = 
REMARK  14 active torsions:
REMARK  status: ('A' for Active; 'I' for Inactive)
REMARK    1  A    between atoms: C_1  and  C_2
REMARK    2  A    between atoms: C_2  and  O_3
REMARK    3  A    between atoms: O_3  and  C_4
REMARK    4  A    between atoms: C_4  and  C_6
REMARK    5  A    between atoms: C_6  and  C_7
REMARK    6  A    between atoms: C_6  and  N_17
REMARK    7  A    between atoms: C_7  and  C_8
REMARK    8  A    between atoms: C_12  and  C_13
REMARK    9  A    between atoms: C_18  and  C_20
REMARK   10  A    between atoms: C_20  and  N_21
REMARK   11  A    between atoms: N_21  and  S_22
REMARK   12  A    between atoms: S_22  and  C_25
REMARK   13  A    between atoms: C_28  and  C_29
REMARK   14  A    between atoms: C_29  and  S_31
REMARK                            x       y       z     vdW  Elec       q    Type
REMARK                         _______ _______ _______ _____ _____    ______ ____
ROOT
ATOM      1  N   UNL     1       7.932   7.219  18.347  0.00  0.00    +0.000 N 
ATOM      2  C   UNL     1       7.986   8.538  17.953  0.00  0.00    +0.000 C 
ATOM      3  O   UNL     1       7.149   9.044  17.212  0.00  0.00    +0.000 OA
ATOM      4  H   UNL     1       8.669   6.839  18.937  0.00  0.00    +0.000 HD
ENDROOT
BRANCH   1   5
ATOM      5  C   UNL     1       6.887   6.248  17.953  0.00  0.00    +0.000 C 
BRANCH   5   6
ATOM      6  C   UNL     1       7.573   5.208  17.047  0.00  0.00    +0.000 C 
ATOM      7  O   UNL     1       8.210   4.257  17.494  0.00  0.00    +0.000 OA
BRANCH   6   8
ATOM      8  O   UNL     1       7.430   5.485  15.722  0.00  0.00    +0.000 OA
BRANCH   8  10
ATOM      9  C   UNL     1       6.106   4.025  14.301  0.00  0.00    +0.000 C 
ATOM     10  C   UNL     1       6.116   5.267  15.173  0.00  0.00    +0.000 C 
ENDBRANCH   8  10
ENDBRANCH   6   8
ENDBRANCH   5   6
BRANCH   5  11
ATOM     11  C   UNL     1       6.149   5.592  19.141  0.00  0.00    +0.000 C 
BRANCH  11  12
ATOM     12  C   UNL     1       4.744   5.116  18.838  0.00  0.00    +0.000 A 
ATOM     13  C   UNL     1       3.759   6.042  18.468  0.00  0.00    +0.000 A 
ATOM     14  C   UNL     1       2.436   5.646  18.284  0.00  0.00    +0.000 A 
ATOM     15  C   UNL     1       2.093   4.301  18.394  0.00  0.00    +0.000 A 
ATOM     16  C   UNL     1       3.083   3.345  18.646  0.00  0.00    +0.000 A 
ATOM     17  C   UNL     1       4.399   3.756  18.905  0.00  0.00    +0.000 A 
BRANCH  16  18
ATOM     18  C   UNL     1       2.743   1.895  18.576  0.00  0.00    +0.000 C 
ATOM     19  N   UNL     1       1.534   1.449  18.719  0.00  0.00    +0.000 NA
ATOM     20  N   UNL     1       3.697   0.954  18.338  0.00  0.00    +0.000 N 
ATOM     21  H   UNL     1       0.863   2.214  18.830  0.00  0.00    +0.000 HD
ATOM     22  H   UNL     1       4.576   1.091  18.814  0.00  0.00    +0.000 HD
ATOM     23  H   UNL     1       3.316   0.024  18.496  0.00  0.00    +0.000 HD
ENDBRANCH  16  18
ENDBRANCH  11  12
ENDBRANCH   5  11
ENDBRANCH   1   5
BRANCH   2  24
ATOM     24  C   UNL     1       9.154   9.324  18.563  0.00  0.00    +0.000 C 
BRANCH  24  25
ATOM     25  N   UNL     1       8.818  10.744  18.757  0.00  0.00    +0.000 NA
ATOM     26  H   UNL     1       8.041  10.961  19.383  0.00  0.00    +0.000 HD
BRANCH  25  27
ATOM     27  S   UNL     1      10.077  11.845  18.866  0.00  0.00    +0.000 S 
ATOM     28  O   UNL     1      11.273  11.073  19.129  0.00  0.00    +0.000 OA
ATOM     29  O   UNL     1       9.979  12.739  17.742  0.00  0.00    +0.000 OA
BRANCH  27  30
ATOM     30  C   UNL     1       9.699  12.750  20.351  0.00  0.00    +0.000 A 
ATOM     31  C   UNL     1       9.846  14.138  20.367  0.00  0.00    +0.000 A 
ATOM     32  C   UNL     1       9.544  14.852  21.534  0.00  0.00    +0.000 A 
ATOM     33  C   UNL     1       9.075  14.192  22.685  0.00  0.00    +0.000 A 
ATOM     34  C   UNL     1       8.896  12.801  22.636  0.00  0.00    +0.000 A 
ATOM     35  C   UNL     1       9.214  12.080  21.475  0.00  0.00    +0.000 A 
BRANCH  33  36
ATOM     36  C   UNL     1       8.762  15.002  23.902  0.00  0.00    +0.000 C 
ATOM     37  N   UNL     1       7.698  14.847  24.617  0.00  0.00    +0.000 NA
ATOM     38  H   UNL     1       7.115  14.077  24.289  0.00  0.00    +0.000 HD
BRANCH  36  39
ATOM     39  S   UNL     1       9.845  16.278  24.430  0.00  0.00    +0.000 S 
ATOM     40  H   UNL     1       9.733  16.153  25.754  0.00  0.00    +0.000 HD
ENDBRANCH  36  39
ENDBRANCH  33  36
ENDBRANCH  27  30
ENDBRANCH  25  27
ENDBRANCH  24  25
ENDBRANCH   2  24
TORSDOF 13
ENDMDL
MODEL 8
REMARK VINA RESULT:      -7.5      1.420      1.664
REMARK  Name = 
REMARK  14 active torsions:
REMARK  status: ('A' for Active; 'I' for Inactive)
REMARK    1  A    between atoms: C_1  and  C_2
REMARK    2  A    between atoms: C_2  and  O_3
REMARK    3  A    between atoms: O_3  and  C_4
REMARK    4  A    between atoms: C_4  and  C_6
REMARK    5  A    between atoms: C_6  and  C_7
REMARK    6  A    between atoms: C_6  and  N_17
REMARK    7  A    between atoms: C_7  and  C_8
REMARK    8  A    between atoms: C_12  and  C_13
REMARK    9  A    between atoms: C_18  and  C_20
REMARK   10  A    between atoms: C_20  and  N_21
REMARK   11  A    between atoms: N_21  and  S_22
REMARK   12  A    between atoms: S_22  and  C_25
REMARK   13  A    between atoms: C_28  and  C_29
REMARK   14  A    between atoms: C_29  and  S_31
REMARK                            x       y       z     vdW  Elec       q    Type
REMARK                         _______ _______ _______ _____ _____    ______ ____
ROOT
ATOM      1  N   UNL     1       2.241   6.902  19.064  0.00  0.00    +0.000 N 
ATOM      2  C   UNL     1       2.614   7.961  18.265  0.00  0.00    +0.000 C 
ATOM      3  O   UNL     1       3.499   7.874  17.420  0.00  0.00    +0.000 OA
ATOM      4  H   UNL     1       1.523   7.034  19.772  0.00  0.00    +0.000 HD
ENDROOT
BRANCH   1   5
ATOM      5  C   UNL     1       2.826   5.544  19.016  0.00  0.00    +0.000 C 
BRANCH   5   6
ATOM      6  C   UNL     1       1.853   4.619  19.772  0.00  0.00    +0.000 C 
ATOM      7  O   UNL     1       1.247   4.976  20.779  0.00  0.00    +0.000 OA
BRANCH   6   8
ATOM      8  O   UNL     1       1.779   3.372  19.230  0.00  0.00    +0.000 OA
BRANCH   8  10
ATOM      9  C   UNL     1       3.384   1.645  18.644  0.00  0.00    +0.000 C 
ATOM     10  C   UNL     1       2.696   2.399  19.767  0.00  0.00    +0.000 C 
ENDBRANCH   8  10
ENDBRANCH   6   8
ENDBRANCH   5   6
BRANCH   5  11
ATOM     11  C   UNL     1       3.128   5.032  17.590  0.00  0.00    +0.000 C 
BRANCH  11  12
ATOM     12  C   UNL     1       4.598   4.880  17.261  0.00  0.00    +0.000 A 
ATOM     13  C   UNL     1       5.529   4.710  18.295  0.00  0.00    +0.000 A 
ATOM     14  C   UNL     1       6.896   4.670  18.029  0.00  0.00    +0.000 A 
ATOM     15  C   UNL     1       7.349   4.722  16.713  0.00  0.00    +0.000 A 
ATOM     16  C   UNL     1       6.430   4.772  15.660  0.00  0.00    +0.000 A 
ATOM     17  C   UNL     1       5.059   4.888  15.935  0.00  0.00    +0.000 A 
BRANCH  16  18
ATOM     18  C   UNL     1       6.910   4.639  14.255  0.00  0.00    +0.000 C 
ATOM     19  N   UNL     1       7.816   5.415  13.745  0.00  0.00    +0.000 NA
ATOM     20  N   UNL     1       6.430   3.670  13.429  0.00  0.00    +0.000 N 
ATOM     21  H   UNL     1       8.176   6.076  14.438  0.00  0.00    +0.000 HD
ATOM     22  H   UNL     1       5.436   3.502  13.482  0.00  0.00    +0.000 HD
ATOM     23  H   UNL     1       6.740   3.839  12.475  0.00  0.00    +0.000 HD
ENDBRANCH  16  18
ENDBRANCH  11  12
ENDBRANCH   5  11
ENDBRANCH   1   5
BRANCH   2  24
ATOM     24  C   UNL     1       1.795   9.237  18.497  0.00  0.00    +0.000 C 
BRANCH  24  25
ATOM     25  N   UNL     1       1.103   9.216  19.795  0.00  0.00    +0.000 NA
ATOM     26  H   UNL     1       1.505   8.634  20.532  0.00  0.00    +0.000 HD
BRANCH  25  27
ATOM     27  S   UNL     1       0.461  10.655  20.370  0.00  0.00    +0.000 S 
ATOM     28  O   UNL     1      -0.000  10.388  21.715  0.00  0.00    +0.000 OA
ATOM     29  O   UNL     1       1.404  11.704  20.080  0.00  0.00    +0.000 OA
BRANCH  27  30
ATOM     30  C   UNL     1      -0.983  10.889  19.357  0.00  0.00    +0.000 A 
ATOM     31  C   UNL     1      -1.117  10.167  18.171  0.00  0.00    +0.000 A 
ATOM     32  C   UNL     1      -2.255  10.346  17.375  0.00  0.00    +0.000 A 
ATOM     33  C   UNL     1      -3.277  11.232  17.763  0.00  0.00    +0.000 A 
ATOM     34  C   UNL     1      -3.143  11.920  18.979  0.00  0.00    +0.000 A 
ATOM     35  C   UNL     1      -1.996  11.756  19.771  0.00  0.00    +0.000 A 
BRANCH  33  36
ATOM     36  C   UNL     1      -4.473  11.384  16.881  0.00  0.00    +0.000 C 
ATOM     37  N   UNL     1      -4.559  10.887  15.691  0.00  0.00    +0.000 NA
ATOM     38  H   UNL     1      -3.738  10.337  15.437  0.00  0.00    +0.000 HD
BRANCH  36  39
ATOM     39  S   UNL     1      -5.868  12.306  17.413  0.00  0.00    +0.000 S 
ATOM     40  H   UNL     1      -5.647  12.334  18.729  0.00  0.00    +0.000 HD
ENDBRANCH  36  39
ENDBRANCH  33  36
ENDBRANCH  27  30
ENDBRANCH  25  27
ENDBRANCH  24  25
ENDBRANCH   2  24
TORSDOF 13
ENDMDL
MODEL 9
REMARK VINA RESULT:      -7.5      2.755      3.446
REMARK  Name = 
REMARK  14 active torsions:
REMARK  status: ('A' for Active; 'I' for Inactive)
REMARK    1  A    between atoms: C_1  and  C_2
REMARK    2  A    between atoms: C_2  and  O_3
REMARK    3  A    between atoms: O_3  and  C_4
REMARK    4  A    between atoms: C_4  and  C_6
REMARK    5  A    between atoms: C_6  and  C_7
REMARK    6  A    between atoms: C_6  and  N_17
REMARK    7  A    between atoms: C_7  and  C_8
REMARK    8  A    between atoms: C_12  and  C_13
REMARK    9  A    between atoms: C_18  and  C_20
REMARK   10  A    between atoms: C_20  and  N_21
REMARK   11  A    between atoms: N_21  and  S_22
REMARK   12  A    between atoms: S_22  and  C_25
REMARK   13  A    between atoms: C_28  and  C_29
REMARK   14  A    between atoms: C_29  and  S_31
REMARK                            x       y       z     vdW  Elec       q    Type
REMARK                         _______ _______ _______ _____ _____    ______ ____
ROOT
ATOM      1  N   UNL     1       1.852   8.068  19.250  0.00  0.00    +0.000 N 
ATOM      2  C   UNL     1       1.439   8.494  20.494  0.00  0.00    +0.000 C 
ATOM      3  O   UNL     1       1.912   8.052  21.537  0.00  0.00    +0.000 OA
ATOM      4  H   UNL     1       1.405   8.443  18.416  0.00  0.00    +0.000 HD
ENDROOT
BRANCH   1   5
ATOM      5  C   UNL     1       2.898   7.054  18.995  0.00  0.00    +0.000 C 
BRANCH   5   6
ATOM      6  C   UNL     1       2.216   5.678  19.124  0.00  0.00    +0.000 C 
ATOM      7  O   UNL     1       2.153   5.067  20.188  0.00  0.00    +0.000 OA
BRANCH   6   8
ATOM      8  O   UNL     1       1.742   5.209  17.937  0.00  0.00    +0.000 OA
BRANCH   8  10
ATOM      9  C   UNL     1       2.898   3.184  17.255  0.00  0.00    +0.000 C 
ATOM     10  C   UNL     1       1.625   3.777  17.830  0.00  0.00    +0.000 C 
ENDBRANCH   8  10
ENDBRANCH   6   8
ENDBRANCH   5   6
BRANCH   5  11
ATOM     11  C   UNL     1       3.626   7.219  17.643  0.00  0.00    +0.000 C 
BRANCH  11  12
ATOM     12  C   UNL     1       4.816   6.304  17.439  0.00  0.00    +0.000 A 
ATOM     13  C   UNL     1       5.460   5.741  18.550  0.00  0.00    +0.000 A 
ATOM     14  C   UNL     1       6.617   4.980  18.398  0.00  0.00    +0.000 A 
ATOM     15  C   UNL     1       7.104   4.705  17.122  0.00  0.00    +0.000 A 
ATOM     16  C   UNL     1       6.408   5.158  15.997  0.00  0.00    +0.000 A 
ATOM     17  C   UNL     1       5.288   5.987  16.156  0.00  0.00    +0.000 A 
BRANCH  16  18
ATOM     18  C   UNL     1       6.827   4.705  14.639  0.00  0.00    +0.000 C 
ATOM     19  N   UNL     1       6.352   3.637  14.077  0.00  0.00    +0.000 NA
ATOM     20  N   UNL     1       7.729   5.409  13.903  0.00  0.00    +0.000 N 
ATOM     21  H   UNL     1       5.635   3.194  14.659  0.00  0.00    +0.000 HD
ATOM     22  H   UNL     1       8.517   5.780  14.413  0.00  0.00    +0.000 HD
ATOM     23  H   UNL     1       8.017   4.866  13.092  0.00  0.00    +0.000 HD
ENDBRANCH  16  18
ENDBRANCH  11  12
ENDBRANCH   5  11
ENDBRANCH   1   5
BRANCH   2  24
ATOM     24  C   UNL     1       0.376   9.598  20.455  0.00  0.00    +0.000 C 
BRANCH  24  25
ATOM     25  N   UNL     1       0.706  10.711  21.359  0.00  0.00    +0.000 NA
ATOM     26  H   UNL     1       1.606  10.674  21.840  0.00  0.00    +0.000 HD
BRANCH  25  27
ATOM     27  S   UNL     1       0.275  12.263  20.892  0.00  0.00    +0.000 S 
ATOM     28  O   UNL     1       1.159  13.164  21.599  0.00  0.00    +0.000 OA
ATOM     29  O   UNL     1       0.162  12.274  19.456  0.00  0.00    +0.000 OA
BRANCH  27  30
ATOM     30  C   UNL     1      -1.349  12.462  21.593  0.00  0.00    +0.000 A 
ATOM     31  C   UNL     1      -2.415  12.824  20.769  0.00  0.00    +0.000 A 
ATOM     32  C   UNL     1      -3.694  12.976  21.319  0.00  0.00    +0.000 A 
ATOM     33  C   UNL     1      -3.925  12.750  22.690  0.00  0.00    +0.000 A 
ATOM     34  C   UNL     1      -2.847  12.349  23.494  0.00  0.00    +0.000 A 
ATOM     35  C   UNL     1      -1.560  12.212  22.950  0.00  0.00    +0.000 A 
BRANCH  33  36
ATOM     36  C   UNL     1      -5.309  12.922  23.225  0.00  0.00    +0.000 C 
ATOM     37  N   UNL     1      -5.607  12.878  24.481  0.00  0.00    +0.000 NA
ATOM     38  H   UNL     1      -4.786  12.761  25.074  0.00  0.00    +0.000 HD
BRANCH  36  39
ATOM     39  S   UNL     1      -6.664  13.169  22.138  0.00  0.00    +0.000 S 
ATOM     40  H   UNL     1      -7.615  13.501  23.015  0.00  0.00    +0.000 HD
ENDBRANCH  36  39
ENDBRANCH  33  36
ENDBRANCH  27  30
ENDBRANCH  25  27
ENDBRANCH  24  25
ENDBRANCH   2  24
TORSDOF 13
ENDMDL
