MODEL 1
REMARK VINA RESULT:      -8.3      0.000      0.000
REMARK  Name = 
REMARK  12 active torsions:
REMARK  status: ('A' for Active; 'I' for Inactive)
REMARK    1  A    between atoms: C_1  and  C_2
REMARK    2  A    between atoms: N_4  and  C_5
REMARK    3  A    between atoms: N_4  and  C_6
REMARK    4  A    between atoms: C_6  and  C_7
REMARK    5  A    between atoms: C_10  and  S_11
REMARK    6  A    between atoms: S_11  and  C_14
REMARK    7  A    between atoms: C_21  and  C_22
REMARK    8  A    between atoms: C_22  and  C_23
REMARK    9  A    between atoms: C_22  and  C_24
REMARK   10  A    between atoms: C_22  and  C_25
REMARK   11  A    between atoms: N_26  and  C_27
REMARK   12  A    between atoms: C_27  and  C_28
REMARK                            x       y       z     vdW  Elec       q    Type
REMARK                         _______ _______ _______ _____ _____    ______ ____
ROOT
ATOM      1  C   UNL     1       1.232   8.293  20.593  0.00  0.00    +0.000 A 
ATOM      2  C   UNL     1       1.943   8.631  19.429  0.00  0.00    +0.000 A 
ATOM      3  C   UNL     1       2.543   7.629  18.593  0.00  0.00    +0.000 A 
ATOM      4  C   UNL     1       2.447   6.283  19.012  0.00  0.00    +0.000 A 
ATOM      5  C   UNL     1       1.664   6.009  20.143  0.00  0.00    +0.000 A 
ATOM      6  C   UNL     1       1.029   6.971  20.913  0.00  0.00    +0.000 A 
ATOM      7  N   UNL     1       1.652   4.717  20.459  0.00  0.00    +0.000 NA
ATOM      8  C   UNL     1       2.569   4.159  19.714  0.00  0.00    +0.000 A 
ATOM      9  N   UNL     1       2.939   5.028  18.649  0.00  0.00    +0.000 N 
ENDROOT
BRANCH   8  10
ATOM     10  C   UNL     1       2.978   2.745  20.105  0.00  0.00    +0.000 C 
ATOM     11  C   UNL     1       2.166   1.788  19.213  0.00  0.00    +0.000 C 
ATOM     12  C   UNL     1       4.457   2.372  20.065  0.00  0.00    +0.000 C 
ATOM     13  C   UNL     1       2.531   2.544  21.587  0.00  0.00    +0.000 C 
ENDBRANCH   8  10
BRANCH   1  14
ATOM     14  S   UNL     1       0.675   9.447  21.832  0.00  0.00    +0.000 S 
ATOM     15  O   UNL     1       1.815   9.692  22.706  0.00  0.00    +0.000 OA
ATOM     16  O   UNL     1      -0.587   8.969  22.352  0.00  0.00    +0.000 OA
BRANCH  14  20
ATOM     17  C   UNL     1      -0.111  13.396  19.556  0.00  0.00    +0.000 A 
ATOM     18  C   UNL     1       1.011  13.249  20.385  0.00  0.00    +0.000 A 
ATOM     19  C   UNL     1       1.227  12.058  21.087  0.00  0.00    +0.000 A 
ATOM     20  C   UNL     1       0.313  11.002  20.978  0.00  0.00    +0.000 A 
ATOM     21  C   UNL     1      -0.851  11.164  20.220  0.00  0.00    +0.000 A 
ATOM     22  C   UNL     1      -1.057  12.356  19.506  0.00  0.00    +0.000 A 
BRANCH  17  23
ATOM     23  C   UNL     1      -0.216  14.601  18.640  0.00  0.00    +0.000 C 
BRANCH  23  27
ATOM     24  C   UNL     1       1.292  17.957  19.682  0.00  0.00    +0.000 C 
ATOM     25  C   UNL     1       1.116  16.607  19.027  0.00  0.00    +0.000 C 
ATOM     26  O   UNL     1       1.990  16.164  18.280  0.00  0.00    +0.000 OA
ATOM     27  N   UNL     1      -0.054  15.908  19.299  0.00  0.00    +0.000 N 
ATOM     28  C   UNL     1      -1.119  16.416  20.161  0.00  0.00    +0.000 C 
ENDBRANCH  23  27
ENDBRANCH  17  23
ENDBRANCH  14  20
ENDBRANCH   1  14
BRANCH   9  29
ATOM     29  C   UNL     1       3.700   4.463  17.560  0.00  0.00    +0.000 C 
BRANCH  29  30
ATOM     30  C   UNL     1       5.044   4.634  16.812  0.00  0.00    +0.000 C 
ATOM     31  C   UNL     1       6.303   4.808  17.652  0.00  0.00    +0.000 C 
ATOM     32  C   UNL     1       7.529   4.508  16.779  0.00  0.00    +0.000 C 
ATOM     33  O   UNL     1       7.544   5.348  15.623  0.00  0.00    +0.000 OA
ATOM     34  C   UNL     1       6.408   5.146  14.782  0.00  0.00    +0.000 C 
ATOM     35  C   UNL     1       5.105   5.480  15.534  0.00  0.00    +0.000 C 
ENDBRANCH  29  30
ENDBRANCH   9  29
TORSDOF 7
ENDMDL
MODEL 2
REMARK VINA RESULT:      -8.2      2.621      3.721
REMARK  Name = 
REMARK  12 active torsions:
REMARK  status: ('A' for Active; 'I' for Inactive)
REMARK    1  A    between atoms: C_1  and  C_2
REMARK    2  A    between atoms: N_4  and  C_5
REMARK    3  A    between atoms: N_4  and  C_6
REMARK    4  A    between atoms: C_6  and  C_7
REMARK    5  A    between atoms: C_10  and  S_11
REMARK    6  A    between atoms: S_11  and  C_14
REMARK    7  A    between atoms: C_21  and  C_22
REMARK    8  A    between atoms: C_22  and  C_23
REMARK    9  A    between atoms: C_22  and  C_24
REMARK   10  A    between atoms: C_22  and  C_25
REMARK   11  A    between atoms: N_26  and  C_27
REMARK   12  A    between atoms: C_27  and  C_28
REMARK                            x       y       z     vdW  Elec       q    Type
REMARK                         _______ _______ _______ _____ _____    ______ ____
ROOT
ATOM      1  C   UNL     1       1.169   9.015  20.251  0.00  0.00    +0.000 A 
ATOM      2  C   UNL     1       1.901   9.238  19.073  0.00  0.00    +0.000 A 
ATOM      3  C   UNL     1       2.473   8.154  18.322  0.00  0.00    +0.000 A 
ATOM      4  C   UNL     1       2.327   6.848  18.842  0.00  0.00    +0.000 A 
ATOM      5  C   UNL     1       1.525   6.689  19.982  0.00  0.00    +0.000 A 
ATOM      6  C   UNL     1       0.918   7.728  20.669  0.00  0.00    +0.000 A 
ATOM      7  N   UNL     1       1.466   5.427  20.395  0.00  0.00    +0.000 NA
ATOM      8  C   UNL     1       2.370   4.783  19.705  0.00  0.00    +0.000 A 
ATOM      9  N   UNL     1       2.778   5.554  18.581  0.00  0.00    +0.000 N 
ENDROOT
BRANCH   8  10
ATOM     10  C   UNL     1       2.727   3.389  20.208  0.00  0.00    +0.000 C 
ATOM     11  C   UNL     1       1.857   2.397  19.414  0.00  0.00    +0.000 C 
ATOM     12  C   UNL     1       4.188   2.950  20.175  0.00  0.00    +0.000 C 
ATOM     13  C   UNL     1       2.301   3.333  21.709  0.00  0.00    +0.000 C 
ENDBRANCH   8  10
BRANCH   1  14
ATOM     14  S   UNL     1       0.642  10.278  21.392  0.00  0.00    +0.000 S 
ATOM     15  O   UNL     1       1.704  11.276  21.419  0.00  0.00    +0.000 OA
ATOM     16  O   UNL     1       0.185   9.627  22.600  0.00  0.00    +0.000 OA
BRANCH  14  20
ATOM     17  C   UNL     1      -3.153  12.148  19.523  0.00  0.00    +0.000 A 
ATOM     18  C   UNL     1      -2.356  11.250  18.798  0.00  0.00    +0.000 A 
ATOM     19  C   UNL     1      -1.197  10.708  19.365  0.00  0.00    +0.000 A 
ATOM     20  C   UNL     1      -0.815  11.069  20.663  0.00  0.00    +0.000 A 
ATOM     21  C   UNL     1      -1.555  12.026  21.367  0.00  0.00    +0.000 A 
ATOM     22  C   UNL     1      -2.725  12.557  20.798  0.00  0.00    +0.000 A 
BRANCH  17  23
ATOM     23  C   UNL     1      -4.511  12.556  18.980  0.00  0.00    +0.000 C 
BRANCH  23  27
ATOM     24  C   UNL     1      -7.497  11.038  20.823  0.00  0.00    +0.000 C 
ATOM     25  C   UNL     1      -6.345  11.947  20.469  0.00  0.00    +0.000 C 
ATOM     26  O   UNL     1      -6.076  12.913  21.185  0.00  0.00    +0.000 OA
ATOM     27  N   UNL     1      -5.621  11.650  19.320  0.00  0.00    +0.000 N 
ATOM     28  C   UNL     1      -5.930  10.527  18.436  0.00  0.00    +0.000 C 
ENDBRANCH  23  27
ENDBRANCH  17  23
ENDBRANCH  14  20
ENDBRANCH   1  14
BRANCH   9  29
ATOM     29  C   UNL     1       3.529   4.881  17.547  0.00  0.00    +0.000 C 
BRANCH  29  30
ATOM     30  C   UNL     1       4.964   4.766  16.980  0.00  0.00    +0.000 C 
ATOM     31  C   UNL     1       6.118   5.165  17.892  0.00  0.00    +0.000 C 
ATOM     32  C   UNL     1       7.419   4.567  17.338  0.00  0.00    +0.000 C 
ATOM     33  O   UNL     1       7.637   4.992  15.992  0.00  0.00    +0.000 OA
ATOM     34  C   UNL     1       6.603   4.564  15.105  0.00  0.00    +0.000 C 
ATOM     35  C   UNL     1       5.244   5.157  15.523  0.00  0.00    +0.000 C 
ENDBRANCH  29  30
ENDBRANCH   9  29
TORSDOF 7
ENDMDL
MODEL 3
REMARK VINA RESULT:      -8.0      1.249      1.665
REMARK  Name = 
REMARK  12 active torsions:
REMARK  status: ('A' for Active; 'I' for Inactive)
REMARK    1  A    between atoms: C_1  and  C_2
REMARK    2  A    between atoms: N_4  and  C_5
REMARK    3  A    between atoms: N_4  and  C_6
REMARK    4  A    between atoms: C_6  and  C_7
REMARK    5  A    between atoms: C_10  and  S_11
REMARK    6  A    between atoms: S_11  and  C_14
REMARK    7  A    between atoms: C_21  and  C_22
REMARK    8  A    between atoms: C_22  and  C_23
REMARK    9  A    between atoms: C_22  and  C_24
REMARK   10  A    between atoms: C_22  and  C_25
REMARK   11  A    between atoms: N_26  and  C_27
REMARK   12  A    between atoms: C_27  and  C_28
REMARK                            x       y       z     vdW  Elec       q    Type
REMARK                         _______ _______ _______ _____ _____    ______ ____
ROOT
ATOM      1  C   UNL     1       1.156   8.345  20.672  0.00  0.00    +0.000 A 
ATOM      2  C   UNL     1       1.827   8.727  19.499  0.00  0.00    +0.000 A 
ATOM      3  C   UNL     1       2.423   7.758  18.620  0.00  0.00    +0.000 A 
ATOM      4  C   UNL     1       2.364   6.400  19.006  0.00  0.00    +0.000 A 
ATOM      5  C   UNL     1       1.619   6.082  20.151  0.00  0.00    +0.000 A 
ATOM      6  C   UNL     1       0.988   7.011  20.963  0.00  0.00    +0.000 A 
ATOM      7  N   UNL     1       1.641   4.783  20.432  0.00  0.00    +0.000 NA
ATOM      8  C   UNL     1       2.548   4.263  19.648  0.00  0.00    +0.000 A 
ATOM      9  N   UNL     1       2.870   5.166  18.597  0.00  0.00    +0.000 N 
ENDROOT
BRANCH   8  10
ATOM     10  C   UNL     1       2.994   2.847  19.991  0.00  0.00    +0.000 C 
ATOM     11  C   UNL     1       2.195   1.899  19.079  0.00  0.00    +0.000 C 
ATOM     12  C   UNL     1       4.481   2.511  19.922  0.00  0.00    +0.000 C 
ATOM     13  C   UNL     1       2.571   2.590  21.471  0.00  0.00    +0.000 C 
ENDBRANCH   8  10
BRANCH   1  14
ATOM     14  S   UNL     1       0.612   9.455  21.957  0.00  0.00    +0.000 S 
ATOM     15  O   UNL     1       1.755   9.655  22.838  0.00  0.00    +0.000 OA
ATOM     16  O   UNL     1      -0.655   8.969  22.459  0.00  0.00    +0.000 OA
BRANCH  14  20
ATOM     17  C   UNL     1      -0.328  13.577  20.080  0.00  0.00    +0.000 A 
ATOM     18  C   UNL     1      -1.349  12.768  20.601  0.00  0.00    +0.000 A 
ATOM     19  C   UNL     1      -1.057  11.513  21.146  0.00  0.00    +0.000 A 
ATOM     20  C   UNL     1       0.264  11.045  21.163  0.00  0.00    +0.000 A 
ATOM     21  C   UNL     1       1.280  11.804  20.574  0.00  0.00    +0.000 A 
ATOM     22  C   UNL     1       0.983  13.070  20.041  0.00  0.00    +0.000 A 
BRANCH  17  23
ATOM     23  C   UNL     1      -0.629  15.013  19.694  0.00  0.00    +0.000 C 
BRANCH  23  27
ATOM     24  C   UNL     1      -2.188  17.301  22.331  0.00  0.00    +0.000 C 
ATOM     25  C   UNL     1      -2.041  16.351  21.167  0.00  0.00    +0.000 C 
ATOM     26  O   UNL     1      -3.038  15.952  20.563  0.00  0.00    +0.000 OA
ATOM     27  N   UNL     1      -0.754  15.953  20.821  0.00  0.00    +0.000 N 
ATOM     28  C   UNL     1       0.446  16.388  21.532  0.00  0.00    +0.000 C 
ENDBRANCH  23  27
ENDBRANCH  17  23
ENDBRANCH  14  20
ENDBRANCH   1  14
BRANCH   9  29
ATOM     29  C   UNL     1       3.612   4.644  17.473  0.00  0.00    +0.000 C 
BRANCH  29  30
ATOM     30  C   UNL     1       5.047   4.586  16.898  0.00  0.00    +0.000 C 
ATOM     31  C   UNL     1       6.186   5.055  17.794  0.00  0.00    +0.000 C 
ATOM     32  C   UNL     1       7.511   4.508  17.243  0.00  0.00    +0.000 C 
ATOM     33  O   UNL     1       7.701   4.917  15.887  0.00  0.00    +0.000 OA
ATOM     34  C   UNL     1       6.683   4.424  15.016  0.00  0.00    +0.000 C 
ATOM     35  C   UNL     1       5.300   4.961  15.433  0.00  0.00    +0.000 C 
ENDBRANCH  29  30
ENDBRANCH   9  29
TORSDOF 7
ENDMDL
MODEL 4
REMARK VINA RESULT:      -7.9      0.955      1.300
REMARK  Name = 
REMARK  12 active torsions:
REMARK  status: ('A' for Active; 'I' for Inactive)
REMARK    1  A    between atoms: C_1  and  C_2
REMARK    2  A    between atoms: N_4  and  C_5
REMARK    3  A    between atoms: N_4  and  C_6
REMARK    4  A    between atoms: C_6  and  C_7
REMARK    5  A    between atoms: C_10  and  S_11
REMARK    6  A    between atoms: S_11  and  C_14
REMARK    7  A    between atoms: C_21  and  C_22
REMARK    8  A    between atoms: C_22  and  C_23
REMARK    9  A    between atoms: C_22  and  C_24
REMARK   10  A    between atoms: C_22  and  C_25
REMARK   11  A    between atoms: N_26  and  C_27
REMARK   12  A    between atoms: C_27  and  C_28
REMARK                            x       y       z     vdW  Elec       q    Type
REMARK                         _______ _______ _______ _____ _____    ______ ____
ROOT
ATOM      1  C   UNL     1       1.149   8.360  20.674  0.00  0.00    +0.000 A 
ATOM      2  C   UNL     1       1.820   8.734  19.498  0.00  0.00    +0.000 A 
ATOM      3  C   UNL     1       2.417   7.760  18.626  0.00  0.00    +0.000 A 
ATOM      4  C   UNL     1       2.359   6.404  19.022  0.00  0.00    +0.000 A 
ATOM      5  C   UNL     1       1.613   6.094  20.169  0.00  0.00    +0.000 A 
ATOM      6  C   UNL     1       0.981   7.028  20.974  0.00  0.00    +0.000 A 
ATOM      7  N   UNL     1       1.636   4.797  20.460  0.00  0.00    +0.000 NA
ATOM      8  C   UNL     1       2.544   4.272  19.679  0.00  0.00    +0.000 A 
ATOM      9  N   UNL     1       2.866   5.167  18.622  0.00  0.00    +0.000 N 
ENDROOT
BRANCH   8  10
ATOM     10  C   UNL     1       2.991   2.858  20.032  0.00  0.00    +0.000 C 
ATOM     11  C   UNL     1       2.175   1.902  19.144  0.00  0.00    +0.000 C 
ATOM     12  C   UNL     1       4.476   2.517  19.946  0.00  0.00    +0.000 C 
ATOM     13  C   UNL     1       2.588   2.621  21.521  0.00  0.00    +0.000 C 
ENDBRANCH   8  10
BRANCH   1  14
ATOM     14  S   UNL     1       0.603   9.479  21.950  0.00  0.00    +0.000 S 
ATOM     15  O   UNL     1       1.733   9.654  22.853  0.00  0.00    +0.000 OA
ATOM     16  O   UNL     1      -0.683   9.019  22.427  0.00  0.00    +0.000 OA
BRANCH  14  20
ATOM     17  C   UNL     1      -0.080  13.506  19.780  0.00  0.00    +0.000 A 
ATOM     18  C   UNL     1       1.209  13.083  20.132  0.00  0.00    +0.000 A 
ATOM     19  C   UNL     1       1.403  11.873  20.809  0.00  0.00    +0.000 A 
ATOM     20  C   UNL     1       0.303  11.077  21.153  0.00  0.00    +0.000 A 
ATOM     21  C   UNL     1      -0.994  11.525  20.881  0.00  0.00    +0.000 A 
ATOM     22  C   UNL     1      -1.182  12.733  20.189  0.00  0.00    +0.000 A 
BRANCH  17  23
ATOM     23  C   UNL     1      -0.256  14.703  18.863  0.00  0.00    +0.000 C 
BRANCH  23  27
ATOM     24  C   UNL     1      -0.631  17.981  20.793  0.00  0.00    +0.000 C 
ATOM     25  C   UNL     1      -0.951  16.651  20.156  0.00  0.00    +0.000 C 
ATOM     26  O   UNL     1      -2.080  16.170  20.261  0.00  0.00    +0.000 OA
ATOM     27  N   UNL     1       0.069  16.007  19.464  0.00  0.00    +0.000 N 
ATOM     28  C   UNL     1       1.425  16.538  19.342  0.00  0.00    +0.000 C 
ENDBRANCH  23  27
ENDBRANCH  17  23
ENDBRANCH  14  20
ENDBRANCH   1  14
BRANCH   9  29
ATOM     29  C   UNL     1       3.608   4.638  17.502  0.00  0.00    +0.000 C 
BRANCH  29  30
ATOM     30  C   UNL     1       4.957   4.805  16.763  0.00  0.00    +0.000 C 
ATOM     31  C   UNL     1       5.422   3.658  15.874  0.00  0.00    +0.000 C 
ATOM     32  C   UNL     1       6.498   4.180  14.910  0.00  0.00    +0.000 C 
ATOM     33  O   UNL     1       7.583   4.763  15.633  0.00  0.00    +0.000 OA
ATOM     34  C   UNL     1       7.182   5.888  16.416  0.00  0.00    +0.000 C 
ATOM     35  C   UNL     1       6.140   5.474  17.473  0.00  0.00    +0.000 C 
ENDBRANCH  29  30
ENDBRANCH   9  29
TORSDOF 7
ENDMDL
MODEL 5
REMARK VINA RESULT:      -7.8      0.736      1.106
REMARK  Name = 
REMARK  12 active torsions:
REMARK  status: ('A' for Active; 'I' for Inactive)
REMARK    1  A    between atoms: C_1  and  C_2
REMARK    2  A    between atoms: N_4  and  C_5
REMARK    3  A    between atoms: N_4  and  C_6
REMARK    4  A    between atoms: C_6  and  C_7
REMARK    5  A    between atoms: C_10  and  S_11
REMARK    6  A    between atoms: S_11  and  C_14
REMARK    7  A    between atoms: C_21  and  C_22
REMARK    8  A    between atoms: C_22  and  C_23
REMARK    9  A    between atoms: C_22  and  C_24
REMARK   10  A    between atoms: C_22  and  C_25
REMARK   11  A    between atoms: N_26  and  C_27
REMARK   12  A    between atoms: C_27  and  C_28
REMARK                            x       y       z     vdW  Elec       q    Type
REMARK                         _______ _______ _______ _____ _____    ______ ____
ROOT
ATOM      1  C   UNL     1       1.179   8.303  20.585  0.00  0.00    +0.000 A 
ATOM      2  C   UNL     1       1.922   8.646  19.443  0.00  0.00    +0.000 A 
ATOM      3  C   UNL     1       2.542   7.647  18.618  0.00  0.00    +0.000 A 
ATOM      4  C   UNL     1       2.430   6.298  19.026  0.00  0.00    +0.000 A 
ATOM      5  C   UNL     1       1.616   6.020  20.133  0.00  0.00    +0.000 A 
ATOM      6  C   UNL     1       0.963   6.980  20.892  0.00  0.00    +0.000 A 
ATOM      7  N   UNL     1       1.592   4.727  20.441  0.00  0.00    +0.000 NA
ATOM      8  C   UNL     1       2.528   4.171  19.718  0.00  0.00    +0.000 A 
ATOM      9  N   UNL     1       2.929   5.045  18.669  0.00  0.00    +0.000 N 
ENDROOT
BRANCH   8  10
ATOM     10  C   UNL     1       2.922   2.753  20.112  0.00  0.00    +0.000 C 
ATOM     11  C   UNL     1       2.090   1.803  19.231  0.00  0.00    +0.000 C 
ATOM     12  C   UNL     1       4.395   2.361  20.061  0.00  0.00    +0.000 C 
ATOM     13  C   UNL     1       2.485   2.564  21.599  0.00  0.00    +0.000 C 
ENDBRANCH   8  10
BRANCH   1  14
ATOM     14  S   UNL     1       0.591   9.452  21.815  0.00  0.00    +0.000 S 
ATOM     15  O   UNL     1       1.718   9.719  22.699  0.00  0.00    +0.000 OA
ATOM     16  O   UNL     1      -0.668   8.954  22.324  0.00  0.00    +0.000 OA
BRANCH  14  20
ATOM     17  C   UNL     1      -0.215  13.439  19.614  0.00  0.00    +0.000 A 
ATOM     18  C   UNL     1       0.261  13.423  20.932  0.00  0.00    +0.000 A 
ATOM     19  C   UNL     1       0.480  12.211  21.597  0.00  0.00    +0.000 A 
ATOM     20  C   UNL     1       0.211  10.998  20.952  0.00  0.00    +0.000 A 
ATOM     21  C   UNL     1      -0.341  10.999  19.667  0.00  0.00    +0.000 A 
ATOM     22  C   UNL     1      -0.546  12.218  18.999  0.00  0.00    +0.000 A 
BRANCH  17  23
ATOM     23  C   UNL     1      -0.240  14.743  18.838  0.00  0.00    +0.000 C 
BRANCH  23  27
ATOM     24  C   UNL     1       3.202  16.395  19.029  0.00  0.00    +0.000 C 
ATOM     25  C   UNL     1       2.100  15.417  18.701  0.00  0.00    +0.000 C 
ATOM     26  O   UNL     1       2.343  14.414  18.027  0.00  0.00    +0.000 OA
ATOM     27  N   UNL     1       0.826  15.699  19.181  0.00  0.00    +0.000 N 
ATOM     28  C   UNL     1       0.500  16.891  19.961  0.00  0.00    +0.000 C 
ENDBRANCH  23  27
ENDBRANCH  17  23
ENDBRANCH  14  20
ENDBRANCH   1  14
BRANCH   9  29
ATOM     29  C   UNL     1       3.718   4.483  17.598  0.00  0.00    +0.000 C 
BRANCH  29  30
ATOM     30  C   UNL     1       5.034   4.719  16.820  0.00  0.00    +0.000 C 
ATOM     31  C   UNL     1       5.193   4.024  15.473  0.00  0.00    +0.000 C 
ATOM     32  C   UNL     1       6.310   4.720  14.682  0.00  0.00    +0.000 C 
ATOM     33  O   UNL     1       7.530   4.718  15.425  0.00  0.00    +0.000 OA
ATOM     34  C   UNL     1       7.425   5.429  16.659  0.00  0.00    +0.000 C 
ATOM     35  C   UNL     1       6.368   4.781  17.574  0.00  0.00    +0.000 C 
ENDBRANCH  29  30
ENDBRANCH   9  29
TORSDOF 7
ENDMDL
MODEL 6
REMARK VINA RESULT:      -7.8      2.919      3.755
REMARK  Name = 
REMARK  12 active torsions:
REMARK  status: ('A' for Active; 'I' for Inactive)
REMARK    1  A    between atoms: C_1  and  C_2
REMARK    2  A    between atoms: N_4  and  C_5
REMARK    3  A    between atoms: N_4  and  C_6
REMARK    4  A    between atoms: C_6  and  C_7
REMARK    5  A    between atoms: C_10  and  S_11
REMARK    6  A    between atoms: S_11  and  C_14
REMARK    7  A    between atoms: C_21  and  C_22
REMARK    8  A    between atoms: C_22  and  C_23
REMARK    9  A    between atoms: C_22  and  C_24
REMARK   10  A    between atoms: C_22  and  C_25
REMARK   11  A    between atoms: N_26  and  C_27
REMARK   12  A    between atoms: C_27  and  C_28
REMARK                            x       y       z     vdW  Elec       q    Type
REMARK                         _______ _______ _______ _____ _____    ______ ____
ROOT
ATOM      1  C   UNL     1       1.408   9.172  19.206  0.00  0.00    +0.000 A 
ATOM      2  C   UNL     1       2.253   9.165  18.084  0.00  0.00    +0.000 A 
ATOM      3  C   UNL     1       2.830   7.949  17.581  0.00  0.00    +0.000 A 
ATOM      4  C   UNL     1       2.568   6.756  18.292  0.00  0.00    +0.000 A 
ATOM      5  C   UNL     1       1.661   6.823  19.360  0.00  0.00    +0.000 A 
ATOM      6  C   UNL     1       1.052   7.986  19.805  0.00  0.00    +0.000 A 
ATOM      7  N   UNL     1       1.498   5.652  19.968  0.00  0.00    +0.000 NA
ATOM      8  C   UNL     1       2.423   4.866  19.485  0.00  0.00    +0.000 A 
ATOM      9  N   UNL     1       2.970   5.420  18.293  0.00  0.00    +0.000 N 
ENDROOT
BRANCH   8  10
ATOM     10  C   UNL     1       2.658   3.565  20.243  0.00  0.00    +0.000 C 
ATOM     11  C   UNL     1       1.644   2.545  19.693  0.00  0.00    +0.000 C 
ATOM     12  C   UNL     1       4.060   2.963  20.247  0.00  0.00    +0.000 C 
ATOM     13  C   UNL     1       2.316   3.852  21.738  0.00  0.00    +0.000 C 
ENDBRANCH   8  10
BRANCH   1  14
ATOM     14  S   UNL     1       0.851  10.630  20.067  0.00  0.00    +0.000 S 
ATOM     15  O   UNL     1       1.672  11.732  19.583  0.00  0.00    +0.000 OA
ATOM     16  O   UNL     1       0.766  10.312  21.476  0.00  0.00    +0.000 OA
BRANCH  14  20
ATOM     17  C   UNL     1      -3.437  11.600  18.630  0.00  0.00    +0.000 A 
ATOM     18  C   UNL     1      -2.897  12.220  19.765  0.00  0.00    +0.000 A 
ATOM     19  C   UNL     1      -1.606  11.903  20.205  0.00  0.00    +0.000 A 
ATOM     20  C   UNL     1      -0.846  10.948  19.519  0.00  0.00    +0.000 A 
ATOM     21  C   UNL     1      -1.402  10.262  18.434  0.00  0.00    +0.000 A 
ATOM     22  C   UNL     1      -2.692  10.594  17.988  0.00  0.00    +0.000 A 
BRANCH  17  23
ATOM     23  C   UNL     1      -4.742  12.108  18.044  0.00  0.00    +0.000 C 
BRANCH  23  27
ATOM     24  C   UNL     1      -7.708  12.632  20.399  0.00  0.00    +0.000 C 
ATOM     25  C   UNL     1      -6.467  12.893  19.580  0.00  0.00    +0.000 C 
ATOM     26  O   UNL     1      -5.956  14.014  19.571  0.00  0.00    +0.000 OA
ATOM     27  N   UNL     1      -5.942  11.832  18.850  0.00  0.00    +0.000 N 
ATOM     28  C   UNL     1      -6.538  10.498  18.820  0.00  0.00    +0.000 C 
ENDBRANCH  23  27
ENDBRANCH  17  23
ENDBRANCH  14  20
ENDBRANCH   1  14
BRANCH   9  29
ATOM     29  C   UNL     1       3.772   4.554  17.462  0.00  0.00    +0.000 C 
BRANCH  29  30
ATOM     30  C   UNL     1       5.149   4.494  16.759  0.00  0.00    +0.000 C 
ATOM     31  C   UNL     1       6.359   5.005  17.530  0.00  0.00    +0.000 C 
ATOM     32  C   UNL     1       7.635   4.456  16.876  0.00  0.00    +0.000 C 
ATOM     33  O   UNL     1       7.693   4.825  15.497  0.00  0.00    +0.000 OA
ATOM     34  C   UNL     1       6.606   4.292  14.739  0.00  0.00    +0.000 C 
ATOM     35  C   UNL     1       5.260   4.826  15.265  0.00  0.00    +0.000 C 
ENDBRANCH  29  30
ENDBRANCH   9  29
TORSDOF 7
ENDMDL
MODEL 7
REMARK VINA RESULT:      -7.8      2.718      3.867
REMARK  Name = 
REMARK  12 active torsions:
REMARK  status: ('A' for Active; 'I' for Inactive)
REMARK    1  A    between atoms: C_1  and  C_2
REMARK    2  A    between atoms: N_4  and  C_5
REMARK    3  A    between atoms: N_4  and  C_6
REMARK    4  A    between atoms: C_6  and  C_7
REMARK    5  A    between atoms: C_10  and  S_11
REMARK    6  A    between atoms: S_11  and  C_14
REMARK    7  A    between atoms: C_21  and  C_22
REMARK    8  A    between atoms: C_22  and  C_23
REMARK    9  A    between atoms: C_22  and  C_24
REMARK   10  A    between atoms: C_22  and  C_25
REMARK   11  A    between atoms: N_26  and  C_27
REMARK   12  A    between atoms: C_27  and  C_28
REMARK                            x       y       z     vdW  Elec       q    Type
REMARK                         _______ _______ _______ _____ _____    ______ ____
ROOT
ATOM      1  C   UNL     1       1.274   9.457  20.221  0.00  0.00    +0.000 A 
ATOM      2  C   UNL     1       1.949   9.643  19.003  0.00  0.00    +0.000 A 
ATOM      3  C   UNL     1       2.455   8.534  18.242  0.00  0.00    +0.000 A 
ATOM      4  C   UNL     1       2.304   7.240  18.791  0.00  0.00    +0.000 A 
ATOM      5  C   UNL     1       1.559   7.119  19.973  0.00  0.00    +0.000 A 
ATOM      6  C   UNL     1       1.013   8.184  20.673  0.00  0.00    +0.000 A 
ATOM      7  N   UNL     1       1.490   5.865  20.410  0.00  0.00    +0.000 NA
ATOM      8  C   UNL     1       2.341   5.188  19.685  0.00  0.00    +0.000 A 
ATOM      9  N   UNL     1       2.709   5.931  18.529  0.00  0.00    +0.000 N 
ENDROOT
BRANCH   8  10
ATOM     10  C   UNL     1       2.689   3.794  20.193  0.00  0.00    +0.000 C 
ATOM     11  C   UNL     1       1.748   2.813  19.470  0.00  0.00    +0.000 C 
ATOM     12  C   UNL     1       4.133   3.313  20.083  0.00  0.00    +0.000 C 
ATOM     13  C   UNL     1       2.351   3.776  21.717  0.00  0.00    +0.000 C 
ENDBRANCH   8  10
BRANCH   1  14
ATOM     14  S   UNL     1       0.837  10.751  21.366  0.00  0.00    +0.000 S 
ATOM     15  O   UNL     1       1.753  11.854  21.106  0.00  0.00    +0.000 OA
ATOM     16  O   UNL     1       0.716  10.161  22.681  0.00  0.00    +0.000 OA
BRANCH  14  20
ATOM     17  C   UNL     1      -3.357  12.351  20.250  0.00  0.00    +0.000 A 
ATOM     18  C   UNL     1      -2.902  12.375  21.576  0.00  0.00    +0.000 A 
ATOM     19  C   UNL     1      -1.640  11.868  21.906  0.00  0.00    +0.000 A 
ATOM     20  C   UNL     1      -0.822  11.316  20.912  0.00  0.00    +0.000 A 
ATOM     21  C   UNL     1      -1.296  11.211  19.600  0.00  0.00    +0.000 A 
ATOM     22  C   UNL     1      -2.557  11.734  19.271  0.00  0.00    +0.000 A 
BRANCH  17  23
ATOM     23  C   UNL     1      -4.625  13.096  19.876  0.00  0.00    +0.000 C 
BRANCH  23  27
ATOM     24  C   UNL     1      -7.726  10.912  20.356  0.00  0.00    +0.000 C 
ATOM     25  C   UNL     1      -6.521  11.773  20.652  0.00  0.00    +0.000 C 
ATOM     26  O   UNL     1      -6.222  12.038  21.817  0.00  0.00    +0.000 OA
ATOM     27  N   UNL     1      -5.786  12.244  19.570  0.00  0.00    +0.000 N 
ATOM     28  C   UNL     1      -6.130  11.969  18.176  0.00  0.00    +0.000 C 
ENDBRANCH  23  27
ENDBRANCH  17  23
ENDBRANCH  14  20
ENDBRANCH   1  14
BRANCH   9  29
ATOM     29  C   UNL     1       3.389   5.223  17.469  0.00  0.00    +0.000 C 
BRANCH  29  30
ATOM     30  C   UNL     1       4.774   5.113  16.789  0.00  0.00    +0.000 C 
ATOM     31  C   UNL     1       5.044   3.882  15.933  0.00  0.00    +0.000 C 
ATOM     32  C   UNL     1       6.239   4.168  15.012  0.00  0.00    +0.000 C 
ATOM     33  O   UNL     1       7.386   4.544  15.776  0.00  0.00    +0.000 OA
ATOM     34  C   UNL     1       7.179   5.739  16.529  0.00  0.00    +0.000 C 
ATOM     35  C   UNL     1       6.034   5.554  17.543  0.00  0.00    +0.000 C 
ENDBRANCH  29  30
ENDBRANCH   9  29
TORSDOF 7
ENDMDL
MODEL 8
REMARK VINA RESULT:      -7.8      3.066      4.106
REMARK  Name = 
REMARK  12 active torsions:
REMARK  status: ('A' for Active; 'I' for Inactive)
REMARK    1  A    between atoms: C_1  and  C_2
REMARK    2  A    between atoms: N_4  and  C_5
REMARK    3  A    between atoms: N_4  and  C_6
REMARK    4  A    between atoms: C_6  and  C_7
REMARK    5  A    between atoms: C_10  and  S_11
REMARK    6  A    between atoms: S_11  and  C_14
REMARK    7  A    between atoms: C_21  and  C_22
REMARK    8  A    between atoms: C_22  and  C_23
REMARK    9  A    between atoms: C_22  and  C_24
REMARK   10  A    between atoms: C_22  and  C_25
REMARK   11  A    between atoms: N_26  and  C_27
REMARK   12  A    between atoms: C_27  and  C_28
REMARK                            x       y       z     vdW  Elec       q    Type
REMARK                         _______ _______ _______ _____ _____    ______ ____
ROOT
ATOM      1  C   UNL     1       0.946  10.226  20.149  0.00  0.00    +0.000 A 
ATOM      2  C   UNL     1       1.543  10.587  18.930  0.00  0.00    +0.000 A 
ATOM      3  C   UNL     1       2.173   9.614  18.080  0.00  0.00    +0.000 A 
ATOM      4  C   UNL     1       2.226   8.279  18.540  0.00  0.00    +0.000 A 
ATOM      5  C   UNL     1       1.549   7.975  19.730  0.00  0.00    +0.000 A 
ATOM      6  C   UNL     1       0.884   8.902  20.518  0.00  0.00    +0.000 A 
ATOM      7  N   UNL     1       1.674   6.699  20.080  0.00  0.00    +0.000 NA
ATOM      8  C   UNL     1       2.586   6.199  19.287  0.00  0.00    +0.000 A 
ATOM      9  N   UNL     1       2.803   7.062  18.177  0.00  0.00    +0.000 N 
ENDROOT
BRANCH   8  10
ATOM     10  C   UNL     1       3.145   4.839  19.686  0.00  0.00    +0.000 C 
ATOM     11  C   UNL     1       2.551   3.812  18.706  0.00  0.00    +0.000 C 
ATOM     12  C   UNL     1       4.659   4.666  19.773  0.00  0.00    +0.000 C 
ATOM     13  C   UNL     1       2.601   4.534  21.117  0.00  0.00    +0.000 C 
ENDBRANCH   8  10
BRANCH   1  14
ATOM     14  S   UNL     1       0.373  11.367  21.393  0.00  0.00    +0.000 S 
ATOM     15  O   UNL     1       1.227  12.543  21.296  0.00  0.00    +0.000 OA
ATOM     16  O   UNL     1       0.228  10.638  22.634  0.00  0.00    +0.000 OA
BRANCH  14  20
ATOM     17  C   UNL     1      -3.919  12.512  20.105  0.00  0.00    +0.000 A 
ATOM     18  C   UNL     1      -2.954  12.138  19.158  0.00  0.00    +0.000 A 
ATOM     19  C   UNL     1      -1.652  11.815  19.557  0.00  0.00    +0.000 A 
ATOM     20  C   UNL     1      -1.296  11.876  20.910  0.00  0.00    +0.000 A 
ATOM     21  C   UNL     1      -2.224  12.326  21.855  0.00  0.00    +0.000 A 
ATOM     22  C   UNL     1      -3.534  12.635  21.452  0.00  0.00    +0.000 A 
BRANCH  17  23
ATOM     23  C   UNL     1      -5.372  12.647  19.686  0.00  0.00    +0.000 C 
BRANCH  23  27
ATOM     24  C   UNL     1      -7.911  12.723  22.543  0.00  0.00    +0.000 C 
ATOM     25  C   UNL     1      -6.988  12.215  21.461  0.00  0.00    +0.000 C 
ATOM     26  O   UNL     1      -6.878  11.005  21.259  0.00  0.00    +0.000 OA
ATOM     27  N   UNL     1      -6.280  13.159  20.725  0.00  0.00    +0.000 N 
ATOM     28  C   UNL     1      -6.369  14.599  20.957  0.00  0.00    +0.000 C 
ENDBRANCH  23  27
ENDBRANCH  17  23
ENDBRANCH  14  20
ENDBRANCH   1  14
BRANCH   9  29
ATOM     29  C   UNL     1       3.536   6.530  17.052  0.00  0.00    +0.000 C 
BRANCH  29  30
ATOM     30  C   UNL     1       4.971   6.137  16.626  0.00  0.00    +0.000 C 
ATOM     31  C   UNL     1       6.123   6.975  17.166  0.00  0.00    +0.000 C 
ATOM     32  C   UNL     1       7.429   6.183  17.014  0.00  0.00    +0.000 C 
ATOM     33  O   UNL     1       7.638   5.811  15.650  0.00  0.00    +0.000 OA
ATOM     34  C   UNL     1       6.607   4.962  15.147  0.00  0.00    +0.000 C 
ATOM     35  C   UNL     1       5.242   5.677  15.188  0.00  0.00    +0.000 C 
ENDBRANCH  29  30
ENDBRANCH   9  29
TORSDOF 7
ENDMDL
MODEL 9
REMARK VINA RESULT:      -7.8      0.501      1.062
REMARK  Name = 
REMARK  12 active torsions:
REMARK  status: ('A' for Active; 'I' for Inactive)
REMARK    1  A    between atoms: C_1  and  C_2
REMARK    2  A    between atoms: N_4  and  C_5
REMARK    3  A    between atoms: N_4  and  C_6
REMARK    4  A    between atoms: C_6  and  C_7
REMARK    5  A    between atoms: C_10  and  S_11
REMARK    6  A    between atoms: S_11  and  C_14
REMARK    7  A    between atoms: C_21  and  C_22
REMARK    8  A    between atoms: C_22  and  C_23
REMARK    9  A    between atoms: C_22  and  C_24
REMARK   10  A    between atoms: C_22  and  C_25
REMARK   11  A    between atoms: N_26  and  C_27
REMARK   12  A    between atoms: C_27  and  C_28
REMARK                            x       y       z     vdW  Elec       q    Type
REMARK                         _______ _______ _______ _____ _____    ______ ____
ROOT
ATOM      1  C   UNL     1       1.191   8.341  20.572  0.00  0.00    +0.000 A 
ATOM      2  C   UNL     1       1.865   8.713  19.397  0.00  0.00    +0.000 A 
ATOM      3  C   UNL     1       2.464   7.737  18.529  0.00  0.00    +0.000 A 
ATOM      4  C   UNL     1       2.406   6.383  18.927  0.00  0.00    +0.000 A 
ATOM      5  C   UNL     1       1.658   6.074  20.073  0.00  0.00    +0.000 A 
ATOM      6  C   UNL     1       1.023   7.009  20.875  0.00  0.00    +0.000 A 
ATOM      7  N   UNL     1       1.681   4.777  20.367  0.00  0.00    +0.000 NA
ATOM      8  C   UNL     1       2.590   4.251  19.590  0.00  0.00    +0.000 A 
ATOM      9  N   UNL     1       2.914   5.145  18.531  0.00  0.00    +0.000 N 
ENDROOT
BRANCH   8  10
ATOM     10  C   UNL     1       3.038   2.839  19.946  0.00  0.00    +0.000 C 
ATOM     11  C   UNL     1       2.588   2.586  21.396  0.00  0.00    +0.000 C 
ATOM     12  C   UNL     1       2.600   1.684  19.051  0.00  0.00    +0.000 C 
ATOM     13  C   UNL     1       4.598   2.841  19.902  0.00  0.00    +0.000 C 
ENDBRANCH   8  10
BRANCH   1  14
ATOM     14  S   UNL     1       0.641   9.462  21.845  0.00  0.00    +0.000 S 
ATOM     15  O   UNL     1       1.784   9.676  22.724  0.00  0.00    +0.000 OA
ATOM     16  O   UNL     1      -0.623   8.976  22.352  0.00  0.00    +0.000 OA
BRANCH  14  20
ATOM     17  C   UNL     1      -0.133  13.472  19.675  0.00  0.00    +0.000 A 
ATOM     18  C   UNL     1       1.030  13.272  20.432  0.00  0.00    +0.000 A 
ATOM     19  C   UNL     1       1.244  12.062  21.103  0.00  0.00    +0.000 A 
ATOM     20  C   UNL     1       0.286  11.042  21.035  0.00  0.00    +0.000 A 
ATOM     21  C   UNL     1      -0.915  11.258  20.351  0.00  0.00    +0.000 A 
ATOM     22  C   UNL     1      -1.119  12.469  19.668  0.00  0.00    +0.000 A 
BRANCH  17  23
ATOM     23  C   UNL     1      -0.249  14.695  18.783  0.00  0.00    +0.000 C 
BRANCH  23  27
ATOM     24  C   UNL     1       0.609  18.273  19.824  0.00  0.00    +0.000 C 
ATOM     25  C   UNL     1       0.651  16.937  19.121  0.00  0.00    +0.000 C 
ATOM     26  O   UNL     1       1.497  16.722  18.252  0.00  0.00    +0.000 OA
ATOM     27  N   UNL     1      -0.294  15.986  19.490  0.00  0.00    +0.000 N 
ATOM     28  C   UNL     1      -1.325  16.219  20.499  0.00  0.00    +0.000 C 
ENDBRANCH  23  27
ENDBRANCH  17  23
ENDBRANCH  14  20
ENDBRANCH   1  14
BRANCH   9  29
ATOM     29  C   UNL     1       3.660   4.614  17.414  0.00  0.00    +0.000 C 
BRANCH  29  30
ATOM     30  C   UNL     1       4.996   4.803  16.657  0.00  0.00    +0.000 C 
ATOM     31  C   UNL     1       5.432   3.696  15.705  0.00  0.00    +0.000 C 
ATOM     32  C   UNL     1       6.494   4.253  14.747  0.00  0.00    +0.000 C 
ATOM     33  O   UNL     1       7.599   4.789  15.475  0.00  0.00    +0.000 OA
ATOM     34  C   UNL     1       7.226   5.879  16.319  0.00  0.00    +0.000 C 
ATOM     35  C   UNL     1       6.200   5.426  17.375  0.00  0.00    +0.000 C 
ENDBRANCH  29  30
ENDBRANCH   9  29
TORSDOF 7
ENDMDL
