MODEL 1
REMARK VINA RESULT:      -7.6      0.000      0.000
REMARK  Name = 
REMARK  7 active torsions:
REMARK  status: ('A' for Active; 'I' for Inactive)
REMARK    1  A    between atoms: C_1  and  O_2
REMARK    2  A    between atoms: O_2  and  C_3
REMARK    3  A    between atoms: C_6  and  C_7
REMARK    4  A    between atoms: C_8  and  C_9
REMARK    5  A    between atoms: C_12  and  C_13
REMARK    6  A    between atoms: N_19  and  C_20
REMARK    7  A    between atoms: C_23  and  C_24
REMARK                            x       y       z     vdW  Elec       q    Type
REMARK                         _______ _______ _______ _____ _____    ______ ____
ROOT
ATOM      1  C   UNL     1      -0.992  10.778  19.995  0.00  0.00    +0.000 A 
ATOM      2  C   UNL     1       0.058  10.071  20.487  0.00  0.00    +0.000 A 
ATOM      3  N   UNL     1       0.209  10.370  21.864  0.00  0.00    +0.000 N 
ATOM      4  C   UNL     1       1.104   9.784  22.830  0.00  0.00    +0.000 C 
ATOM      5  C   UNL     1      -0.767  11.263  22.195  0.00  0.00    +0.000 A 
ATOM      6  C   UNL     1      -1.308  11.995  23.207  0.00  0.00    +0.000 A 
ATOM      7  C   UNL     1      -2.403  12.693  22.585  0.00  0.00    +0.000 A 
ATOM      8  N   UNL     1      -2.489  12.394  21.269  0.00  0.00    +0.000 NA
ATOM      9  N   UNL     1      -1.498  11.520  21.060  0.00  0.00    +0.000 N 
ENDROOT
BRANCH   1  13
ATOM     10  C   UNL     1      -2.573  10.848  16.046  0.00  0.00    +0.000 A 
ATOM     11  C   UNL     1      -1.917  11.969  16.560  0.00  0.00    +0.000 A 
ATOM     12  C   UNL     1      -1.383  11.945  17.850  0.00  0.00    +0.000 A 
ATOM     13  C   UNL     1      -1.520  10.802  18.642  0.00  0.00    +0.000 A 
ATOM     14  C   UNL     1      -2.180   9.682  18.128  0.00  0.00    +0.000 A 
ATOM     15  C   UNL     1      -2.704   9.705  16.834  0.00  0.00    +0.000 A 
BRANCH  10  17
ATOM     16  C   UNL     1      -3.413   9.797  14.103  0.00  0.00    +0.000 C 
ATOM     17  O   UNL     1      -3.078  11.000  14.785  0.00  0.00    +0.000 OA
ENDBRANCH  10  17
ENDBRANCH   1  13
BRANCH   2  18
ATOM     18  C   UNL     1       0.940   9.161  19.761  0.00  0.00    +0.000 A 
ATOM     19  C   UNL     1       1.397   9.502  18.483  0.00  0.00    +0.000 A 
ATOM     20  C   UNL     1       2.268   8.653  17.792  0.00  0.00    +0.000 A 
ATOM     21  C   UNL     1       2.694   7.447  18.369  0.00  0.00    +0.000 A 
ATOM     22  C   UNL     1       2.204   7.095  19.637  0.00  0.00    +0.000 A 
ATOM     23  C   UNL     1       1.333   7.944  20.326  0.00  0.00    +0.000 A 
BRANCH  21  24
ATOM     24  C   UNL     1       3.678   6.547  17.661  0.00  0.00    +0.000 C 
ATOM     25  F   UNL     1       4.769   6.229  18.415  0.00  0.00    +0.000 F 
ATOM     26  F   UNL     1       3.121   5.357  17.300  0.00  0.00    +0.000 F 
ATOM     27  F   UNL     1       4.164   7.095  16.513  0.00  0.00    +0.000 F 
ENDBRANCH  21  24
ENDBRANCH   2  18
BRANCH   7  28
ATOM     28  C   UNL     1      -3.377  13.610  23.199  0.00  0.00    +0.000 A 
ATOM     29  C   UNL     1      -4.754  13.484  22.973  0.00  0.00    +0.000 A 
ATOM     30  C   UNL     1      -5.654  14.405  23.524  0.00  0.00    +0.000 A 
ATOM     31  C   UNL     1      -5.190  15.458  24.312  0.00  0.00    +0.000 A 
ATOM     32  C   UNL     1      -3.827  15.585  24.562  0.00  0.00    +0.000 A 
ATOM     33  C   UNL     1      -2.930  14.667  24.012  0.00  0.00    +0.000 A 
ENDBRANCH   7  28
TORSDOF 5
ENDMDL
MODEL 2
REMARK VINA RESULT:      -7.5      0.110      1.065
REMARK  Name = 
REMARK  7 active torsions:
REMARK  status: ('A' for Active; 'I' for Inactive)
REMARK    1  A    between atoms: C_1  and  O_2
REMARK    2  A    between atoms: O_2  and  C_3
REMARK    3  A    between atoms: C_6  and  C_7
REMARK    4  A    between atoms: C_8  and  C_9
REMARK    5  A    between atoms: C_12  and  C_13
REMARK    6  A    between atoms: N_19  and  C_20
REMARK    7  A    between atoms: C_23  and  C_24
REMARK                            x       y       z     vdW  Elec       q    Type
REMARK                         _______ _______ _______ _____ _____    ______ ____
ROOT
ATOM      1  C   UNL     1      -0.992  10.786  19.951  0.00  0.00    +0.000 A 
ATOM      2  C   UNL     1       0.052  10.081  20.459  0.00  0.00    +0.000 A 
ATOM      3  N   UNL     1       0.200  10.401  21.831  0.00  0.00    +0.000 N 
ATOM      4  C   UNL     1       1.087   9.826  22.810  0.00  0.00    +0.000 C 
ATOM      5  C   UNL     1      -0.773  11.305  22.144  0.00  0.00    +0.000 A 
ATOM      6  C   UNL     1      -1.313  12.057  23.142  0.00  0.00    +0.000 A 
ATOM      7  C   UNL     1      -2.401  12.751  22.504  0.00  0.00    +0.000 A 
ATOM      8  N   UNL     1      -2.484  12.431  21.193  0.00  0.00    +0.000 NA
ATOM      9  N   UNL     1      -1.497  11.548  21.002  0.00  0.00    +0.000 N 
ENDROOT
BRANCH   1  13
ATOM     10  C   UNL     1      -2.557  10.800  15.995  0.00  0.00    +0.000 A 
ATOM     11  C   UNL     1      -1.936  11.941  16.509  0.00  0.00    +0.000 A 
ATOM     12  C   UNL     1      -1.407  11.936  17.801  0.00  0.00    +0.000 A 
ATOM     13  C   UNL     1      -1.515  10.791  18.596  0.00  0.00    +0.000 A 
ATOM     14  C   UNL     1      -2.139   9.651  18.082  0.00  0.00    +0.000 A 
ATOM     15  C   UNL     1      -2.659   9.655  16.786  0.00  0.00    +0.000 A 
BRANCH  10  17
ATOM     16  C   UNL     1      -3.835   9.840  14.254  0.00  0.00    +0.000 C 
ATOM     17  O   UNL     1      -3.061  10.934  14.731  0.00  0.00    +0.000 OA
ENDBRANCH  10  17
ENDBRANCH   1  13
BRANCH   2  18
ATOM     18  C   UNL     1       0.932   9.154  19.751  0.00  0.00    +0.000 A 
ATOM     19  C   UNL     1       1.387   9.466  18.465  0.00  0.00    +0.000 A 
ATOM     20  C   UNL     1       2.255   8.601  17.791  0.00  0.00    +0.000 A 
ATOM     21  C   UNL     1       2.680   7.407  18.394  0.00  0.00    +0.000 A 
ATOM     22  C   UNL     1       2.192   7.084  19.669  0.00  0.00    +0.000 A 
ATOM     23  C   UNL     1       1.323   7.949  20.342  0.00  0.00    +0.000 A 
BRANCH  21  24
ATOM     24  C   UNL     1       3.662   6.490  17.704  0.00  0.00    +0.000 C 
ATOM     25  F   UNL     1       4.220   7.030  16.584  0.00  0.00    +0.000 F 
ATOM     26  F   UNL     1       4.706   6.152  18.511  0.00  0.00    +0.000 F 
ATOM     27  F   UNL     1       3.098   5.314  17.311  0.00  0.00    +0.000 F 
ENDBRANCH  21  24
ENDBRANCH   2  18
BRANCH   7  28
ATOM     28  C   UNL     1      -3.372  13.684  23.099  0.00  0.00    +0.000 A 
ATOM     29  C   UNL     1      -2.971  14.734  23.935  0.00  0.00    +0.000 A 
ATOM     30  C   UNL     1      -3.920  15.571  24.534  0.00  0.00    +0.000 A 
ATOM     31  C   UNL     1      -5.281  15.373  24.300  0.00  0.00    +0.000 A 
ATOM     32  C   UNL     1      -5.695  14.347  23.456  0.00  0.00    +0.000 A 
ATOM     33  C   UNL     1      -4.747  13.512  22.859  0.00  0.00    +0.000 A 
ENDBRANCH   7  28
TORSDOF 5
ENDMDL
MODEL 3
REMARK VINA RESULT:      -7.4      0.160      1.085
REMARK  Name = 
REMARK  7 active torsions:
REMARK  status: ('A' for Active; 'I' for Inactive)
REMARK    1  A    between atoms: C_1  and  O_2
REMARK    2  A    between atoms: O_2  and  C_3
REMARK    3  A    between atoms: C_6  and  C_7
REMARK    4  A    between atoms: C_8  and  C_9
REMARK    5  A    between atoms: C_12  and  C_13
REMARK    6  A    between atoms: N_19  and  C_20
REMARK    7  A    between atoms: C_23  and  C_24
REMARK                            x       y       z     vdW  Elec       q    Type
REMARK                         _______ _______ _______ _____ _____    ______ ____
ROOT
ATOM      1  C   UNL     1      -0.965  10.759  20.024  0.00  0.00    +0.000 A 
ATOM      2  C   UNL     1       0.059  10.026  20.533  0.00  0.00    +0.000 A 
ATOM      3  N   UNL     1       0.182  10.306  21.917  0.00  0.00    +0.000 N 
ATOM      4  C   UNL     1       1.041   9.693  22.897  0.00  0.00    +0.000 C 
ATOM      5  C   UNL     1      -0.786  11.214  22.234  0.00  0.00    +0.000 A 
ATOM      6  C   UNL     1      -1.338  11.945  23.241  0.00  0.00    +0.000 A 
ATOM      7  C   UNL     1      -2.403  12.670  22.600  0.00  0.00    +0.000 A 
ATOM      8  N   UNL     1      -2.463  12.388  21.280  0.00  0.00    +0.000 NA
ATOM      9  N   UNL     1      -1.483  11.497  21.084  0.00  0.00    +0.000 N 
ENDROOT
BRANCH   1  13
ATOM     10  C   UNL     1      -2.377  10.902  16.013  0.00  0.00    +0.000 A 
ATOM     11  C   UNL     1      -2.503   9.729  16.761  0.00  0.00    +0.000 A 
ATOM     12  C   UNL     1      -2.055   9.682  18.082  0.00  0.00    +0.000 A 
ATOM     13  C   UNL     1      -1.459  10.808  18.659  0.00  0.00    +0.000 A 
ATOM     14  C   UNL     1      -1.331  11.980  17.909  0.00  0.00    +0.000 A 
ATOM     15  C   UNL     1      -1.789  12.028  16.591  0.00  0.00    +0.000 A 
BRANCH  10  17
ATOM     16  C   UNL     1      -3.904   9.919  14.501  0.00  0.00    +0.000 C 
ATOM     17  O   UNL     1      -2.826  10.819  14.724  0.00  0.00    +0.000 OA
ENDBRANCH  10  17
ENDBRANCH   1  13
BRANCH   2  18
ATOM     18  C   UNL     1       0.942   9.108  19.818  0.00  0.00    +0.000 A 
ATOM     19  C   UNL     1       1.400   9.433  18.536  0.00  0.00    +0.000 A 
ATOM     20  C   UNL     1       2.271   8.576  17.856  0.00  0.00    +0.000 A 
ATOM     21  C   UNL     1       2.697   7.378  18.447  0.00  0.00    +0.000 A 
ATOM     22  C   UNL     1       2.206   7.041  19.719  0.00  0.00    +0.000 A 
ATOM     23  C   UNL     1       1.334   7.897  20.398  0.00  0.00    +0.000 A 
BRANCH  21  24
ATOM     24  C   UNL     1       3.681   6.469  17.751  0.00  0.00    +0.000 C 
ATOM     25  F   UNL     1       3.130   5.307  17.301  0.00  0.00    +0.000 F 
ATOM     26  F   UNL     1       4.242   7.058  16.657  0.00  0.00    +0.000 F 
ATOM     27  F   UNL     1       4.720   6.105  18.552  0.00  0.00    +0.000 F 
ENDBRANCH  21  24
ENDBRANCH   2  18
BRANCH   7  28
ATOM     28  C   UNL     1      -3.375  13.598  23.201  0.00  0.00    +0.000 A 
ATOM     29  C   UNL     1      -4.746  13.511  22.929  0.00  0.00    +0.000 A 
ATOM     30  C   UNL     1      -5.641  14.442  23.469  0.00  0.00    +0.000 A 
ATOM     31  C   UNL     1      -5.179  15.468  24.293  0.00  0.00    +0.000 A 
ATOM     32  C   UNL     1      -3.823  15.557  24.589  0.00  0.00    +0.000 A 
ATOM     33  C   UNL     1      -2.930  14.628  24.050  0.00  0.00    +0.000 A 
ENDBRANCH   7  28
TORSDOF 5
ENDMDL
MODEL 4
REMARK VINA RESULT:      -7.3      0.310      1.228
REMARK  Name = 
REMARK  7 active torsions:
REMARK  status: ('A' for Active; 'I' for Inactive)
REMARK    1  A    between atoms: C_1  and  O_2
REMARK    2  A    between atoms: O_2  and  C_3
REMARK    3  A    between atoms: C_6  and  C_7
REMARK    4  A    between atoms: C_8  and  C_9
REMARK    5  A    between atoms: C_12  and  C_13
REMARK    6  A    between atoms: N_19  and  C_20
REMARK    7  A    between atoms: C_23  and  C_24
REMARK                            x       y       z     vdW  Elec       q    Type
REMARK                         _______ _______ _______ _____ _____    ______ ____
ROOT
ATOM      1  C   UNL     1      -1.095  10.769  20.093  0.00  0.00    +0.000 A 
ATOM      2  C   UNL     1      -0.080  10.053  20.643  0.00  0.00    +0.000 A 
ATOM      3  N   UNL     1      -0.015  10.338  22.030  0.00  0.00    +0.000 N 
ATOM      4  C   UNL     1       0.816   9.740  23.044  0.00  0.00    +0.000 C 
ATOM      5  C   UNL     1      -1.008  11.231  22.307  0.00  0.00    +0.000 A 
ATOM      6  C   UNL     1      -1.611  11.954  23.291  0.00  0.00    +0.000 A 
ATOM      7  C   UNL     1      -2.662  12.661  22.608  0.00  0.00    +0.000 A 
ATOM      8  N   UNL     1      -2.666  12.376  21.287  0.00  0.00    +0.000 NA
ATOM      9  N   UNL     1      -1.665  11.501  21.131  0.00  0.00    +0.000 N 
ENDROOT
BRANCH   1  13
ATOM     10  C   UNL     1      -2.355  10.882  16.031  0.00  0.00    +0.000 A 
ATOM     11  C   UNL     1      -2.500   9.712  16.779  0.00  0.00    +0.000 A 
ATOM     12  C   UNL     1      -2.103   9.675  18.117  0.00  0.00    +0.000 A 
ATOM     13  C   UNL     1      -1.537  10.807  18.709  0.00  0.00    +0.000 A 
ATOM     14  C   UNL     1      -1.389  11.977  17.959  0.00  0.00    +0.000 A 
ATOM     15  C   UNL     1      -1.797  12.015  16.624  0.00  0.00    +0.000 A 
BRANCH  10  17
ATOM     16  C   UNL     1      -3.890   9.971  14.482  0.00  0.00    +0.000 C 
ATOM     17  O   UNL     1      -2.753  10.790  14.726  0.00  0.00    +0.000 OA
ENDBRANCH  10  17
ENDBRANCH   1  13
BRANCH   2  18
ATOM     18  C   UNL     1       0.844   9.149  19.964  0.00  0.00    +0.000 A 
ATOM     19  C   UNL     1       1.243   7.960  20.586  0.00  0.00    +0.000 A 
ATOM     20  C   UNL     1       2.102   7.071  19.931  0.00  0.00    +0.000 A 
ATOM     21  C   UNL     1       2.578   7.360  18.643  0.00  0.00    +0.000 A 
ATOM     22  C   UNL     1       2.203   8.571  18.040  0.00  0.00    +0.000 A 
ATOM     23  C   UNL     1       1.345   9.459  18.696  0.00  0.00    +0.000 A 
BRANCH  21  24
ATOM     24  C   UNL     1       3.460   6.385  17.900  0.00  0.00    +0.000 C 
ATOM     25  F   UNL     1       4.475   5.880  18.656  0.00  0.00    +0.000 F 
ATOM     26  F   UNL     1       2.765   5.304  17.445  0.00  0.00    +0.000 F 
ATOM     27  F   UNL     1       4.049   6.937  16.803  0.00  0.00    +0.000 F 
ENDBRANCH  21  24
ENDBRANCH   2  18
BRANCH   7  28
ATOM     28  C   UNL     1      -3.671  13.574  23.169  0.00  0.00    +0.000 A 
ATOM     29  C   UNL     1      -5.044  13.350  23.003  0.00  0.00    +0.000 A 
ATOM     30  C   UNL     1      -5.981  14.266  23.499  0.00  0.00    +0.000 A 
ATOM     31  C   UNL     1      -5.558  15.413  24.170  0.00  0.00    +0.000 A 
ATOM     32  C   UNL     1      -4.199  15.640  24.359  0.00  0.00    +0.000 A 
ATOM     33  C   UNL     1      -3.264  14.727  23.865  0.00  0.00    +0.000 A 
ENDBRANCH   7  28
TORSDOF 5
ENDMDL
MODEL 5
REMARK VINA RESULT:      -7.3      4.135      5.619
REMARK  Name = 
REMARK  7 active torsions:
REMARK  status: ('A' for Active; 'I' for Inactive)
REMARK    1  A    between atoms: C_1  and  O_2
REMARK    2  A    between atoms: O_2  and  C_3
REMARK    3  A    between atoms: C_6  and  C_7
REMARK    4  A    between atoms: C_8  and  C_9
REMARK    5  A    between atoms: C_12  and  C_13
REMARK    6  A    between atoms: N_19  and  C_20
REMARK    7  A    between atoms: C_23  and  C_24
REMARK                            x       y       z     vdW  Elec       q    Type
REMARK                         _______ _______ _______ _____ _____    ______ ____
ROOT
ATOM      1  C   UNL     1      -0.650  12.677  20.748  0.00  0.00    +0.000 A 
ATOM      2  C   UNL     1      -0.077  13.857  20.396  0.00  0.00    +0.000 A 
ATOM      3  N   UNL     1      -1.041  14.889  20.509  0.00  0.00    +0.000 N 
ATOM      4  C   UNL     1      -0.875  16.312  20.354  0.00  0.00    +0.000 C 
ATOM      5  C   UNL     1      -2.201  14.314  20.939  0.00  0.00    +0.000 A 
ATOM      6  C   UNL     1      -3.496  14.549  21.290  0.00  0.00    +0.000 A 
ATOM      7  C   UNL     1      -4.001  13.250  21.647  0.00  0.00    +0.000 A 
ATOM      8  N   UNL     1      -3.052  12.298  21.498  0.00  0.00    +0.000 NA
ATOM      9  N   UNL     1      -1.971  12.967  21.080  0.00  0.00    +0.000 N 
ENDROOT
BRANCH   1  13
ATOM     10  C   UNL     1       1.052   8.779  20.859  0.00  0.00    +0.000 A 
ATOM     11  C   UNL     1       0.898   9.445  19.640  0.00  0.00    +0.000 A 
ATOM     12  C   UNL     1       0.354  10.729  19.601  0.00  0.00    +0.000 A 
ATOM     13  C   UNL     1      -0.058  11.351  20.783  0.00  0.00    +0.000 A 
ATOM     14  C   UNL     1       0.095  10.684  22.002  0.00  0.00    +0.000 A 
ATOM     15  C   UNL     1       0.648   9.402  22.040  0.00  0.00    +0.000 A 
BRANCH  10  17
ATOM     16  C   UNL     1       2.307   7.233  19.587  0.00  0.00    +0.000 C 
ATOM     17  O   UNL     1       1.569   7.517  20.769  0.00  0.00    +0.000 OA
ENDBRANCH  10  17
ENDBRANCH   1  13
BRANCH   2  18
ATOM     18  C   UNL     1       1.292  14.083  19.939  0.00  0.00    +0.000 A 
ATOM     19  C   UNL     1       1.575  14.120  18.569  0.00  0.00    +0.000 A 
ATOM     20  C   UNL     1       2.877  14.367  18.121  0.00  0.00    +0.000 A 
ATOM     21  C   UNL     1       3.917  14.581  19.038  0.00  0.00    +0.000 A 
ATOM     22  C   UNL     1       3.632  14.507  20.411  0.00  0.00    +0.000 A 
ATOM     23  C   UNL     1       2.331  14.258  20.858  0.00  0.00    +0.000 A 
BRANCH  21  24
ATOM     24  C   UNL     1       5.316  14.906  18.571  0.00  0.00    +0.000 C 
ATOM     25  F   UNL     1       5.732  14.145  17.520  0.00  0.00    +0.000 F 
ATOM     26  F   UNL     1       5.435  16.200  18.160  0.00  0.00    +0.000 F 
ATOM     27  F   UNL     1       6.250  14.738  19.548  0.00  0.00    +0.000 F 
ENDBRANCH  21  24
ENDBRANCH   2  18
BRANCH   7  28
ATOM     28  C   UNL     1      -5.338  12.887  22.143  0.00  0.00    +0.000 A 
ATOM     29  C   UNL     1      -6.329  12.379  21.292  0.00  0.00    +0.000 A 
ATOM     30  C   UNL     1      -7.611  12.097  21.780  0.00  0.00    +0.000 A 
ATOM     31  C   UNL     1      -7.916  12.312  23.124  0.00  0.00    +0.000 A 
ATOM     32  C   UNL     1      -6.938  12.797  23.986  0.00  0.00    +0.000 A 
ATOM     33  C   UNL     1      -5.659  13.079  23.498  0.00  0.00    +0.000 A 
ENDBRANCH   7  28
TORSDOF 5
ENDMDL
MODEL 6
REMARK VINA RESULT:      -7.2      4.207      5.646
REMARK  Name = 
REMARK  7 active torsions:
REMARK  status: ('A' for Active; 'I' for Inactive)
REMARK    1  A    between atoms: C_1  and  O_2
REMARK    2  A    between atoms: O_2  and  C_3
REMARK    3  A    between atoms: C_6  and  C_7
REMARK    4  A    between atoms: C_8  and  C_9
REMARK    5  A    between atoms: C_12  and  C_13
REMARK    6  A    between atoms: N_19  and  C_20
REMARK    7  A    between atoms: C_23  and  C_24
REMARK                            x       y       z     vdW  Elec       q    Type
REMARK                         _______ _______ _______ _____ _____    ______ ____
ROOT
ATOM      1  C   UNL     1      -0.625  12.759  20.635  0.00  0.00    +0.000 A 
ATOM      2  C   UNL     1      -0.038  13.954  20.365  0.00  0.00    +0.000 A 
ATOM      3  N   UNL     1      -0.993  14.986  20.542  0.00  0.00    +0.000 N 
ATOM      4  C   UNL     1      -0.812  16.414  20.483  0.00  0.00    +0.000 C 
ATOM      5  C   UNL     1      -2.161  14.395  20.927  0.00  0.00    +0.000 A 
ATOM      6  C   UNL     1      -3.455  14.620  21.286  0.00  0.00    +0.000 A 
ATOM      7  C   UNL     1      -3.975  13.304  21.552  0.00  0.00    +0.000 A 
ATOM      8  N   UNL     1      -3.034  12.355  21.346  0.00  0.00    +0.000 NA
ATOM      9  N   UNL     1      -1.944  13.040  20.979  0.00  0.00    +0.000 N 
ENDROOT
BRANCH   1  13
ATOM     10  C   UNL     1       1.105   8.875  20.478  0.00  0.00    +0.000 A 
ATOM     11  C   UNL     1       0.798   9.459  21.710  0.00  0.00    +0.000 A 
ATOM     12  C   UNL     1       0.216  10.726  21.766  0.00  0.00    +0.000 A 
ATOM     13  C   UNL     1      -0.045  11.428  20.585  0.00  0.00    +0.000 A 
ATOM     14  C   UNL     1       0.265  10.845  19.354  0.00  0.00    +0.000 A 
ATOM     15  C   UNL     1       0.838   9.572  19.300  0.00  0.00    +0.000 A 
BRANCH  10  17
ATOM     16  C   UNL     1       2.381   7.217  19.379  0.00  0.00    +0.000 C 
ATOM     17  O   UNL     1       1.697   7.645  20.551  0.00  0.00    +0.000 OA
ENDBRANCH  10  17
ENDBRANCH   1  13
BRANCH   2  18
ATOM     18  C   UNL     1       1.336  14.196  19.932  0.00  0.00    +0.000 A 
ATOM     19  C   UNL     1       1.634  14.283  18.568  0.00  0.00    +0.000 A 
ATOM     20  C   UNL     1       2.940  14.547  18.143  0.00  0.00    +0.000 A 
ATOM     21  C   UNL     1       3.970  14.726  19.078  0.00  0.00    +0.000 A 
ATOM     22  C   UNL     1       3.671  14.603  20.444  0.00  0.00    +0.000 A 
ATOM     23  C   UNL     1       2.365  14.338  20.868  0.00  0.00    +0.000 A 
BRANCH  21  24
ATOM     24  C   UNL     1       5.374  15.068  18.639  0.00  0.00    +0.000 C 
ATOM     25  F   UNL     1       5.579  16.402  18.451  0.00  0.00    +0.000 F 
ATOM     26  F   UNL     1       6.309  14.676  19.550  0.00  0.00    +0.000 F 
ATOM     27  F   UNL     1       5.721  14.467  17.467  0.00  0.00    +0.000 F 
ENDBRANCH  21  24
ENDBRANCH   2  18
BRANCH   7  28
ATOM     28  C   UNL     1      -5.319  12.923  22.016  0.00  0.00    +0.000 A 
ATOM     29  C   UNL     1      -6.267  12.361  21.151  0.00  0.00    +0.000 A 
ATOM     30  C   UNL     1      -7.557  12.061  21.606  0.00  0.00    +0.000 A 
ATOM     31  C   UNL     1      -7.913  12.312  22.931  0.00  0.00    +0.000 A 
ATOM     32  C   UNL     1      -6.977  12.851  23.807  0.00  0.00    +0.000 A 
ATOM     33  C   UNL     1      -5.690  13.151  23.353  0.00  0.00    +0.000 A 
ENDBRANCH   7  28
TORSDOF 5
ENDMDL
MODEL 7
REMARK VINA RESULT:      -7.2      4.172      5.713
REMARK  Name = 
REMARK  7 active torsions:
REMARK  status: ('A' for Active; 'I' for Inactive)
REMARK    1  A    between atoms: C_1  and  O_2
REMARK    2  A    between atoms: O_2  and  C_3
REMARK    3  A    between atoms: C_6  and  C_7
REMARK    4  A    between atoms: C_8  and  C_9
REMARK    5  A    between atoms: C_12  and  C_13
REMARK    6  A    between atoms: N_19  and  C_20
REMARK    7  A    between atoms: C_23  and  C_24
REMARK                            x       y       z     vdW  Elec       q    Type
REMARK                         _______ _______ _______ _____ _____    ______ ____
ROOT
ATOM      1  C   UNL     1      -0.696  12.853  20.693  0.00  0.00    +0.000 A 
ATOM      2  C   UNL     1      -0.138  14.056  20.396  0.00  0.00    +0.000 A 
ATOM      3  N   UNL     1      -1.118  15.068  20.551  0.00  0.00    +0.000 N 
ATOM      4  C   UNL     1      -0.971  16.498  20.461  0.00  0.00    +0.000 C 
ATOM      5  C   UNL     1      -2.271  14.458  20.950  0.00  0.00    +0.000 A 
ATOM      6  C   UNL     1      -3.570  14.659  21.306  0.00  0.00    +0.000 A 
ATOM      7  C   UNL     1      -4.057  13.338  21.602  0.00  0.00    +0.000 A 
ATOM      8  N   UNL     1      -3.095  12.407  21.416  0.00  0.00    +0.000 NA
ATOM      9  N   UNL     1      -2.022  13.110  21.032  0.00  0.00    +0.000 N 
ENDROOT
BRANCH   1  13
ATOM     10  C   UNL     1       1.062   8.979  20.639  0.00  0.00    +0.000 A 
ATOM     11  C   UNL     1       0.850   9.672  19.444  0.00  0.00    +0.000 A 
ATOM     12  C   UNL     1       0.288  10.949  19.458  0.00  0.00    +0.000 A 
ATOM     13  C   UNL     1      -0.085  11.535  20.671  0.00  0.00    +0.000 A 
ATOM     14  C   UNL     1       0.125  10.841  21.866  0.00  0.00    +0.000 A 
ATOM     15  C   UNL     1       0.697   9.567  21.850  0.00  0.00    +0.000 A 
BRANCH  10  17
ATOM     16  C   UNL     1       2.290   7.484  19.282  0.00  0.00    +0.000 C 
ATOM     17  O   UNL     1       1.592   7.726  20.497  0.00  0.00    +0.000 OA
ENDBRANCH  10  17
ENDBRANCH   1  13
BRANCH   2  18
ATOM     18  C   UNL     1       1.229  14.321  19.956  0.00  0.00    +0.000 A 
ATOM     19  C   UNL     1       2.257  14.439  20.898  0.00  0.00    +0.000 A 
ATOM     20  C   UNL     1       3.575  14.661  20.485  0.00  0.00    +0.000 A 
ATOM     21  C   UNL     1       3.885  14.770  19.121  0.00  0.00    +0.000 A 
ATOM     22  C   UNL     1       2.843  14.687  18.183  0.00  0.00    +0.000 A 
ATOM     23  C   UNL     1       1.525  14.466  18.597  0.00  0.00    +0.000 A 
BRANCH  21  24
ATOM     24  C   UNL     1       5.309  14.953  18.655  0.00  0.00    +0.000 C 
ATOM     25  F   UNL     1       6.238  14.628  19.598  0.00  0.00    +0.000 F 
ATOM     26  F   UNL     1       5.600  14.181  17.570  0.00  0.00    +0.000 F 
ATOM     27  F   UNL     1       5.583  16.234  18.285  0.00  0.00    +0.000 F 
ENDBRANCH  21  24
ENDBRANCH   2  18
BRANCH   7  28
ATOM     28  C   UNL     1      -5.392  12.935  22.076  0.00  0.00    +0.000 A 
ATOM     29  C   UNL     1      -5.790  13.120  23.406  0.00  0.00    +0.000 A 
ATOM     30  C   UNL     1      -7.044  12.675  23.843  0.00  0.00    +0.000 A 
ATOM     31  C   UNL     1      -7.917  12.046  22.956  0.00  0.00    +0.000 A 
ATOM     32  C   UNL     1      -7.544  11.872  21.627  0.00  0.00    +0.000 A 
ATOM     33  C   UNL     1      -6.293  12.316  21.191  0.00  0.00    +0.000 A 
ENDBRANCH   7  28
TORSDOF 5
ENDMDL
MODEL 8
REMARK VINA RESULT:      -7.2      5.714      8.206
REMARK  Name = 
REMARK  7 active torsions:
REMARK  status: ('A' for Active; 'I' for Inactive)
REMARK    1  A    between atoms: C_1  and  O_2
REMARK    2  A    between atoms: O_2  and  C_3
REMARK    3  A    between atoms: C_6  and  C_7
REMARK    4  A    between atoms: C_8  and  C_9
REMARK    5  A    between atoms: C_12  and  C_13
REMARK    6  A    between atoms: N_19  and  C_20
REMARK    7  A    between atoms: C_23  and  C_24
REMARK                            x       y       z     vdW  Elec       q    Type
REMARK                         _______ _______ _______ _____ _____    ______ ____
ROOT
ATOM      1  C   UNL     1       0.069  13.367  20.593  0.00  0.00    +0.000 A 
ATOM      2  C   UNL     1      -0.552  13.934  21.661  0.00  0.00    +0.000 A 
ATOM      3  N   UNL     1       0.337  14.849  22.277  0.00  0.00    +0.000 N 
ATOM      4  C   UNL     1       0.093  15.763  23.364  0.00  0.00    +0.000 C 
ATOM      5  C   UNL     1       1.499  14.829  21.563  0.00  0.00    +0.000 A 
ATOM      6  C   UNL     1       2.750  15.356  21.460  0.00  0.00    +0.000 A 
ATOM      7  C   UNL     1       3.310  14.699  20.308  0.00  0.00    +0.000 A 
ATOM      8  N   UNL     1       2.434  13.820  19.772  0.00  0.00    +0.000 NA
ATOM      9  N   UNL     1       1.344  13.924  20.541  0.00  0.00    +0.000 N 
ENDROOT
BRANCH   1  13
ATOM     10  C   UNL     1      -1.451  10.446  17.899  0.00  0.00    +0.000 A 
ATOM     11  C   UNL     1      -1.645  11.806  17.645  0.00  0.00    +0.000 A 
ATOM     12  C   UNL     1      -1.135  12.768  18.517  0.00  0.00    +0.000 A 
ATOM     13  C   UNL     1      -0.442  12.373  19.665  0.00  0.00    +0.000 A 
ATOM     14  C   UNL     1      -0.250  11.013  19.921  0.00  0.00    +0.000 A 
ATOM     15  C   UNL     1      -0.753  10.052  19.041  0.00  0.00    +0.000 A 
BRANCH  10  17
ATOM     16  C   UNL     1      -2.681  10.220  15.894  0.00  0.00    +0.000 C 
ATOM     17  O   UNL     1      -2.021   9.599  16.990  0.00  0.00    +0.000 OA
ENDBRANCH  10  17
ENDBRANCH   1  13
BRANCH   2  18
ATOM     18  C   UNL     1      -1.899  13.664  22.157  0.00  0.00    +0.000 A 
ATOM     19  C   UNL     1      -2.109  12.643  23.090  0.00  0.00    +0.000 A 
ATOM     20  C   UNL     1      -3.389  12.397  23.596  0.00  0.00    +0.000 A 
ATOM     21  C   UNL     1      -4.482  13.168  23.173  0.00  0.00    +0.000 A 
ATOM     22  C   UNL     1      -4.270  14.168  22.210  0.00  0.00    +0.000 A 
ATOM     23  C   UNL     1      -2.990  14.412  21.704  0.00  0.00    +0.000 A 
BRANCH  21  24
ATOM     24  C   UNL     1      -5.861  12.954  23.751  0.00  0.00    +0.000 C 
ATOM     25  F   UNL     1      -5.870  12.170  24.866  0.00  0.00    +0.000 F 
ATOM     26  F   UNL     1      -6.453  14.125  24.119  0.00  0.00    +0.000 F 
ATOM     27  F   UNL     1      -6.716  12.364  22.871  0.00  0.00    +0.000 F 
ENDBRANCH  21  24
ENDBRANCH   2  18
BRANCH   7  28
ATOM     28  C   UNL     1       4.632  14.894  19.690  0.00  0.00    +0.000 A 
ATOM     29  C   UNL     1       4.838  14.719  18.316  0.00  0.00    +0.000 A 
ATOM     30  C   UNL     1       6.117  14.856  17.764  0.00  0.00    +0.000 A 
ATOM     31  C   UNL     1       7.205  15.174  18.576  0.00  0.00    +0.000 A 
ATOM     32  C   UNL     1       7.014  15.370  19.940  0.00  0.00    +0.000 A 
ATOM     33  C   UNL     1       5.737  15.234  20.491  0.00  0.00    +0.000 A 
ENDBRANCH   7  28
TORSDOF 5
ENDMDL
MODEL 9
REMARK VINA RESULT:      -7.1      5.708      8.201
REMARK  Name = 
REMARK  7 active torsions:
REMARK  status: ('A' for Active; 'I' for Inactive)
REMARK    1  A    between atoms: C_1  and  O_2
REMARK    2  A    between atoms: O_2  and  C_3
REMARK    3  A    between atoms: C_6  and  C_7
REMARK    4  A    between atoms: C_8  and  C_9
REMARK    5  A    between atoms: C_12  and  C_13
REMARK    6  A    between atoms: N_19  and  C_20
REMARK    7  A    between atoms: C_23  and  C_24
REMARK                            x       y       z     vdW  Elec       q    Type
REMARK                         _______ _______ _______ _____ _____    ______ ____
ROOT
ATOM      1  C   UNL     1       0.059  13.437  20.692  0.00  0.00    +0.000 A 
ATOM      2  C   UNL     1      -0.542  14.030  21.757  0.00  0.00    +0.000 A 
ATOM      3  N   UNL     1       0.365  14.945  22.347  0.00  0.00    +0.000 N 
ATOM      4  C   UNL     1       0.145  15.881  23.420  0.00  0.00    +0.000 C 
ATOM      5  C   UNL     1       1.518  14.899  21.619  0.00  0.00    +0.000 A 
ATOM      6  C   UNL     1       2.774  15.410  21.492  0.00  0.00    +0.000 A 
ATOM      7  C   UNL     1       3.312  14.727  20.345  0.00  0.00    +0.000 A 
ATOM      8  N   UNL     1       2.420  13.848  19.835  0.00  0.00    +0.000 NA
ATOM      9  N   UNL     1       1.340  13.979  20.615  0.00  0.00    +0.000 N 
ENDROOT
BRANCH   1  13
ATOM     10  C   UNL     1      -1.527  10.488  18.069  0.00  0.00    +0.000 A 
ATOM     11  C   UNL     1      -1.670  11.845  17.769  0.00  0.00    +0.000 A 
ATOM     12  C   UNL     1      -1.138  12.816  18.619  0.00  0.00    +0.000 A 
ATOM     13  C   UNL     1      -0.473  12.433  19.788  0.00  0.00    +0.000 A 
ATOM     14  C   UNL     1      -0.333  11.075  20.089  0.00  0.00    +0.000 A 
ATOM     15  C   UNL     1      -0.858  10.106  19.231  0.00  0.00    +0.000 A 
BRANCH  10  17
ATOM     16  C   UNL     1      -2.613  10.227  15.986  0.00  0.00    +0.000 C 
ATOM     17  O   UNL     1      -2.114   9.633  17.178  0.00  0.00    +0.000 OA
ENDBRANCH  10  17
ENDBRANCH   1  13
BRANCH   2  18
ATOM     18  C   UNL     1      -1.885  13.783  22.274  0.00  0.00    +0.000 A 
ATOM     19  C   UNL     1      -2.954  14.584  21.855  0.00  0.00    +0.000 A 
ATOM     20  C   UNL     1      -4.250  14.336  22.320  0.00  0.00    +0.000 A 
ATOM     21  C   UNL     1      -4.497  13.283  23.213  0.00  0.00    +0.000 A 
ATOM     22  C   UNL     1      -3.415  12.506  23.657  0.00  0.00    +0.000 A 
ATOM     23  C   UNL     1      -2.119  12.756  23.193  0.00  0.00    +0.000 A 
BRANCH  21  24
ATOM     24  C   UNL     1      -5.897  12.966  23.680  0.00  0.00    +0.000 C 
ATOM     25  F   UNL     1      -6.673  12.382  22.723  0.00  0.00    +0.000 F 
ATOM     26  F   UNL     1      -5.907  12.107  24.737  0.00  0.00    +0.000 F 
ATOM     27  F   UNL     1      -6.579  14.071  24.091  0.00  0.00    +0.000 F 
ENDBRANCH  21  24
ENDBRANCH   2  18
BRANCH   7  28
ATOM     28  C   UNL     1       4.628  14.896  19.708  0.00  0.00    +0.000 A 
ATOM     29  C   UNL     1       4.810  14.720  18.330  0.00  0.00    +0.000 A 
ATOM     30  C   UNL     1       6.083  14.831  17.759  0.00  0.00    +0.000 A 
ATOM     31  C   UNL     1       7.189  15.125  18.556  0.00  0.00    +0.000 A 
ATOM     32  C   UNL     1       7.023  15.322  19.923  0.00  0.00    +0.000 A 
ATOM     33  C   UNL     1       5.752  15.211  20.492  0.00  0.00    +0.000 A 
ENDBRANCH   7  28
TORSDOF 5
ENDMDL
