MODEL 1
REMARK VINA RESULT:      -8.5      0.000      0.000
REMARK  Name = 
REMARK  8 active torsions:
REMARK  status: ('A' for Active; 'I' for Inactive)
REMARK    1  A    between atoms: C_1  and  C_2
REMARK    2  A    between atoms: N_4  and  C_5
REMARK    3  A    between atoms: C_5  and  C_6
REMARK    4  A    between atoms: C_5  and  C_17
REMARK    5  A    between atoms: C_10  and  C_11
REMARK    6  A    between atoms: C_12  and  C_13
REMARK    7  A    between atoms: C_21  and  C_22
REMARK    8  A    between atoms: C_23  and  C_24
REMARK                            x       y       z     vdW  Elec       q    Type
REMARK                         _______ _______ _______ _____ _____    ______ ____
ROOT
ATOM      1  C   UNL     1       3.738   4.787  19.190  0.00  0.00    +0.000 C 
ENDROOT
BRANCH   1   2
ATOM      2  C   UNL     1       4.512   4.606  17.897  0.00  0.00    +0.000 A 
ATOM      3  N   UNL     1       4.228   3.765  16.913  0.00  0.00    +0.000 NA
ATOM      4  C   UNL     1       5.104   4.056  15.895  0.00  0.00    +0.000 A 
ATOM      5  C   UNL     1       5.201   3.512  14.608  0.00  0.00    +0.000 A 
ATOM      6  C   UNL     1       6.186   3.999  13.721  0.00  0.00    +0.000 A 
ATOM      7  C   UNL     1       6.251   3.407  12.339  0.00  0.00    +0.000 C 
ATOM      8  C   UNL     1       7.073   5.016  14.138  0.00  0.00    +0.000 A 
ATOM      9  C   UNL     1       8.172   5.556  13.259  0.00  0.00    +0.000 C 
ATOM     10  C   UNL     1       6.967   5.573  15.428  0.00  0.00    +0.000 A 
ATOM     11  C   UNL     1       5.970   5.069  16.264  0.00  0.00    +0.000 A 
ATOM     12  N   UNL     1       5.589   5.394  17.541  0.00  0.00    +0.000 N 
ATOM     13  H   UNL     1       6.019   6.112  18.105  0.00  0.00    +0.000 HD
ENDBRANCH   1   2
BRANCH   1  14
ATOM     14  C   UNL     1       3.049   6.132  19.267  0.00  0.00    +0.000 A 
ATOM     15  N   UNL     1       2.901   7.020  18.292  0.00  0.00    +0.000 NA
ATOM     16  C   UNL     1       2.171   8.052  18.833  0.00  0.00    +0.000 A 
ATOM     17  C   UNL     1       1.724   9.250  18.251  0.00  0.00    +0.000 A 
ATOM     18  C   UNL     1       0.985  10.172  19.027  0.00  0.00    +0.000 A 
ATOM     19  C   UNL     1       0.544  11.460  18.383  0.00  0.00    +0.000 C 
ATOM     20  C   UNL     1       0.683   9.879  20.376  0.00  0.00    +0.000 A 
ATOM     21  C   UNL     1      -0.089  10.818  21.267  0.00  0.00    +0.000 C 
ATOM     22  C   UNL     1       1.122   8.672  20.957  0.00  0.00    +0.000 A 
ATOM     23  C   UNL     1       1.870   7.805  20.162  0.00  0.00    +0.000 A 
ATOM     24  N   UNL     1       2.472   6.603  20.428  0.00  0.00    +0.000 N 
ATOM     25  H   UNL     1       2.515   6.152  21.333  0.00  0.00    +0.000 HD
ENDBRANCH   1  14
BRANCH   1  29
ATOM     26  C   UNL     1       1.180   2.320  20.482  0.00  0.00    +0.000 C 
ATOM     27  C   UNL     1       2.233   3.389  20.538  0.00  0.00    +0.000 C 
ATOM     28  O   UNL     1       2.624   3.866  21.607  0.00  0.00    +0.000 OA
ATOM     29  N   UNL     1       2.733   3.731  19.303  0.00  0.00    +0.000 N 
ATOM     30  H   UNL     1       2.034   3.739  18.569  0.00  0.00    +0.000 HD
ENDBRANCH   1  29
TORSDOF 3
ENDMDL
MODEL 2
REMARK VINA RESULT:      -8.3      0.829      1.616
REMARK  Name = 
REMARK  8 active torsions:
REMARK  status: ('A' for Active; 'I' for Inactive)
REMARK    1  A    between atoms: C_1  and  C_2
REMARK    2  A    between atoms: N_4  and  C_5
REMARK    3  A    between atoms: C_5  and  C_6
REMARK    4  A    between atoms: C_5  and  C_17
REMARK    5  A    between atoms: C_10  and  C_11
REMARK    6  A    between atoms: C_12  and  C_13
REMARK    7  A    between atoms: C_21  and  C_22
REMARK    8  A    between atoms: C_23  and  C_24
REMARK                            x       y       z     vdW  Elec       q    Type
REMARK                         _______ _______ _______ _____ _____    ______ ____
ROOT
ATOM      1  C   UNL     1       3.947   4.995  18.858  0.00  0.00    +0.000 C 
ENDROOT
BRANCH   1   2
ATOM      2  C   UNL     1       4.627   4.993  17.500  0.00  0.00    +0.000 A 
ATOM      3  N   UNL     1       5.665   5.729  17.131  0.00  0.00    +0.000 NA
ATOM      4  C   UNL     1       6.025   5.285  15.881  0.00  0.00    +0.000 A 
ATOM      5  C   UNL     1       7.090   5.674  15.060  0.00  0.00    +0.000 A 
ATOM      6  C   UNL     1       7.268   5.045  13.808  0.00  0.00    +0.000 A 
ATOM      7  C   UNL     1       8.433   5.473  12.958  0.00  0.00    +0.000 C 
ATOM      8  C   UNL     1       6.366   4.043  13.385  0.00  0.00    +0.000 A 
ATOM      9  C   UNL     1       6.471   3.357  12.047  0.00  0.00    +0.000 C 
ATOM     10  C   UNL     1       5.302   3.642  14.218  0.00  0.00    +0.000 A 
ATOM     11  C   UNL     1       5.175   4.282  15.451  0.00  0.00    +0.000 A 
ATOM     12  N   UNL     1       4.287   4.121  16.484  0.00  0.00    +0.000 N 
ATOM     13  H   UNL     1       3.530   3.453  16.494  0.00  0.00    +0.000 HD
ENDBRANCH   1   2
BRANCH   1  14
ATOM     14  C   UNL     1       3.138   6.252  19.095  0.00  0.00    +0.000 A 
ATOM     15  N   UNL     1       2.848   7.204  18.217  0.00  0.00    +0.000 NA
ATOM     16  C   UNL     1       2.055   8.104  18.888  0.00  0.00    +0.000 A 
ATOM     17  C   UNL     1       1.462   9.298  18.445  0.00  0.00    +0.000 A 
ATOM     18  C   UNL     1       0.685  10.067  19.340  0.00  0.00    +0.000 A 
ATOM     19  C   UNL     1       0.085  11.357  18.843  0.00  0.00    +0.000 C 
ATOM     20  C   UNL     1       0.491   9.627  20.668  0.00  0.00    +0.000 A 
ATOM     21  C   UNL     1      -0.314  10.399  21.680  0.00  0.00    +0.000 C 
ATOM     22  C   UNL     1       1.077   8.423  21.110  0.00  0.00    +0.000 A 
ATOM     23  C   UNL     1       1.857   7.711  20.201  0.00  0.00    +0.000 A 
ATOM     24  N   UNL     1       2.587   6.557  20.322  0.00  0.00    +0.000 N 
ATOM     25  H   UNL     1       2.726   6.033  21.178  0.00  0.00    +0.000 HD
ENDBRANCH   1  14
BRANCH   1  29
ATOM     26  C   UNL     1       2.464   1.607  19.641  0.00  0.00    +0.000 C 
ATOM     27  C   UNL     1       3.500   2.691  19.584  0.00  0.00    +0.000 C 
ATOM     28  O   UNL     1       4.642   2.528  20.025  0.00  0.00    +0.000 OA
ATOM     29  N   UNL     1       3.064   3.835  18.957  0.00  0.00    +0.000 N 
ATOM     30  H   UNL     1       2.095   4.063  19.154  0.00  0.00    +0.000 HD
ENDBRANCH   1  29
TORSDOF 3
ENDMDL
MODEL 3
REMARK VINA RESULT:      -8.2      3.430      5.533
REMARK  Name = 
REMARK  8 active torsions:
REMARK  status: ('A' for Active; 'I' for Inactive)
REMARK    1  A    between atoms: C_1  and  C_2
REMARK    2  A    between atoms: N_4  and  C_5
REMARK    3  A    between atoms: C_5  and  C_6
REMARK    4  A    between atoms: C_5  and  C_17
REMARK    5  A    between atoms: C_10  and  C_11
REMARK    6  A    between atoms: C_12  and  C_13
REMARK    7  A    between atoms: C_21  and  C_22
REMARK    8  A    between atoms: C_23  and  C_24
REMARK                            x       y       z     vdW  Elec       q    Type
REMARK                         _______ _______ _______ _____ _____    ______ ____
ROOT
ATOM      1  C   UNL     1       0.981   9.661  19.924  0.00  0.00    +0.000 C 
ENDROOT
BRANCH   1   2
ATOM      2  C   UNL     1       1.863   8.539  19.407  0.00  0.00    +0.000 A 
ATOM      3  N   UNL     1       1.971   7.318  19.910  0.00  0.00    +0.000 NA
ATOM      4  C   UNL     1       2.761   6.612  19.035  0.00  0.00    +0.000 A 
ATOM      5  C   UNL     1       3.141   5.264  19.053  0.00  0.00    +0.000 A 
ATOM      6  C   UNL     1       3.954   4.757  18.015  0.00  0.00    +0.000 A 
ATOM      7  C   UNL     1       4.328   3.301  18.053  0.00  0.00    +0.000 C 
ATOM      8  C   UNL     1       4.389   5.611  16.976  0.00  0.00    +0.000 A 
ATOM      9  C   UNL     1       5.288   5.150  15.858  0.00  0.00    +0.000 C 
ATOM     10  C   UNL     1       3.995   6.964  16.951  0.00  0.00    +0.000 A 
ATOM     11  C   UNL     1       3.182   7.415  17.991  0.00  0.00    +0.000 A 
ATOM     12  N   UNL     1       2.615   8.637  18.252  0.00  0.00    +0.000 N 
ATOM     13  H   UNL     1       2.719   9.455  17.671  0.00  0.00    +0.000 HD
ENDBRANCH   1   2
BRANCH   1  14
ATOM     14  C   UNL     1      -0.163   9.974  18.983  0.00  0.00    +0.000 A 
ATOM     15  N   UNL     1      -0.336   9.530  17.746  0.00  0.00    +0.000 NA
ATOM     16  C   UNL     1      -1.537  10.050  17.324  0.00  0.00    +0.000 A 
ATOM     17  C   UNL     1      -2.211   9.903  16.100  0.00  0.00    +0.000 A 
ATOM     18  C   UNL     1      -3.449  10.554  15.901  0.00  0.00    +0.000 A 
ATOM     19  C   UNL     1      -4.133  10.400  14.567  0.00  0.00    +0.000 C 
ATOM     20  C   UNL     1      -4.013  11.334  16.934  0.00  0.00    +0.000 A 
ATOM     21  C   UNL     1      -5.322  12.066  16.790  0.00  0.00    +0.000 C 
ATOM     22  C   UNL     1      -3.343  11.473  18.167  0.00  0.00    +0.000 A 
ATOM     23  C   UNL     1      -2.112  10.834  18.310  0.00  0.00    +0.000 A 
ATOM     24  N   UNL     1      -1.205  10.807  19.337  0.00  0.00    +0.000 N 
ATOM     25  H   UNL     1      -1.271  11.336  20.198  0.00  0.00    +0.000 HD
ENDBRANCH   1  14
BRANCH   1  29
ATOM     26  C   UNL     1      -0.433   9.713  23.429  0.00  0.00    +0.000 C 
ATOM     27  C   UNL     1       0.160  10.255  22.162  0.00  0.00    +0.000 C 
ATOM     28  O   UNL     1       0.409  11.455  22.018  0.00  0.00    +0.000 OA
ATOM     29  N   UNL     1       0.435   9.284  21.227  0.00  0.00    +0.000 N 
ATOM     30  H   UNL     1      -0.258   8.545  21.192  0.00  0.00    +0.000 HD
ENDBRANCH   1  29
TORSDOF 3
ENDMDL
MODEL 4
REMARK VINA RESULT:      -8.1      4.321      6.815
REMARK  Name = 
REMARK  8 active torsions:
REMARK  status: ('A' for Active; 'I' for Inactive)
REMARK    1  A    between atoms: C_1  and  C_2
REMARK    2  A    between atoms: N_4  and  C_5
REMARK    3  A    between atoms: C_5  and  C_6
REMARK    4  A    between atoms: C_5  and  C_17
REMARK    5  A    between atoms: C_10  and  C_11
REMARK    6  A    between atoms: C_12  and  C_13
REMARK    7  A    between atoms: C_21  and  C_22
REMARK    8  A    between atoms: C_23  and  C_24
REMARK                            x       y       z     vdW  Elec       q    Type
REMARK                         _______ _______ _______ _____ _____    ______ ____
ROOT
ATOM      1  C   UNL     1       7.445   6.007  17.481  0.00  0.00    +0.000 C 
ENDROOT
BRANCH   1   2
ATOM      2  C   UNL     1       7.829   7.413  17.906  0.00  0.00    +0.000 A 
ATOM      3  N   UNL     1       8.611   7.750  18.921  0.00  0.00    +0.000 NA
ATOM      4  C   UNL     1       8.793   9.109  18.830  0.00  0.00    +0.000 A 
ATOM      5  C   UNL     1       9.579   9.966  19.610  0.00  0.00    +0.000 A 
ATOM      6  C   UNL     1       9.621  11.343  19.302  0.00  0.00    +0.000 A 
ATOM      7  C   UNL     1      10.489  12.234  20.149  0.00  0.00    +0.000 C 
ATOM      8  C   UNL     1       8.863  11.850  18.223  0.00  0.00    +0.000 A 
ATOM      9  C   UNL     1       8.828  13.313  17.861  0.00  0.00    +0.000 C 
ATOM     10  C   UNL     1       8.083  10.985  17.429  0.00  0.00    +0.000 A 
ATOM     11  C   UNL     1       8.084   9.631  17.764  0.00  0.00    +0.000 A 
ATOM     12  N   UNL     1       7.467   8.544  17.199  0.00  0.00    +0.000 N 
ATOM     13  H   UNL     1       6.870   8.578  16.386  0.00  0.00    +0.000 HD
ENDBRANCH   1   2
BRANCH   1  14
ATOM     14  C   UNL     1       6.184   5.522  18.163  0.00  0.00    +0.000 A 
ATOM     15  N   UNL     1       5.016   6.146  18.239  0.00  0.00    +0.000 NA
ATOM     16  C   UNL     1       4.176   5.290  18.911  0.00  0.00    +0.000 A 
ATOM     17  C   UNL     1       2.825   5.437  19.268  0.00  0.00    +0.000 A 
ATOM     18  C   UNL     1       2.172   4.403  19.975  0.00  0.00    +0.000 A 
ATOM     19  C   UNL     1       0.731   4.603  20.369  0.00  0.00    +0.000 C 
ATOM     20  C   UNL     1       2.870   3.220  20.304  0.00  0.00    +0.000 A 
ATOM     21  C   UNL     1       2.243   2.082  21.066  0.00  0.00    +0.000 C 
ATOM     22  C   UNL     1       4.222   3.067  19.937  0.00  0.00    +0.000 A 
ATOM     23  C   UNL     1       4.834   4.123  19.264  0.00  0.00    +0.000 A 
ATOM     24  N   UNL     1       6.116   4.309  18.817  0.00  0.00    +0.000 N 
ATOM     25  H   UNL     1       6.893   3.677  18.971  0.00  0.00    +0.000 HD
ENDBRANCH   1  14
BRANCH   1  29
ATOM     26  C   UNL     1       6.732   4.934  13.926  0.00  0.00    +0.000 C 
ATOM     27  C   UNL     1       6.952   4.790  15.404  0.00  0.00    +0.000 C 
ATOM     28  O   UNL     1       6.913   3.693  15.967  0.00  0.00    +0.000 OA
ATOM     29  N   UNL     1       7.244   5.978  16.033  0.00  0.00    +0.000 N 
ATOM     30  H   UNL     1       6.727   6.770  15.667  0.00  0.00    +0.000 HD
ENDBRANCH   1  29
TORSDOF 3
ENDMDL
MODEL 5
REMARK VINA RESULT:      -8.1      0.979      2.190
REMARK  Name = 
REMARK  8 active torsions:
REMARK  status: ('A' for Active; 'I' for Inactive)
REMARK    1  A    between atoms: C_1  and  C_2
REMARK    2  A    between atoms: N_4  and  C_5
REMARK    3  A    between atoms: C_5  and  C_6
REMARK    4  A    between atoms: C_5  and  C_17
REMARK    5  A    between atoms: C_10  and  C_11
REMARK    6  A    between atoms: C_12  and  C_13
REMARK    7  A    between atoms: C_21  and  C_22
REMARK    8  A    between atoms: C_23  and  C_24
REMARK                            x       y       z     vdW  Elec       q    Type
REMARK                         _______ _______ _______ _____ _____    ______ ____
ROOT
ATOM      1  C   UNL     1       3.922   4.822  19.067  0.00  0.00    +0.000 C 
ENDROOT
BRANCH   1   2
ATOM      2  C   UNL     1       4.569   4.848  17.694  0.00  0.00    +0.000 A 
ATOM      3  N   UNL     1       5.567   5.626  17.302  0.00  0.00    +0.000 NA
ATOM      4  C   UNL     1       5.915   5.197  16.044  0.00  0.00    +0.000 A 
ATOM      5  C   UNL     1       6.945   5.629  15.198  0.00  0.00    +0.000 A 
ATOM      6  C   UNL     1       7.118   5.010  13.941  0.00  0.00    +0.000 A 
ATOM      7  C   UNL     1       8.244   5.485  13.065  0.00  0.00    +0.000 C 
ATOM      8  C   UNL     1       6.248   3.972  13.538  0.00  0.00    +0.000 A 
ATOM      9  C   UNL     1       6.349   3.292  12.197  0.00  0.00    +0.000 C 
ATOM     10  C   UNL     1       5.220   3.528  14.395  0.00  0.00    +0.000 A 
ATOM     11  C   UNL     1       5.097   4.161  15.632  0.00  0.00    +0.000 A 
ATOM     12  N   UNL     1       4.240   3.964  16.685  0.00  0.00    +0.000 N 
ATOM     13  H   UNL     1       3.512   3.266  16.711  0.00  0.00    +0.000 HD
ENDBRANCH   1   2
BRANCH   1  14
ATOM     14  C   UNL     1       3.069   6.045  19.326  0.00  0.00    +0.000 A 
ATOM     15  N   UNL     1       2.425   6.360  20.442  0.00  0.00    +0.000 NA
ATOM     16  C   UNL     1       1.836   7.580  20.205  0.00  0.00    +0.000 A 
ATOM     17  C   UNL     1       1.039   8.381  21.040  0.00  0.00    +0.000 A 
ATOM     18  C   UNL     1       0.536   9.610  20.557  0.00  0.00    +0.000 A 
ATOM     19  C   UNL     1      -0.339  10.433  21.465  0.00  0.00    +0.000 C 
ATOM     20  C   UNL     1       0.850  10.038  19.248  0.00  0.00    +0.000 A 
ATOM     21  C   UNL     1       0.340  11.329  18.661  0.00  0.00    +0.000 C 
ATOM     22  C   UNL     1       1.659   9.239  18.413  0.00  0.00    +0.000 A 
ATOM     23  C   UNL     1       2.111   8.023  18.922  0.00  0.00    +0.000 A 
ATOM     24  N   UNL     1       2.858   7.016  18.368  0.00  0.00    +0.000 N 
ATOM     25  H   UNL     1       3.174   6.975  17.407  0.00  0.00    +0.000 HD
ENDBRANCH   1  14
BRANCH   1  29
ATOM     26  C   UNL     1       1.192   2.236  18.671  0.00  0.00    +0.000 C 
ATOM     27  C   UNL     1       1.912   3.539  18.476  0.00  0.00    +0.000 C 
ATOM     28  O   UNL     1       1.448   4.443  17.776  0.00  0.00    +0.000 OA
ATOM     29  N   UNL     1       3.087   3.627  19.185  0.00  0.00    +0.000 N 
ATOM     30  H   UNL     1       3.606   2.757  19.224  0.00  0.00    +0.000 HD
ENDBRANCH   1  29
TORSDOF 3
ENDMDL
MODEL 6
REMARK VINA RESULT:      -8.0      3.486      5.727
REMARK  Name = 
REMARK  8 active torsions:
REMARK  status: ('A' for Active; 'I' for Inactive)
REMARK    1  A    between atoms: C_1  and  C_2
REMARK    2  A    between atoms: N_4  and  C_5
REMARK    3  A    between atoms: C_5  and  C_6
REMARK    4  A    between atoms: C_5  and  C_17
REMARK    5  A    between atoms: C_10  and  C_11
REMARK    6  A    between atoms: C_12  and  C_13
REMARK    7  A    between atoms: C_21  and  C_22
REMARK    8  A    between atoms: C_23  and  C_24
REMARK                            x       y       z     vdW  Elec       q    Type
REMARK                         _______ _______ _______ _____ _____    ______ ____
ROOT
ATOM      1  C   UNL     1       0.919   9.720  19.792  0.00  0.00    +0.000 C 
ENDROOT
BRANCH   1   2
ATOM      2  C   UNL     1       1.764   8.640  19.140  0.00  0.00    +0.000 A 
ATOM      3  N   UNL     1       2.398   8.722  17.979  0.00  0.00    +0.000 NA
ATOM      4  C   UNL     1       3.147   7.575  17.870  0.00  0.00    +0.000 A 
ATOM      5  C   UNL     1       4.048   7.180  16.873  0.00  0.00    +0.000 A 
ATOM      6  C   UNL     1       4.724   5.946  16.997  0.00  0.00    +0.000 A 
ATOM      7  C   UNL     1       5.699   5.560  15.919  0.00  0.00    +0.000 C 
ATOM      8  C   UNL     1       4.478   5.114  18.113  0.00  0.00    +0.000 A 
ATOM      9  C   UNL     1       5.133   3.768  18.291  0.00  0.00    +0.000 C 
ATOM     10  C   UNL     1       3.582   5.518  19.122  0.00  0.00    +0.000 A 
ATOM     11  C   UNL     1       2.948   6.750  18.963  0.00  0.00    +0.000 A 
ATOM     12  N   UNL     1       2.057   7.436  19.749  0.00  0.00    +0.000 N 
ATOM     13  H   UNL     1       1.704   7.110  20.637  0.00  0.00    +0.000 HD
ENDBRANCH   1   2
BRANCH   1  14
ATOM     14  C   UNL     1      -0.313  10.056  18.980  0.00  0.00    +0.000 A 
ATOM     15  N   UNL     1      -1.342  10.808  19.348  0.00  0.00    +0.000 NA
ATOM     16  C   UNL     1      -2.180  10.857  18.259  0.00  0.00    +0.000 A 
ATOM     17  C   UNL     1      -3.411  11.512  18.089  0.00  0.00    +0.000 A 
ATOM     18  C   UNL     1      -4.098  11.403  16.859  0.00  0.00    +0.000 A 
ATOM     19  C   UNL     1      -5.429  12.093  16.717  0.00  0.00    +0.000 C 
ATOM     20  C   UNL     1      -3.538  10.654  15.800  0.00  0.00    +0.000 A 
ATOM     21  C   UNL     1      -4.217  10.483  14.466  0.00  0.00    +0.000 C 
ATOM     22  C   UNL     1      -2.297  10.005  15.966  0.00  0.00    +0.000 A 
ATOM     23  C   UNL     1      -1.669  10.118  17.205  0.00  0.00    +0.000 A 
ATOM     24  N   UNL     1      -0.507   9.585  17.698  0.00  0.00    +0.000 N 
ATOM     25  H   UNL     1       0.094   8.928  17.214  0.00  0.00    +0.000 HD
ENDBRANCH   1  14
BRANCH   1  29
ATOM     26  C   UNL     1      -0.119   9.576  23.425  0.00  0.00    +0.000 C 
ATOM     27  C   UNL     1       0.351  10.186  22.136  0.00  0.00    +0.000 C 
ATOM     28  O   UNL     1       0.609  11.389  22.039  0.00  0.00    +0.000 OA
ATOM     29  N   UNL     1       0.505   9.272  21.120  0.00  0.00    +0.000 N 
ATOM     30  H   UNL     1      -0.204   8.546  21.115  0.00  0.00    +0.000 HD
ENDBRANCH   1  29
TORSDOF 3
ENDMDL
MODEL 7
REMARK VINA RESULT:      -7.9      0.803      2.118
REMARK  Name = 
REMARK  8 active torsions:
REMARK  status: ('A' for Active; 'I' for Inactive)
REMARK    1  A    between atoms: C_1  and  C_2
REMARK    2  A    between atoms: N_4  and  C_5
REMARK    3  A    between atoms: C_5  and  C_6
REMARK    4  A    between atoms: C_5  and  C_17
REMARK    5  A    between atoms: C_10  and  C_11
REMARK    6  A    between atoms: C_12  and  C_13
REMARK    7  A    between atoms: C_21  and  C_22
REMARK    8  A    between atoms: C_23  and  C_24
REMARK                            x       y       z     vdW  Elec       q    Type
REMARK                         _______ _______ _______ _____ _____    ______ ____
ROOT
ATOM      1  C   UNL     1       3.923   4.944  18.930  0.00  0.00    +0.000 C 
ENDROOT
BRANCH   1   2
ATOM      2  C   UNL     1       4.592   4.959  17.567  0.00  0.00    +0.000 A 
ATOM      3  N   UNL     1       5.606   5.724  17.190  0.00  0.00    +0.000 NA
ATOM      4  C   UNL     1       5.969   5.289  15.938  0.00  0.00    +0.000 A 
ATOM      5  C   UNL     1       7.018   5.707  15.108  0.00  0.00    +0.000 A 
ATOM      6  C   UNL     1       7.203   5.083  13.855  0.00  0.00    +0.000 A 
ATOM      7  C   UNL     1       8.350   5.543  12.997  0.00  0.00    +0.000 C 
ATOM      8  C   UNL     1       6.327   4.055  13.441  0.00  0.00    +0.000 A 
ATOM      9  C   UNL     1       6.441   3.372  12.102  0.00  0.00    +0.000 C 
ATOM     10  C   UNL     1       5.281   3.625  14.281  0.00  0.00    +0.000 A 
ATOM     11  C   UNL     1       5.145   4.262  15.515  0.00  0.00    +0.000 A 
ATOM     12  N   UNL     1       4.269   4.077  16.554  0.00  0.00    +0.000 N 
ATOM     13  H   UNL     1       3.532   3.388  16.570  0.00  0.00    +0.000 HD
ENDBRANCH   1   2
BRANCH   1  14
ATOM     14  C   UNL     1       3.089   6.182  19.176  0.00  0.00    +0.000 A 
ATOM     15  N   UNL     1       2.436   6.509  20.284  0.00  0.00    +0.000 NA
ATOM     16  C   UNL     1       1.872   7.739  20.038  0.00  0.00    +0.000 A 
ATOM     17  C   UNL     1       1.078   8.555  20.862  0.00  0.00    +0.000 A 
ATOM     18  C   UNL     1       0.604   9.792  20.371  0.00  0.00    +0.000 A 
ATOM     19  C   UNL     1      -0.269  10.632  21.268  0.00  0.00    +0.000 C 
ATOM     20  C   UNL     1       0.943  10.214  19.067  0.00  0.00    +0.000 A 
ATOM     21  C   UNL     1       0.465  11.514  18.473  0.00  0.00    +0.000 C 
ATOM     22  C   UNL     1       1.749   9.401  18.244  0.00  0.00    +0.000 A 
ATOM     23  C   UNL     1       2.172   8.177  18.759  0.00  0.00    +0.000 A 
ATOM     24  N   UNL     1       2.908   7.156  18.216  0.00  0.00    +0.000 N 
ATOM     25  H   UNL     1       3.237   7.109  17.259  0.00  0.00    +0.000 HD
ENDBRANCH   1  14
BRANCH   1  29
ATOM     26  C   UNL     1       2.531   1.510  19.683  0.00  0.00    +0.000 C 
ATOM     27  C   UNL     1       3.545   2.615  19.615  0.00  0.00    +0.000 C 
ATOM     28  O   UNL     1       4.704   2.464  20.011  0.00  0.00    +0.000 OA
ATOM     29  N   UNL     1       3.065   3.765  19.033  0.00  0.00    +0.000 N 
ATOM     30  H   UNL     1       2.100   3.969  19.270  0.00  0.00    +0.000 HD
ENDBRANCH   1  29
TORSDOF 3
ENDMDL
MODEL 8
REMARK VINA RESULT:      -7.9      1.027      1.726
REMARK  Name = 
REMARK  8 active torsions:
REMARK  status: ('A' for Active; 'I' for Inactive)
REMARK    1  A    between atoms: C_1  and  C_2
REMARK    2  A    between atoms: N_4  and  C_5
REMARK    3  A    between atoms: C_5  and  C_6
REMARK    4  A    between atoms: C_5  and  C_17
REMARK    5  A    between atoms: C_10  and  C_11
REMARK    6  A    between atoms: C_12  and  C_13
REMARK    7  A    between atoms: C_21  and  C_22
REMARK    8  A    between atoms: C_23  and  C_24
REMARK                            x       y       z     vdW  Elec       q    Type
REMARK                         _______ _______ _______ _____ _____    ______ ____
ROOT
ATOM      1  C   UNL     1       4.015   4.968  18.990  0.00  0.00    +0.000 C 
ENDROOT
BRANCH   1   2
ATOM      2  C   UNL     1       4.650   4.952  17.611  0.00  0.00    +0.000 A 
ATOM      3  N   UNL     1       5.659   5.703  17.194  0.00  0.00    +0.000 NA
ATOM      4  C   UNL     1       5.986   5.241  15.942  0.00  0.00    +0.000 A 
ATOM      5  C   UNL     1       7.016   5.636  15.078  0.00  0.00    +0.000 A 
ATOM      6  C   UNL     1       7.165   4.987  13.833  0.00  0.00    +0.000 A 
ATOM      7  C   UNL     1       8.292   5.422  12.937  0.00  0.00    +0.000 C 
ATOM      8  C   UNL     1       6.272   3.957  13.460  0.00  0.00    +0.000 A 
ATOM      9  C   UNL     1       6.348   3.247  12.133  0.00  0.00    +0.000 C 
ATOM     10  C   UNL     1       5.245   3.551  14.335  0.00  0.00    +0.000 A 
ATOM     11  C   UNL     1       5.145   4.212  15.559  0.00  0.00    +0.000 A 
ATOM     12  N   UNL     1       4.295   4.053  16.624  0.00  0.00    +0.000 N 
ATOM     13  H   UNL     1       3.554   3.370  16.672  0.00  0.00    +0.000 HD
ENDBRANCH   1   2
BRANCH   1  14
ATOM     14  C   UNL     1       3.174   6.204  19.225  0.00  0.00    +0.000 A 
ATOM     15  N   UNL     1       2.913   7.178  18.363  0.00  0.00    +0.000 NA
ATOM     16  C   UNL     1       2.074   8.046  19.020  0.00  0.00    +0.000 A 
ATOM     17  C   UNL     1       1.483   9.244  18.584  0.00  0.00    +0.000 A 
ATOM     18  C   UNL     1       0.651   9.974  19.462  0.00  0.00    +0.000 A 
ATOM     19  C   UNL     1       0.055  11.269  18.975  0.00  0.00    +0.000 C 
ATOM     20  C   UNL     1       0.399   9.490  20.764  0.00  0.00    +0.000 A 
ATOM     21  C   UNL     1      -0.468  10.218  21.759  0.00  0.00    +0.000 C 
ATOM     22  C   UNL     1       0.982   8.282  21.199  0.00  0.00    +0.000 A 
ATOM     23  C   UNL     1       1.817   7.609  20.309  0.00  0.00    +0.000 A 
ATOM     24  N   UNL     1       2.558   6.463  20.432  0.00  0.00    +0.000 N 
ATOM     25  H   UNL     1       2.663   5.915  21.277  0.00  0.00    +0.000 HD
ENDBRANCH   1  14
BRANCH   1  29
ATOM     26  C   UNL     1       1.244   2.411  18.713  0.00  0.00    +0.000 C 
ATOM     27  C   UNL     1       1.970   3.704  18.482  0.00  0.00    +0.000 C 
ATOM     28  O   UNL     1       1.491   4.609  17.794  0.00  0.00    +0.000 OA
ATOM     29  N   UNL     1       3.172   3.784  19.147  0.00  0.00    +0.000 N 
ATOM     30  H   UNL     1       3.682   2.907  19.173  0.00  0.00    +0.000 HD
ENDBRANCH   1  29
TORSDOF 3
ENDMDL
MODEL 9
REMARK VINA RESULT:      -7.9      3.395      5.709
REMARK  Name = 
REMARK  8 active torsions:
REMARK  status: ('A' for Active; 'I' for Inactive)
REMARK    1  A    between atoms: C_1  and  C_2
REMARK    2  A    between atoms: N_4  and  C_5
REMARK    3  A    between atoms: C_5  and  C_6
REMARK    4  A    between atoms: C_5  and  C_17
REMARK    5  A    between atoms: C_10  and  C_11
REMARK    6  A    between atoms: C_12  and  C_13
REMARK    7  A    between atoms: C_21  and  C_22
REMARK    8  A    between atoms: C_23  and  C_24
REMARK                            x       y       z     vdW  Elec       q    Type
REMARK                         _______ _______ _______ _____ _____    ______ ____
ROOT
ATOM      1  C   UNL     1       0.971   9.543  19.915  0.00  0.00    +0.000 C 
ENDROOT
BRANCH   1   2
ATOM      2  C   UNL     1       1.745   8.327  19.439  0.00  0.00    +0.000 A 
ATOM      3  N   UNL     1       2.431   8.214  18.311  0.00  0.00    +0.000 NA
ATOM      4  C   UNL     1       3.081   7.005  18.377  0.00  0.00    +0.000 A 
ATOM      5  C   UNL     1       3.985   6.419  17.482  0.00  0.00    +0.000 A 
ATOM      6  C   UNL     1       4.544   5.158  17.785  0.00  0.00    +0.000 A 
ATOM      7  C   UNL     1       5.526   4.565  16.812  0.00  0.00    +0.000 C 
ATOM      8  C   UNL     1       4.181   4.491  18.977  0.00  0.00    +0.000 A 
ATOM      9  C   UNL     1       4.707   3.128  19.346  0.00  0.00    +0.000 C 
ATOM     10  C   UNL     1       3.282   5.087  19.884  0.00  0.00    +0.000 A 
ATOM     11  C   UNL     1       2.766   6.339  19.548  0.00  0.00    +0.000 A 
ATOM     12  N   UNL     1       1.906   7.185  20.200  0.00  0.00    +0.000 N 
ATOM     13  H   UNL     1       1.489   7.000  21.101  0.00  0.00    +0.000 HD
ENDBRANCH   1   2
BRANCH   1  14
ATOM     14  C   UNL     1      -0.171   9.899  18.987  0.00  0.00    +0.000 A 
ATOM     15  N   UNL     1      -0.346   9.503  17.733  0.00  0.00    +0.000 NA
ATOM     16  C   UNL     1      -1.544  10.046  17.333  0.00  0.00    +0.000 A 
ATOM     17  C   UNL     1      -2.219   9.950  16.104  0.00  0.00    +0.000 A 
ATOM     18  C   UNL     1      -3.453  10.616  15.929  0.00  0.00    +0.000 A 
ATOM     19  C   UNL     1      -4.138  10.517  14.591  0.00  0.00    +0.000 C 
ATOM     20  C   UNL     1      -4.013  11.357  16.993  0.00  0.00    +0.000 A 
ATOM     21  C   UNL     1      -5.318  12.101  16.877  0.00  0.00    +0.000 C 
ATOM     22  C   UNL     1      -3.343  11.444  18.230  0.00  0.00    +0.000 A 
ATOM     23  C   UNL     1      -2.116  10.795  18.348  0.00  0.00    +0.000 A 
ATOM     24  N   UNL     1      -1.209  10.722  19.373  0.00  0.00    +0.000 N 
ATOM     25  H   UNL     1      -1.272  11.218  20.254  0.00  0.00    +0.000 HD
ENDBRANCH   1  14
BRANCH   1  29
ATOM     26  C   UNL     1      -0.363   9.899  23.434  0.00  0.00    +0.000 C 
ATOM     27  C   UNL     1       0.230  10.325  22.123  0.00  0.00    +0.000 C 
ATOM     28  O   UNL     1       0.536  11.498  21.894  0.00  0.00    +0.000 OA
ATOM     29  N   UNL     1       0.435   9.282  21.250  0.00  0.00    +0.000 N 
ATOM     30  H   UNL     1      -0.295   8.578  21.277  0.00  0.00    +0.000 HD
ENDBRANCH   1  29
TORSDOF 3
ENDMDL
