MODEL 1
REMARK VINA RESULT:      -7.5      0.000      0.000
REMARK  Name = 
REMARK  4 active torsions:
REMARK  status: ('A' for Active; 'I' for Inactive)
REMARK    1  A    between atoms: C_1  and  C_2
REMARK    2  A    between atoms: C_2  and  O_3
REMARK    3  A    between atoms: O_3  and  C_4
REMARK    4  A    between atoms: C_4  and  C_6
REMARK                            x       y       z     vdW  Elec       q    Type
REMARK                         _______ _______ _______ _____ _____    ______ ____
ROOT
ATOM      1  C   UNL     1       4.210   3.585  18.906  0.00  0.00    +0.000 C 
ATOM      2  N   UNL     1       5.682   3.686  18.962  0.00  0.00    +0.000 N 
ATOM      3  C   UNL     1       6.192   4.970  18.710  0.00  0.00    +0.000 A 
ATOM      4  C   UNL     1       7.499   5.281  19.113  0.00  0.00    +0.000 A 
ATOM      5  C   UNL     1       8.083   6.507  18.784  0.00  0.00    +0.000 A 
ATOM      6  C   UNL     1       7.369   7.428  18.022  0.00  0.00    +0.000 A 
ATOM      7 BR   UNL     1       8.162   9.072  17.535  0.00  0.00    +0.000 Br
ATOM      8  C   UNL     1       6.082   7.128  17.591  0.00  0.00    +0.000 A 
ATOM      9  C   UNL     1       5.492   5.894  17.918  0.00  0.00    +0.000 A 
ATOM     10  C   UNL     1       4.130   5.572  17.365  0.00  0.00    +0.000 C 
ATOM     11  C   UNL     1       2.991   6.316  18.012  0.00  0.00    +0.000 C 
ATOM     12  C   UNL     1       1.889   5.558  18.057  0.00  0.00    +0.000 C 
ATOM     13  C   UNL     1       2.153   4.199  17.492  0.00  0.00    +0.000 C 
ATOM     14  C   UNL     1       3.692   4.107  17.552  0.00  0.00    +0.000 C 
ATOM     15  H   UNL     1       6.065   3.278  19.815  0.00  0.00    +0.000 HD
ENDROOT
BRANCH   1  16
ATOM     16  C   UNL     1       3.762   2.138  19.162  0.00  0.00    +0.000 C 
ATOM     17  O   UNL     1       3.664   1.254  18.317  0.00  0.00    +0.000 OA
BRANCH  16  18
ATOM     18  O   UNL     1       3.327   2.023  20.456  0.00  0.00    +0.000 OA
BRANCH  18  20
ATOM     19  C   UNL     1       1.201   2.981  20.939  0.00  0.00    +0.000 C 
ATOM     20  C   UNL     1       2.703   3.206  20.979  0.00  0.00    +0.000 C 
ENDBRANCH  18  20
ENDBRANCH  16  18
ENDBRANCH   1  16
TORSDOF 3
ENDMDL
MODEL 2
REMARK VINA RESULT:      -7.2      3.806      5.999
REMARK  Name = 
REMARK  4 active torsions:
REMARK  status: ('A' for Active; 'I' for Inactive)
REMARK    1  A    between atoms: C_1  and  C_2
REMARK    2  A    between atoms: C_2  and  O_3
REMARK    3  A    between atoms: O_3  and  C_4
REMARK    4  A    between atoms: C_4  and  C_6
REMARK                            x       y       z     vdW  Elec       q    Type
REMARK                         _______ _______ _______ _____ _____    ______ ____
ROOT
ATOM      1  C   UNL     1       5.628   4.805  16.316  0.00  0.00    +0.000 C 
ATOM      2  N   UNL     1       4.365   4.049  16.198  0.00  0.00    +0.000 N 
ATOM      3  C   UNL     1       3.659   3.895  17.401  0.00  0.00    +0.000 A 
ATOM      4  C   UNL     1       2.298   3.558  17.361  0.00  0.00    +0.000 A 
ATOM      5  C   UNL     1       1.586   3.287  18.532  0.00  0.00    +0.000 A 
ATOM      6  C   UNL     1       2.239   3.325  19.760  0.00  0.00    +0.000 A 
ATOM      7 BR   UNL     1       1.299   2.920  21.348  0.00  0.00    +0.000 Br
ATOM      8  C   UNL     1       3.595   3.631  19.820  0.00  0.00    +0.000 A 
ATOM      9  C   UNL     1       4.315   3.902  18.642  0.00  0.00    +0.000 A 
ATOM     10  C   UNL     1       5.796   4.149  18.739  0.00  0.00    +0.000 C 
ATOM     11  C   UNL     1       6.179   5.489  19.311  0.00  0.00    +0.000 C 
ATOM     12  C   UNL     1       7.301   5.949  18.744  0.00  0.00    +0.000 C 
ATOM     13  C   UNL     1       7.790   5.006  17.690  0.00  0.00    +0.000 C 
ATOM     14  C   UNL     1       6.533   4.166  17.386  0.00  0.00    +0.000 C 
ATOM     15  H   UNL     1       3.774   4.400  15.444  0.00  0.00    +0.000 HD
ENDROOT
BRANCH   1  16
ATOM     16  C   UNL     1       6.334   4.885  14.954  0.00  0.00    +0.000 C 
ATOM     17  O   UNL     1       7.350   5.524  14.707  0.00  0.00    +0.000 OA
BRANCH  16  18
ATOM     18  O   UNL     1       5.560   4.265  14.008  0.00  0.00    +0.000 OA
BRANCH  18  20
ATOM     19  C   UNL     1       5.293   3.148  11.921  0.00  0.00    +0.000 C 
ATOM     20  C   UNL     1       6.301   3.684  12.924  0.00  0.00    +0.000 C 
ENDBRANCH  18  20
ENDBRANCH  16  18
ENDBRANCH   1  16
TORSDOF 3
ENDMDL
MODEL 3
REMARK VINA RESULT:      -7.2      3.777      5.724
REMARK  Name = 
REMARK  4 active torsions:
REMARK  status: ('A' for Active; 'I' for Inactive)
REMARK    1  A    between atoms: C_1  and  C_2
REMARK    2  A    between atoms: C_2  and  O_3
REMARK    3  A    between atoms: O_3  and  C_4
REMARK    4  A    between atoms: C_4  and  C_6
REMARK                            x       y       z     vdW  Elec       q    Type
REMARK                         _______ _______ _______ _____ _____    ______ ____
ROOT
ATOM      1  C   UNL     1       5.193   4.510  16.215  0.00  0.00    +0.000 C 
ATOM      2  N   UNL     1       4.964   3.155  16.756  0.00  0.00    +0.000 N 
ATOM      3  C   UNL     1       4.060   3.098  17.829  0.00  0.00    +0.000 A 
ATOM      4  C   UNL     1       3.467   1.872  18.163  0.00  0.00    +0.000 A 
ATOM      5  C   UNL     1       2.650   1.747  19.288  0.00  0.00    +0.000 A 
ATOM      6  C   UNL     1       2.437   2.850  20.111  0.00  0.00    +0.000 A 
ATOM      7 BR   UNL     1       1.368   2.686  21.660  0.00  0.00    +0.000 Br
ATOM      8  C   UNL     1       3.038   4.068  19.812  0.00  0.00    +0.000 A 
ATOM      9  C   UNL     1       3.863   4.196  18.681  0.00  0.00    +0.000 A 
ATOM     10  C   UNL     1       4.559   5.507  18.436  0.00  0.00    +0.000 C 
ATOM     11  C   UNL     1       3.667   6.616  17.941  0.00  0.00    +0.000 C 
ATOM     12  C   UNL     1       4.327   7.421  17.098  0.00  0.00    +0.000 C 
ATOM     13  C   UNL     1       5.725   6.934  16.882  0.00  0.00    +0.000 C 
ATOM     14  C   UNL     1       5.640   5.464  17.339  0.00  0.00    +0.000 C 
ATOM     15  H   UNL     1       4.740   2.480  16.025  0.00  0.00    +0.000 HD
ENDROOT
BRANCH   1  16
ATOM     16  C   UNL     1       6.219   4.464  15.072  0.00  0.00    +0.000 C 
ATOM     17  O   UNL     1       7.423   4.677  15.176  0.00  0.00    +0.000 OA
BRANCH  16  18
ATOM     18  O   UNL     1       5.561   4.310  13.881  0.00  0.00    +0.000 OA
BRANCH  18  20
ATOM     19  C   UNL     1       5.335   3.055  11.869  0.00  0.00    +0.000 C 
ATOM     20  C   UNL     1       6.323   3.643  12.863  0.00  0.00    +0.000 C 
ENDBRANCH  18  20
ENDBRANCH  16  18
ENDBRANCH   1  16
TORSDOF 3
ENDMDL
MODEL 4
REMARK VINA RESULT:      -6.8      3.868      5.908
REMARK  Name = 
REMARK  4 active torsions:
REMARK  status: ('A' for Active; 'I' for Inactive)
REMARK    1  A    between atoms: C_1  and  C_2
REMARK    2  A    between atoms: C_2  and  O_3
REMARK    3  A    between atoms: O_3  and  C_4
REMARK    4  A    between atoms: C_4  and  C_6
REMARK                            x       y       z     vdW  Elec       q    Type
REMARK                         _______ _______ _______ _____ _____    ______ ____
ROOT
ATOM      1  C   UNL     1       5.824   4.880  15.689  0.00  0.00    +0.000 C 
ATOM      2  N   UNL     1       4.874   3.760  15.844  0.00  0.00    +0.000 N 
ATOM      3  C   UNL     1       4.002   3.878  16.938  0.00  0.00    +0.000 A 
ATOM      4  C   UNL     1       2.828   3.111  16.966  0.00  0.00    +0.000 A 
ATOM      5  C   UNL     1       1.990   3.114  18.083  0.00  0.00    +0.000 A 
ATOM      6  C   UNL     1       2.334   3.869  19.201  0.00  0.00    +0.000 A 
ATOM      7 BR   UNL     1       1.231   3.850  20.735  0.00  0.00    +0.000 Br
ATOM      8  C   UNL     1       3.508   4.615  19.203  0.00  0.00    +0.000 A 
ATOM      9  C   UNL     1       4.355   4.612  18.081  0.00  0.00    +0.000 A 
ATOM     10  C   UNL     1       5.654   5.367  18.152  0.00  0.00    +0.000 C 
ATOM     11  C   UNL     1       5.523   6.866  18.078  0.00  0.00    +0.000 C 
ATOM     12  C   UNL     1       6.566   7.408  17.439  0.00  0.00    +0.000 C 
ATOM     13  C   UNL     1       7.507   6.347  16.961  0.00  0.00    +0.000 C 
ATOM     14  C   UNL     1       6.624   5.083  16.989  0.00  0.00    +0.000 C 
ATOM     15  H   UNL     1       4.380   3.549  14.976  0.00  0.00    +0.000 HD
ENDROOT
BRANCH   1  16
ATOM     16  C   UNL     1       6.749   4.636  14.487  0.00  0.00    +0.000 C 
ATOM     17  O   UNL     1       7.612   5.403  14.076  0.00  0.00    +0.000 OA
BRANCH  16  18
ATOM     18  O   UNL     1       6.352   3.497  13.837  0.00  0.00    +0.000 OA
BRANCH  18  20
ATOM     19  C   UNL     1       4.996   3.277  11.891  0.00  0.00    +0.000 C 
ATOM     20  C   UNL     1       6.392   3.587  12.404  0.00  0.00    +0.000 C 
ENDBRANCH  18  20
ENDBRANCH  16  18
ENDBRANCH   1  16
TORSDOF 3
ENDMDL
MODEL 5
REMARK VINA RESULT:      -6.7      3.913      5.410
REMARK  Name = 
REMARK  4 active torsions:
REMARK  status: ('A' for Active; 'I' for Inactive)
REMARK    1  A    between atoms: C_1  and  C_2
REMARK    2  A    between atoms: C_2  and  O_3
REMARK    3  A    between atoms: O_3  and  C_4
REMARK    4  A    between atoms: C_4  and  C_6
REMARK                            x       y       z     vdW  Elec       q    Type
REMARK                         _______ _______ _______ _____ _____    ______ ____
ROOT
ATOM      1  C   UNL     1       6.964   5.573  17.703  0.00  0.00    +0.000 C 
ATOM      2  N   UNL     1       7.719   5.071  16.537  0.00  0.00    +0.000 N 
ATOM      3  C   UNL     1       6.930   4.755  15.420  0.00  0.00    +0.000 A 
ATOM      4  C   UNL     1       7.536   4.652  14.159  0.00  0.00    +0.000 A 
ATOM      5  C   UNL     1       6.810   4.232  13.042  0.00  0.00    +0.000 A 
ATOM      6  C   UNL     1       5.470   3.884  13.181  0.00  0.00    +0.000 A 
ATOM      7 BR   UNL     1       4.487   3.274  11.687  0.00  0.00    +0.000 Br
ATOM      8  C   UNL     1       4.858   3.953  14.428  0.00  0.00    +0.000 A 
ATOM      9  C   UNL     1       5.586   4.373  15.555  0.00  0.00    +0.000 A 
ATOM     10  C   UNL     1       4.912   4.357  16.900  0.00  0.00    +0.000 C 
ATOM     11  C   UNL     1       3.900   5.453  17.116  0.00  0.00    +0.000 C 
ATOM     12  C   UNL     1       3.890   5.851  18.394  0.00  0.00    +0.000 C 
ATOM     13  C   UNL     1       4.919   5.112  19.190  0.00  0.00    +0.000 C 
ATOM     14  C   UNL     1       5.861   4.571  18.095  0.00  0.00    +0.000 C 
ATOM     15  H   UNL     1       8.506   5.674  16.298  0.00  0.00    +0.000 HD
ENDROOT
BRANCH   1  16
ATOM     16  C   UNL     1       7.915   5.855  18.876  0.00  0.00    +0.000 C 
ATOM     17  O   UNL     1       8.141   5.101  19.817  0.00  0.00    +0.000 OA
BRANCH  16  18
ATOM     18  O   UNL     1       8.350   7.152  18.802  0.00  0.00    +0.000 OA
BRANCH  18  20
ATOM     19  C   UNL     1       8.237   9.358  17.911  0.00  0.00    +0.000 C 
ATOM     20  C   UNL     1       7.675   7.949  17.817  0.00  0.00    +0.000 C 
ENDBRANCH  18  20
ENDBRANCH  16  18
ENDBRANCH   1  16
TORSDOF 3
ENDMDL
MODEL 6
REMARK VINA RESULT:      -6.4      4.416      6.008
REMARK  Name = 
REMARK  4 active torsions:
REMARK  status: ('A' for Active; 'I' for Inactive)
REMARK    1  A    between atoms: C_1  and  C_2
REMARK    2  A    between atoms: C_2  and  O_3
REMARK    3  A    between atoms: O_3  and  C_4
REMARK    4  A    between atoms: C_4  and  C_6
REMARK                            x       y       z     vdW  Elec       q    Type
REMARK                         _______ _______ _______ _____ _____    ______ ____
ROOT
ATOM      1  C   UNL     1       6.891   6.140  16.969  0.00  0.00    +0.000 C 
ATOM      2  N   UNL     1       7.711   5.882  15.768  0.00  0.00    +0.000 N 
ATOM      3  C   UNL     1       7.058   5.159  14.757  0.00  0.00    +0.000 A 
ATOM      4  C   UNL     1       7.568   5.192  13.451  0.00  0.00    +0.000 A 
ATOM      5  C   UNL     1       7.015   4.402  12.440  0.00  0.00    +0.000 A 
ATOM      6  C   UNL     1       5.957   3.547  12.734  0.00  0.00    +0.000 A 
ATOM      7 BR   UNL     1       5.227   2.442  11.387  0.00  0.00    +0.000 Br
ATOM      8  C   UNL     1       5.454   3.480  14.029  0.00  0.00    +0.000 A 
ATOM      9  C   UNL     1       6.010   4.273  15.049  0.00  0.00    +0.000 A 
ATOM     10  C   UNL     1       5.493   4.113  16.453  0.00  0.00    +0.000 C 
ATOM     11  C   UNL     1       4.130   4.709  16.699  0.00  0.00    +0.000 C 
ATOM     12  C   UNL     1       4.036   5.191  17.944  0.00  0.00    +0.000 C 
ATOM     13  C   UNL     1       5.329   5.026  18.679  0.00  0.00    +0.000 C 
ATOM     14  C   UNL     1       6.339   4.817  17.532  0.00  0.00    +0.000 C 
ATOM     15  H   UNL     1       8.155   6.729  15.414  0.00  0.00    +0.000 HD
ENDROOT
BRANCH   1  16
ATOM     16  C   UNL     1       7.710   6.904  18.022  0.00  0.00    +0.000 C 
ATOM     17  O   UNL     1       8.102   6.455  19.093  0.00  0.00    +0.000 OA
BRANCH  16  18
ATOM     18  O   UNL     1       7.796   8.221  17.657  0.00  0.00    +0.000 OA
BRANCH  18  20
ATOM     19  C   UNL     1       8.627  10.433  17.957  0.00  0.00    +0.000 C 
ATOM     20  C   UNL     1       8.574   9.035  18.549  0.00  0.00    +0.000 C 
ENDBRANCH  18  20
ENDBRANCH  16  18
ENDBRANCH   1  16
TORSDOF 3
ENDMDL
MODEL 7
REMARK VINA RESULT:      -6.3      3.049      4.161
REMARK  Name = 
REMARK  4 active torsions:
REMARK  status: ('A' for Active; 'I' for Inactive)
REMARK    1  A    between atoms: C_1  and  C_2
REMARK    2  A    between atoms: C_2  and  O_3
REMARK    3  A    between atoms: O_3  and  C_4
REMARK    4  A    between atoms: C_4  and  C_6
REMARK                            x       y       z     vdW  Elec       q    Type
REMARK                         _______ _______ _______ _____ _____    ______ ____
ROOT
ATOM      1  C   UNL     1       2.580   5.368  18.994  0.00  0.00    +0.000 C 
ATOM      2  N   UNL     1       3.592   6.247  18.372  0.00  0.00    +0.000 N 
ATOM      3  C   UNL     1       4.192   5.723  17.215  0.00  0.00    +0.000 A 
ATOM      4  C   UNL     1       4.853   6.590  16.332  0.00  0.00    +0.000 A 
ATOM      5  C   UNL     1       5.556   6.099  15.231  0.00  0.00    +0.000 A 
ATOM      6  C   UNL     1       5.628   4.725  15.015  0.00  0.00    +0.000 A 
ATOM      7 BR   UNL     1       6.611   4.045  13.552  0.00  0.00    +0.000 Br
ATOM      8  C   UNL     1       5.002   3.848  15.894  0.00  0.00    +0.000 A 
ATOM      9  C   UNL     1       4.295   4.339  17.005  0.00  0.00    +0.000 A 
ATOM     10  C   UNL     1       3.700   3.357  17.978  0.00  0.00    +0.000 C 
ATOM     11  C   UNL     1       2.471   2.639  17.482  0.00  0.00    +0.000 C 
ATOM     12  C   UNL     1       1.620   2.398  18.487  0.00  0.00    +0.000 C 
ATOM     13  C   UNL     1       2.140   2.960  19.772  0.00  0.00    +0.000 C 
ATOM     14  C   UNL     1       3.187   3.984  19.288  0.00  0.00    +0.000 C 
ATOM     15  H   UNL     1       3.246   7.196  18.233  0.00  0.00    +0.000 HD
ENDROOT
BRANCH   1  16
ATOM     16  C   UNL     1       2.014   6.020  20.265  0.00  0.00    +0.000 C 
ATOM     17  O   UNL     1       1.430   5.438  21.173  0.00  0.00    +0.000 OA
BRANCH  16  18
ATOM     18  O   UNL     1       2.112   7.382  20.155  0.00  0.00    +0.000 OA
BRANCH  18  20
ATOM     19  C   UNL     1       0.760   9.334  20.342  0.00  0.00    +0.000 C 
ATOM     20  C   UNL     1       1.286   8.112  21.076  0.00  0.00    +0.000 C 
ENDBRANCH  18  20
ENDBRANCH  16  18
ENDBRANCH   1  16
TORSDOF 3
ENDMDL
MODEL 8
REMARK VINA RESULT:      -6.2      3.293      5.151
REMARK  Name = 
REMARK  4 active torsions:
REMARK  status: ('A' for Active; 'I' for Inactive)
REMARK    1  A    between atoms: C_1  and  C_2
REMARK    2  A    between atoms: C_2  and  O_3
REMARK    3  A    between atoms: O_3  and  C_4
REMARK    4  A    between atoms: C_4  and  C_6
REMARK                            x       y       z     vdW  Elec       q    Type
REMARK                         _______ _______ _______ _____ _____    ______ ____
ROOT
ATOM      1  C   UNL     1       2.855   4.428  18.520  0.00  0.00    +0.000 C 
ATOM      2  N   UNL     1       2.520   5.808  18.114  0.00  0.00    +0.000 N 
ATOM      3  C   UNL     1       2.112   6.646  19.165  0.00  0.00    +0.000 A 
ATOM      4  C   UNL     1       2.150   8.037  18.989  0.00  0.00    +0.000 A 
ATOM      5  C   UNL     1       1.650   8.902  19.965  0.00  0.00    +0.000 A 
ATOM      6  C   UNL     1       1.080   8.379  21.122  0.00  0.00    +0.000 A 
ATOM      7 BR   UNL     1       0.362   9.536  22.432  0.00  0.00    +0.000 Br
ATOM      8  C   UNL     1       1.008   7.002  21.304  0.00  0.00    +0.000 A 
ATOM      9  C   UNL     1       1.508   6.129  20.322  0.00  0.00    +0.000 A 
ATOM     10  C   UNL     1       1.340   4.646  20.517  0.00  0.00    +0.000 C 
ATOM     11  C   UNL     1       2.245   4.036  21.556  0.00  0.00    +0.000 C 
ATOM     12  C   UNL     1       2.597   2.791  21.214  0.00  0.00    +0.000 C 
ATOM     13  C   UNL     1       2.016   2.420  19.886  0.00  0.00    +0.000 C 
ATOM     14  C   UNL     1       1.672   3.795  19.277  0.00  0.00    +0.000 C 
ATOM     15  H   UNL     1       3.253   6.231  17.544  0.00  0.00    +0.000 HD
ENDROOT
BRANCH   1  16
ATOM     16  C   UNL     1       3.255   3.592  17.295  0.00  0.00    +0.000 C 
ATOM     17  O   UNL     1       2.499   2.912  16.610  0.00  0.00    +0.000 OA
BRANCH  16  18
ATOM     18  O   UNL     1       4.620   3.587  17.178  0.00  0.00    +0.000 OA
BRANCH  18  20
ATOM     19  C   UNL     1       6.614   4.305  16.091  0.00  0.00    +0.000 C 
ATOM     20  C   UNL     1       5.112   4.126  15.942  0.00  0.00    +0.000 C 
ENDBRANCH  18  20
ENDBRANCH  16  18
ENDBRANCH   1  16
TORSDOF 3
ENDMDL
MODEL 9
REMARK VINA RESULT:      -6.1      2.267      2.641
REMARK  Name = 
REMARK  4 active torsions:
REMARK  status: ('A' for Active; 'I' for Inactive)
REMARK    1  A    between atoms: C_1  and  C_2
REMARK    2  A    between atoms: C_2  and  O_3
REMARK    3  A    between atoms: O_3  and  C_4
REMARK    4  A    between atoms: C_4  and  C_6
REMARK                            x       y       z     vdW  Elec       q    Type
REMARK                         _______ _______ _______ _____ _____    ______ ____
ROOT
ATOM      1  C   UNL     1       3.815   3.290  19.641  0.00  0.00    +0.000 C 
ATOM      2  N   UNL     1       5.268   3.489  19.466  0.00  0.00    +0.000 N 
ATOM      3  C   UNL     1       5.648   3.940  18.192  0.00  0.00    +0.000 A 
ATOM      4  C   UNL     1       6.908   4.532  18.020  0.00  0.00    +0.000 A 
ATOM      5  C   UNL     1       7.370   4.893  16.753  0.00  0.00    +0.000 A 
ATOM      6  C   UNL     1       6.581   4.640  15.634  0.00  0.00    +0.000 A 
ATOM      7 BR   UNL     1       7.211   5.085  13.909  0.00  0.00    +0.000 Br
ATOM      8  C   UNL     1       5.340   4.030  15.780  0.00  0.00    +0.000 A 
ATOM      9  C   UNL     1       4.874   3.663  17.054  0.00  0.00    +0.000 A 
ATOM     10  C   UNL     1       3.563   2.932  17.163  0.00  0.00    +0.000 C 
ATOM     11  C   UNL     1       2.341   3.784  16.934  0.00  0.00    +0.000 C 
ATOM     12  C   UNL     1       1.321   3.373  17.698  0.00  0.00    +0.000 C 
ATOM     13  C   UNL     1       1.735   2.229  18.569  0.00  0.00    +0.000 C 
ATOM     14  C   UNL     1       3.273   2.341  18.556  0.00  0.00    +0.000 C 
ATOM     15  H   UNL     1       5.673   4.052  20.213  0.00  0.00    +0.000 HD
ENDROOT
BRANCH   1  16
ATOM     16  C   UNL     1       3.513   2.766  21.053  0.00  0.00    +0.000 C 
ATOM     17  O   UNL     1       4.032   1.791  21.585  0.00  0.00    +0.000 OA
BRANCH  16  18
ATOM     18  O   UNL     1       2.449   3.456  21.573  0.00  0.00    +0.000 OA
BRANCH  18  20
ATOM     19  C   UNL     1       1.002   5.096  20.629  0.00  0.00    +0.000 C 
ATOM     20  C   UNL     1       2.392   4.838  21.185  0.00  0.00    +0.000 C 
ENDBRANCH  18  20
ENDBRANCH  16  18
ENDBRANCH   1  16
TORSDOF 3
ENDMDL
