MODEL 1
REMARK VINA RESULT:      -7.1      0.000      0.000
REMARK  Name = 
REMARK  3 active torsions:
REMARK  status: ('A' for Active; 'I' for Inactive)
REMARK    1  A    between atoms: C_2  and  C_3
REMARK    2  A    between atoms: C_5  and  C_6
REMARK    3  A    between atoms: N_15  and  C_16
REMARK                            x       y       z     vdW  Elec       q    Type
REMARK                         _______ _______ _______ _____ _____    ______ ____
ROOT
ATOM      1  O   UNL     1       2.414  10.183  17.445  0.00  0.00    +0.000 OA
ATOM      2  C   UNL     1       1.949   9.444  18.303  0.00  0.00    +0.000 C 
ATOM      3  N   UNL     1       1.382   9.924  19.486  0.00  0.00    +0.000 N 
ATOM      4  C   UNL     1       0.875   9.067  20.556  0.00  0.00    +0.000 C 
ATOM      5  C   UNL     1       0.945   9.749  21.931  0.00  0.00    +0.000 C 
ATOM      6  N   UNL     1       0.317  11.080  21.990  0.00  0.00    +0.000 NA
ATOM      7  C   UNL     1       0.889  11.927  20.918  0.00  0.00    +0.000 C 
ATOM      8  C   UNL     1       0.892  11.305  19.506  0.00  0.00    +0.000 C 
ENDROOT
BRANCH   2   9
ATOM      9  C   UNL     1       1.906   7.965  18.066  0.00  0.00    +0.000 C 
ATOM     10  C   UNL     1       3.122   7.311  17.461  0.00  0.00    +0.000 C 
ATOM     11  C   UNL     1       2.715   6.965  18.876  0.00  0.00    +0.000 C 
BRANCH  11  12
ATOM     12  C   UNL     1       2.138   5.585  19.151  0.00  0.00    +0.000 A 
ATOM     13  C   UNL     1       1.963   4.644  18.121  0.00  0.00    +0.000 A 
ATOM     14  C   UNL     1       1.414   3.381  18.365  0.00  0.00    +0.000 A 
ATOM     15  C   UNL     1       1.027   3.024  19.656  0.00  0.00    +0.000 A 
ATOM     16  C   UNL     1       1.200   3.932  20.696  0.00  0.00    +0.000 A 
ATOM     17  C   UNL     1       1.754   5.192  20.445  0.00  0.00    +0.000 A 
ENDBRANCH  11  12
ENDBRANCH   2   9
BRANCH   6  18
ATOM     18  C   UNL     1      -1.158  11.030  21.996  0.00  0.00    +0.000 C 
ATOM     19  C   UNL     1      -1.917  11.635  23.153  0.00  0.00    +0.000 C 
ATOM     20  C   UNL     1      -1.937  12.308  21.815  0.00  0.00    +0.000 C 
ENDBRANCH   6  18
TORSDOF 3
ENDMDL
MODEL 2
REMARK VINA RESULT:      -7.0      0.382      1.130
REMARK  Name = 
REMARK  3 active torsions:
REMARK  status: ('A' for Active; 'I' for Inactive)
REMARK    1  A    between atoms: C_2  and  C_3
REMARK    2  A    between atoms: C_5  and  C_6
REMARK    3  A    between atoms: N_15  and  C_16
REMARK                            x       y       z     vdW  Elec       q    Type
REMARK                         _______ _______ _______ _____ _____    ______ ____
ROOT
ATOM      1  O   UNL     1       2.374   9.749  17.369  0.00  0.00    +0.000 OA
ATOM      2  C   UNL     1       1.950   9.070  18.294  0.00  0.00    +0.000 C 
ATOM      3  N   UNL     1       1.432   9.627  19.466  0.00  0.00    +0.000 N 
ATOM      4  C   UNL     1       0.976   8.844  20.612  0.00  0.00    +0.000 C 
ATOM      5  C   UNL     1       1.103   9.617  21.933  0.00  0.00    +0.000 C 
ATOM      6  N   UNL     1       0.471  10.948  21.930  0.00  0.00    +0.000 NA
ATOM      7  C   UNL     1       0.992  11.722  20.780  0.00  0.00    +0.000 C 
ATOM      8  C   UNL     1       0.936  11.006  19.415  0.00  0.00    +0.000 C 
ENDROOT
BRANCH   2   9
ATOM      9  C   UNL     1       1.903   7.578  18.159  0.00  0.00    +0.000 C 
ATOM     10  C   UNL     1       3.105   6.884  17.570  0.00  0.00    +0.000 C 
ATOM     11  C   UNL     1       2.735   6.635  19.014  0.00  0.00    +0.000 C 
BRANCH  11  12
ATOM     12  C   UNL     1       2.167   5.278  19.398  0.00  0.00    +0.000 A 
ATOM     13  C   UNL     1       2.020   4.899  20.744  0.00  0.00    +0.000 A 
ATOM     14  C   UNL     1       1.518   3.644  21.103  0.00  0.00    +0.000 A 
ATOM     15  C   UNL     1       1.144   2.731  20.117  0.00  0.00    +0.000 A 
ATOM     16  C   UNL     1       1.268   3.085  18.777  0.00  0.00    +0.000 A 
ATOM     17  C   UNL     1       1.768   4.345  18.426  0.00  0.00    +0.000 A 
ENDBRANCH  11  12
ENDBRANCH   2   9
BRANCH   6  18
ATOM     18  C   UNL     1      -1.002  10.895  22.004  0.00  0.00    +0.000 C 
ATOM     19  C   UNL     1      -1.714  11.582  23.145  0.00  0.00    +0.000 C 
ATOM     20  C   UNL     1      -1.795  12.156  21.765  0.00  0.00    +0.000 C 
ENDBRANCH   6  18
TORSDOF 3
ENDMDL
MODEL 3
REMARK VINA RESULT:      -6.8      1.265      1.632
REMARK  Name = 
REMARK  3 active torsions:
REMARK  status: ('A' for Active; 'I' for Inactive)
REMARK    1  A    between atoms: C_2  and  C_3
REMARK    2  A    between atoms: C_5  and  C_6
REMARK    3  A    between atoms: N_15  and  C_16
REMARK                            x       y       z     vdW  Elec       q    Type
REMARK                         _______ _______ _______ _____ _____    ______ ____
ROOT
ATOM      1  O   UNL     1       2.408   8.941  17.357  0.00  0.00    +0.000 OA
ATOM      2  C   UNL     1       2.095   8.391  18.404  0.00  0.00    +0.000 C 
ATOM      3  N   UNL     1       1.595   9.089  19.505  0.00  0.00    +0.000 N 
ATOM      4  C   UNL     1       1.271   8.470  20.788  0.00  0.00    +0.000 C 
ATOM      5  C   UNL     1       1.401   9.454  21.960  0.00  0.00    +0.000 C 
ATOM      6  N   UNL     1       0.658  10.714  21.790  0.00  0.00    +0.000 NA
ATOM      7  C   UNL     1       1.047  11.329  20.500  0.00  0.00    +0.000 C 
ATOM      8  C   UNL     1       0.981  10.399  19.272  0.00  0.00    +0.000 C 
ENDROOT
BRANCH   2   9
ATOM      9  C   UNL     1       2.170   6.897  18.509  0.00  0.00    +0.000 C 
ATOM     10  C   UNL     1       3.148   6.175  17.618  0.00  0.00    +0.000 C 
ATOM     11  C   UNL     1       3.353   6.161  19.116  0.00  0.00    +0.000 C 
BRANCH  11  12
ATOM     12  C   UNL     1       3.118   4.862  19.871  0.00  0.00    +0.000 A 
ATOM     13  C   UNL     1       2.185   4.784  20.921  0.00  0.00    +0.000 A 
ATOM     14  C   UNL     1       1.979   3.598  21.633  0.00  0.00    +0.000 A 
ATOM     15  C   UNL     1       2.702   2.451  21.307  0.00  0.00    +0.000 A 
ATOM     16  C   UNL     1       3.622   2.498  20.265  0.00  0.00    +0.000 A 
ATOM     17  C   UNL     1       3.820   3.687  19.554  0.00  0.00    +0.000 A 
ENDBRANCH  11  12
ENDBRANCH   2   9
BRANCH   6  18
ATOM     18  C   UNL     1      -0.799  10.562  21.970  0.00  0.00    +0.000 C 
ATOM     19  C   UNL     1      -1.464  11.161  23.186  0.00  0.00    +0.000 C 
ATOM     20  C   UNL     1      -1.686  11.774  21.838  0.00  0.00    +0.000 C 
ENDBRANCH   6  18
TORSDOF 3
ENDMDL
MODEL 4
REMARK VINA RESULT:      -6.8      3.823      7.891
REMARK  Name = 
REMARK  3 active torsions:
REMARK  status: ('A' for Active; 'I' for Inactive)
REMARK    1  A    between atoms: C_2  and  C_3
REMARK    2  A    between atoms: C_5  and  C_6
REMARK    3  A    between atoms: N_15  and  C_16
REMARK                            x       y       z     vdW  Elec       q    Type
REMARK                         _______ _______ _______ _____ _____    ______ ____
ROOT
ATOM      1  O   UNL     1       3.771   3.754  19.810  0.00  0.00    +0.000 OA
ATOM      2  C   UNL     1       3.679   4.743  19.096  0.00  0.00    +0.000 C 
ATOM      3  N   UNL     1       4.596   5.031  18.082  0.00  0.00    +0.000 N 
ATOM      4  C   UNL     1       4.549   6.234  17.254  0.00  0.00    +0.000 C 
ATOM      5  C   UNL     1       5.937   6.641  16.738  0.00  0.00    +0.000 C 
ATOM      6  N   UNL     1       6.677   5.568  16.053  0.00  0.00    +0.000 NA
ATOM      7  C   UNL     1       6.739   4.385  16.942  0.00  0.00    +0.000 C 
ATOM      8  C   UNL     1       5.390   3.928  17.535  0.00  0.00    +0.000 C 
ENDROOT
BRANCH   2   9
ATOM      9  C   UNL     1       2.502   5.659  19.244  0.00  0.00    +0.000 C 
ATOM     10  C   UNL     1       1.734   5.619  20.540  0.00  0.00    +0.000 C 
ATOM     11  C   UNL     1       2.495   6.869  20.163  0.00  0.00    +0.000 C 
BRANCH  11  12
ATOM     12  C   UNL     1       1.709   8.108  19.763  0.00  0.00    +0.000 A 
ATOM     13  C   UNL     1       1.801   8.647  18.467  0.00  0.00    +0.000 A 
ATOM     14  C   UNL     1       1.097   9.798  18.099  0.00  0.00    +0.000 A 
ATOM     15  C   UNL     1       0.273  10.440  19.023  0.00  0.00    +0.000 A 
ATOM     16  C   UNL     1       0.156   9.921  20.308  0.00  0.00    +0.000 A 
ATOM     17  C   UNL     1       0.861   8.767  20.668  0.00  0.00    +0.000 A 
ENDBRANCH  11  12
ENDBRANCH   2   9
BRANCH   6  18
ATOM     18  C   UNL     1       6.166   5.279  14.699  0.00  0.00    +0.000 C 
ATOM     19  C   UNL     1       7.138   4.927  13.597  0.00  0.00    +0.000 C 
ATOM     20  C   UNL     1       6.245   3.869  14.170  0.00  0.00    +0.000 C 
ENDBRANCH   6  18
TORSDOF 3
ENDMDL
MODEL 5
REMARK VINA RESULT:      -6.7      3.709      7.884
REMARK  Name = 
REMARK  3 active torsions:
REMARK  status: ('A' for Active; 'I' for Inactive)
REMARK    1  A    between atoms: C_2  and  C_3
REMARK    2  A    between atoms: C_5  and  C_6
REMARK    3  A    between atoms: N_15  and  C_16
REMARK                            x       y       z     vdW  Elec       q    Type
REMARK                         _______ _______ _______ _____ _____    ______ ____
ROOT
ATOM      1  O   UNL     1       3.534   3.936  20.028  0.00  0.00    +0.000 OA
ATOM      2  C   UNL     1       3.477   4.903  19.280  0.00  0.00    +0.000 C 
ATOM      3  N   UNL     1       4.418   5.137  18.274  0.00  0.00    +0.000 N 
ATOM      4  C   UNL     1       4.412   6.312  17.406  0.00  0.00    +0.000 C 
ATOM      5  C   UNL     1       5.818   6.672  16.903  0.00  0.00    +0.000 C 
ATOM      6  N   UNL     1       6.546   5.561  16.267  0.00  0.00    +0.000 NA
ATOM      7  C   UNL     1       6.566   4.407  17.195  0.00  0.00    +0.000 C 
ATOM      8  C   UNL     1       5.197   3.999  17.779  0.00  0.00    +0.000 C 
ENDROOT
BRANCH   2   9
ATOM      9  C   UNL     1       2.318   5.847  19.375  0.00  0.00    +0.000 C 
ATOM     10  C   UNL     1       1.533   5.875  20.662  0.00  0.00    +0.000 C 
ATOM     11  C   UNL     1       2.325   7.094  20.246  0.00  0.00    +0.000 C 
BRANCH  11  12
ATOM     12  C   UNL     1       1.571   8.331  19.787  0.00  0.00    +0.000 A 
ATOM     13  C   UNL     1       0.659   8.990  20.631  0.00  0.00    +0.000 A 
ATOM     14  C   UNL     1      -0.053  10.117  20.207  0.00  0.00    +0.000 A 
ATOM     15  C   UNL     1       0.135  10.619  18.919  0.00  0.00    +0.000 A 
ATOM     16  C   UNL     1       1.040   9.994  18.068  0.00  0.00    +0.000 A 
ATOM     17  C   UNL     1       1.751   8.869  18.501  0.00  0.00    +0.000 A 
ENDBRANCH  11  12
ENDBRANCH   2   9
BRANCH   6  18
ATOM     18  C   UNL     1       6.053   5.237  14.914  0.00  0.00    +0.000 C 
ATOM     19  C   UNL     1       7.043   4.932  13.815  0.00  0.00    +0.000 C 
ATOM     20  C   UNL     1       6.209   3.831  14.393  0.00  0.00    +0.000 C 
ENDBRANCH   6  18
TORSDOF 3
ENDMDL
MODEL 6
REMARK VINA RESULT:      -6.6      5.785      7.977
REMARK  Name = 
REMARK  3 active torsions:
REMARK  status: ('A' for Active; 'I' for Inactive)
REMARK    1  A    between atoms: C_2  and  C_3
REMARK    2  A    between atoms: C_5  and  C_6
REMARK    3  A    between atoms: N_15  and  C_16
REMARK                            x       y       z     vdW  Elec       q    Type
REMARK                         _______ _______ _______ _____ _____    ______ ____
ROOT
ATOM      1  O   UNL     1       6.605   5.424  19.160  0.00  0.00    +0.000 OA
ATOM      2  C   UNL     1       5.896   4.958  18.277  0.00  0.00    +0.000 C 
ATOM      3  N   UNL     1       4.824   4.103  18.540  0.00  0.00    +0.000 N 
ATOM      4  C   UNL     1       3.999   3.483  17.505  0.00  0.00    +0.000 C 
ATOM      5  C   UNL     1       3.392   2.149  17.965  0.00  0.00    +0.000 C 
ATOM      6  N   UNL     1       2.661   2.214  19.242  0.00  0.00    +0.000 NA
ATOM      7  C   UNL     1       3.545   2.808  20.271  0.00  0.00    +0.000 C 
ATOM      8  C   UNL     1       4.227   4.135  19.878  0.00  0.00    +0.000 C 
ENDROOT
BRANCH   2   9
ATOM      9  C   UNL     1       6.120   5.369  16.853  0.00  0.00    +0.000 C 
ATOM     10  C   UNL     1       7.270   6.298  16.558  0.00  0.00    +0.000 C 
ATOM     11  C   UNL     1       7.296   4.885  16.019  0.00  0.00    +0.000 C 
BRANCH  11  12
ATOM     12  C   UNL     1       7.115   4.672  14.524  0.00  0.00    +0.000 A 
ATOM     13  C   UNL     1       6.175   3.753  14.024  0.00  0.00    +0.000 A 
ATOM     14  C   UNL     1       6.018   3.537  12.651  0.00  0.00    +0.000 A 
ATOM     15  C   UNL     1       6.800   4.244  11.738  0.00  0.00    +0.000 A 
ATOM     16  C   UNL     1       7.729   5.167  12.206  0.00  0.00    +0.000 A 
ATOM     17  C   UNL     1       7.877   5.380  13.581  0.00  0.00    +0.000 A 
ENDBRANCH  11  12
ENDBRANCH   2   9
BRANCH   6  18
ATOM     18  C   UNL     1       1.344   2.871  19.128  0.00  0.00    +0.000 C 
ATOM     19  C   UNL     1       0.264   2.550  20.134  0.00  0.00    +0.000 C 
ATOM     20  C   UNL     1       0.938   3.887  20.165  0.00  0.00    +0.000 C 
ENDBRANCH   6  18
TORSDOF 3
ENDMDL
MODEL 7
REMARK VINA RESULT:      -6.5      5.821      9.458
REMARK  Name = 
REMARK  3 active torsions:
REMARK  status: ('A' for Active; 'I' for Inactive)
REMARK    1  A    between atoms: C_2  and  C_3
REMARK    2  A    between atoms: C_5  and  C_6
REMARK    3  A    between atoms: N_15  and  C_16
REMARK                            x       y       z     vdW  Elec       q    Type
REMARK                         _______ _______ _______ _____ _____    ______ ____
ROOT
ATOM      1  O   UNL     1       7.438   6.321  16.141  0.00  0.00    +0.000 OA
ATOM      2  C   UNL     1       6.590   5.463  15.933  0.00  0.00    +0.000 C 
ATOM      3  N   UNL     1       6.448   4.825  14.699  0.00  0.00    +0.000 N 
ATOM      4  C   UNL     1       5.408   3.842  14.401  0.00  0.00    +0.000 C 
ATOM      5  C   UNL     1       5.046   3.811  12.909  0.00  0.00    +0.000 C 
ATOM      6  N   UNL     1       6.194   3.643  12.001  0.00  0.00    +0.000 NA
ATOM      7  C   UNL     1       7.203   4.683  12.307  0.00  0.00    +0.000 C 
ATOM      8  C   UNL     1       7.600   4.808  13.793  0.00  0.00    +0.000 C 
ENDROOT
BRANCH   2   9
ATOM      9  C   UNL     1       5.706   5.006  17.054  0.00  0.00    +0.000 C 
ATOM     10  C   UNL     1       5.382   5.994  18.145  0.00  0.00    +0.000 C 
ATOM     11  C   UNL     1       4.278   5.492  17.243  0.00  0.00    +0.000 C 
BRANCH  11  12
ATOM     12  C   UNL     1       3.237   4.546  17.820  0.00  0.00    +0.000 A 
ATOM     13  C   UNL     1       3.127   3.217  17.375  0.00  0.00    +0.000 A 
ATOM     14  C   UNL     1       2.158   2.348  17.888  0.00  0.00    +0.000 A 
ATOM     15  C   UNL     1       1.272   2.790  18.871  0.00  0.00    +0.000 A 
ATOM     16  C   UNL     1       1.367   4.096  19.337  0.00  0.00    +0.000 A 
ATOM     17  C   UNL     1       2.342   4.958  18.822  0.00  0.00    +0.000 A 
ENDBRANCH  11  12
ENDBRANCH   2   9
BRANCH   6  18
ATOM     18  C   UNL     1       6.730   2.269  11.986  0.00  0.00    +0.000 C 
ATOM     19  C   UNL     1       6.140   1.250  11.039  0.00  0.00    +0.000 C 
ATOM     20  C   UNL     1       7.511   1.798  10.785  0.00  0.00    +0.000 C 
ENDBRANCH   6  18
TORSDOF 3
ENDMDL
MODEL 8
REMARK VINA RESULT:      -6.5      5.777      9.428
REMARK  Name = 
REMARK  3 active torsions:
REMARK  status: ('A' for Active; 'I' for Inactive)
REMARK    1  A    between atoms: C_2  and  C_3
REMARK    2  A    between atoms: C_5  and  C_6
REMARK    3  A    between atoms: N_15  and  C_16
REMARK                            x       y       z     vdW  Elec       q    Type
REMARK                         _______ _______ _______ _____ _____    ______ ____
ROOT
ATOM      1  O   UNL     1       7.463   6.266  16.249  0.00  0.00    +0.000 OA
ATOM      2  C   UNL     1       6.611   5.404  16.082  0.00  0.00    +0.000 C 
ATOM      3  N   UNL     1       6.411   4.766  14.855  0.00  0.00    +0.000 N 
ATOM      4  C   UNL     1       5.362   3.779  14.608  0.00  0.00    +0.000 C 
ATOM      5  C   UNL     1       4.926   3.748  13.136  0.00  0.00    +0.000 C 
ATOM      6  N   UNL     1       6.027   3.587  12.171  0.00  0.00    +0.000 NA
ATOM      7  C   UNL     1       7.045   4.632  12.429  0.00  0.00    +0.000 C 
ATOM      8  C   UNL     1       7.516   4.758  13.893  0.00  0.00    +0.000 C 
ENDROOT
BRANCH   2   9
ATOM      9  C   UNL     1       5.787   4.941  17.244  0.00  0.00    +0.000 C 
ATOM     10  C   UNL     1       5.944   5.666  18.556  0.00  0.00    +0.000 C 
ATOM     11  C   UNL     1       4.627   5.739  17.817  0.00  0.00    +0.000 C 
BRANCH  11  12
ATOM     12  C   UNL     1       3.426   5.005  18.394  0.00  0.00    +0.000 A 
ATOM     13  C   UNL     1       3.192   4.958  19.780  0.00  0.00    +0.000 A 
ATOM     14  C   UNL     1       2.101   4.268  20.317  0.00  0.00    +0.000 A 
ATOM     15  C   UNL     1       1.208   3.606  19.475  0.00  0.00    +0.000 A 
ATOM     16  C   UNL     1       1.410   3.646  18.099  0.00  0.00    +0.000 A 
ATOM     17  C   UNL     1       2.501   4.343  17.569  0.00  0.00    +0.000 A 
ENDBRANCH  11  12
ENDBRANCH   2   9
BRANCH   6  18
ATOM     18  C   UNL     1       6.570   2.216  12.127  0.00  0.00    +0.000 C 
ATOM     19  C   UNL     1       6.072   1.254  11.074  0.00  0.00    +0.000 C 
ATOM     20  C   UNL     1       7.457   1.814  10.976  0.00  0.00    +0.000 C 
ENDBRANCH   6  18
TORSDOF 3
ENDMDL
MODEL 9
REMARK VINA RESULT:      -6.5      5.857      7.987
REMARK  Name = 
REMARK  3 active torsions:
REMARK  status: ('A' for Active; 'I' for Inactive)
REMARK    1  A    between atoms: C_2  and  C_3
REMARK    2  A    between atoms: C_5  and  C_6
REMARK    3  A    between atoms: N_15  and  C_16
REMARK                            x       y       z     vdW  Elec       q    Type
REMARK                         _______ _______ _______ _____ _____    ______ ____
ROOT
ATOM      1  O   UNL     1       6.344   6.061  18.983  0.00  0.00    +0.000 OA
ATOM      2  C   UNL     1       5.794   5.409  18.106  0.00  0.00    +0.000 C 
ATOM      3  N   UNL     1       4.810   4.455  18.377  0.00  0.00    +0.000 N 
ATOM      4  C   UNL     1       4.180   3.617  17.359  0.00  0.00    +0.000 C 
ATOM      5  C   UNL     1       3.693   2.276  17.927  0.00  0.00    +0.000 C 
ATOM      6  N   UNL     1       2.828   2.389  19.114  0.00  0.00    +0.000 NA
ATOM      7  C   UNL     1       3.522   3.207  20.136  0.00  0.00    +0.000 C 
ATOM      8  C   UNL     1       4.077   4.559  19.641  0.00  0.00    +0.000 C 
ENDROOT
BRANCH   2   9
ATOM      9  C   UNL     1       6.116   5.680  16.668  0.00  0.00    +0.000 C 
ATOM     10  C   UNL     1       7.383   6.434  16.357  0.00  0.00    +0.000 C 
ATOM     11  C   UNL     1       7.248   4.993  15.921  0.00  0.00    +0.000 C 
BRANCH  11  12
ATOM     12  C   UNL     1       7.091   4.692  14.438  0.00  0.00    +0.000 A 
ATOM     13  C   UNL     1       7.870   5.351  13.470  0.00  0.00    +0.000 A 
ATOM     14  C   UNL     1       7.716   5.093  12.104  0.00  0.00    +0.000 A 
ATOM     15  C   UNL     1       6.776   4.159  11.670  0.00  0.00    +0.000 A 
ATOM     16  C   UNL     1       6.000   3.485  12.607  0.00  0.00    +0.000 A 
ATOM     17  C   UNL     1       6.163   3.745  13.973  0.00  0.00    +0.000 A 
ENDBRANCH  11  12
ENDBRANCH   2   9
BRANCH   6  18
ATOM     18  C   UNL     1       1.462   2.848  18.800  0.00  0.00    +0.000 C 
ATOM     19  C   UNL     1       0.288   1.942  19.088  0.00  0.00    +0.000 C 
ATOM     20  C   UNL     1       0.513   3.159  19.930  0.00  0.00    +0.000 C 
ENDBRANCH   6  18
TORSDOF 3
ENDMDL
