MODEL 1
REMARK VINA RESULT:      -8.6      0.000      0.000
REMARK  Name = 
REMARK  9 active torsions:
REMARK  status: ('A' for Active; 'I' for Inactive)
REMARK    1  A    between atoms: C_1  and  C_2
REMARK    2  A    between atoms: C_2  and  C_4
REMARK    3  A    between atoms: C_7  and  N_8
REMARK    4  A    between atoms: N_8  and  S_9
REMARK    5  A    between atoms: S_9  and  C_12
REMARK    6  A    between atoms: C_16  and  C_17
REMARK    7  A    between atoms: N_19  and  C_20
REMARK    8  A    between atoms: C_25  and  C_26
REMARK    9  A    between atoms: C_26  and  O_28
REMARK                            x       y       z     vdW  Elec       q    Type
REMARK                         _______ _______ _______ _____ _____    ______ ____
ROOT
ATOM      1  C   UNL     1       2.113   7.071  19.450  0.00  0.00    +0.000 A 
ATOM      2  C   UNL     1       2.180   7.596  18.155  0.00  0.00    +0.000 A 
ATOM      3  C   UNL     1       1.778   8.906  17.931  0.00  0.00    +0.000 A 
ATOM      4  C   UNL     1       1.321   9.675  19.002  0.00  0.00    +0.000 A 
ATOM      5  C   UNL     1       1.246   9.152  20.309  0.00  0.00    +0.000 A 
ATOM      6  C   UNL     1       1.627   7.831  20.527  0.00  0.00    +0.000 A 
ENDROOT
BRANCH   5   7
ATOM      7  C   UNL     1       0.705  10.058  21.368  0.00  0.00    +0.000 C 
ATOM      8  O   UNL     1       1.099   9.854  22.514  0.00  0.00    +0.000 OA
ATOM      9  N   UNL     1      -0.205  11.046  21.009  0.00  0.00    +0.000 N 
ATOM     10  H   UNL     1      -0.725  10.940  20.139  0.00  0.00    +0.000 HD
BRANCH   9  11
ATOM     11  C   UNL     1      -0.676  12.069  21.887  0.00  0.00    +0.000 A 
ATOM     12  C   UNL     1      -1.716  11.817  22.795  0.00  0.00    +0.000 A 
ATOM     13  C   UNL     1      -2.236  12.821  23.615  0.00  0.00    +0.000 A 
ATOM     14  C   UNL     1      -1.712  14.101  23.562  0.00  0.00    +0.000 A 
ATOM     15  C   UNL     1      -0.645  14.373  22.707  0.00  0.00    +0.000 A 
ATOM     16  C   UNL     1      -0.099  13.359  21.890  0.00  0.00    +0.000 A 
BRANCH  16  17
ATOM     17  C   UNL     1       1.055  13.679  21.008  0.00  0.00    +0.000 C 
ATOM     18  O   UNL     1       0.953  14.347  19.991  0.00  0.00    +0.000 OA
BRANCH  17  19
ATOM     19  O   UNL     1       2.216  13.096  21.382  0.00  0.00    +0.000 OA
ATOM     20  H   UNL     1       2.767  13.614  21.998  0.00  0.00    +0.000 HD
ENDBRANCH  17  19
ENDBRANCH  16  17
ENDBRANCH   9  11
ENDBRANCH   5   7
BRANCH   1  21
ATOM     21  S   UNL     1       2.641   5.403  19.738  0.00  0.00    +0.000 S 
ATOM     22  O   UNL     1       2.202   4.598  18.613  0.00  0.00    +0.000 OA
ATOM     23  O   UNL     1       2.302   5.036  21.091  0.00  0.00    +0.000 OA
BRANCH  21  24
ATOM     24  N   UNL     1       4.317   5.536  19.594  0.00  0.00    +0.000 N 
ATOM     25  H   UNL     1       4.684   6.274  20.195  0.00  0.00    +0.000 HD
BRANCH  24  29
ATOM     26  C   UNL     1       6.063   5.038  15.786  0.00  0.00    +0.000 A 
ATOM     27  C   UNL     1       5.997   6.310  16.371  0.00  0.00    +0.000 A 
ATOM     28  C   UNL     1       5.416   6.479  17.631  0.00  0.00    +0.000 A 
ATOM     29  C   UNL     1       4.902   5.378  18.311  0.00  0.00    +0.000 A 
ATOM     30  C   UNL     1       4.949   4.110  17.734  0.00  0.00    +0.000 A 
ATOM     31  C   UNL     1       5.529   3.939  16.474  0.00  0.00    +0.000 A 
BRANCH  26  33
ATOM     32  C   UNL     1       6.099   3.803  13.519  0.00  0.00    +0.000 C 
ATOM     33  C   UNL     1       6.711   4.809  14.460  0.00  0.00    +0.000 C 
ATOM     34  O   UNL     1       7.700   5.464  14.138  0.00  0.00    +0.000 OA
ENDBRANCH  26  33
ENDBRANCH  24  29
ENDBRANCH  21  24
ENDBRANCH   1  21
TORSDOF 8
ENDMDL
MODEL 2
REMARK VINA RESULT:      -8.5      0.364      1.076
REMARK  Name = 
REMARK  9 active torsions:
REMARK  status: ('A' for Active; 'I' for Inactive)
REMARK    1  A    between atoms: C_1  and  C_2
REMARK    2  A    between atoms: C_2  and  C_4
REMARK    3  A    between atoms: C_7  and  N_8
REMARK    4  A    between atoms: N_8  and  S_9
REMARK    5  A    between atoms: S_9  and  C_12
REMARK    6  A    between atoms: C_16  and  C_17
REMARK    7  A    between atoms: N_19  and  C_20
REMARK    8  A    between atoms: C_25  and  C_26
REMARK    9  A    between atoms: C_26  and  O_28
REMARK                            x       y       z     vdW  Elec       q    Type
REMARK                         _______ _______ _______ _____ _____    ______ ____
ROOT
ATOM      1  C   UNL     1       1.988   7.386  19.386  0.00  0.00    +0.000 A 
ATOM      2  C   UNL     1       2.090   7.985  18.127  0.00  0.00    +0.000 A 
ATOM      3  C   UNL     1       1.688   9.304  17.967  0.00  0.00    +0.000 A 
ATOM      4  C   UNL     1       1.196  10.009  19.067  0.00  0.00    +0.000 A 
ATOM      5  C   UNL     1       1.084   9.410  20.339  0.00  0.00    +0.000 A 
ATOM      6  C   UNL     1       1.466   8.080  20.491  0.00  0.00    +0.000 A 
ENDROOT
BRANCH   5   7
ATOM      7  C   UNL     1       0.508  10.250  21.432  0.00  0.00    +0.000 C 
ATOM      8  O   UNL     1       0.877   9.989  22.574  0.00  0.00    +0.000 OA
ATOM      9  N   UNL     1      -0.405  11.247  21.105  0.00  0.00    +0.000 N 
ATOM     10  H   UNL     1      -0.903  11.183  20.218  0.00  0.00    +0.000 HD
BRANCH   9  11
ATOM     11  C   UNL     1      -0.910  12.215  22.026  0.00  0.00    +0.000 A 
ATOM     12  C   UNL     1      -1.995  11.917  22.864  0.00  0.00    +0.000 A 
ATOM     13  C   UNL     1      -2.546  12.870  23.722  0.00  0.00    +0.000 A 
ATOM     14  C   UNL     1      -2.007  14.144  23.782  0.00  0.00    +0.000 A 
ATOM     15  C   UNL     1      -0.897  14.459  22.999  0.00  0.00    +0.000 A 
ATOM     16  C   UNL     1      -0.321  13.494  22.144  0.00  0.00    +0.000 A 
BRANCH  16  17
ATOM     17  C   UNL     1       0.878  13.858  21.343  0.00  0.00    +0.000 C 
ATOM     18  O   UNL     1       1.984  13.379  21.541  0.00  0.00    +0.000 OA
BRANCH  17  19
ATOM     19  O   UNL     1       0.660  14.828  20.427  0.00  0.00    +0.000 OA
ATOM     20  H   UNL     1       0.095  14.576  19.673  0.00  0.00    +0.000 HD
ENDBRANCH  17  19
ENDBRANCH  16  17
ENDBRANCH   9  11
ENDBRANCH   5   7
BRANCH   1  21
ATOM     21  S   UNL     1       2.516   5.705  19.592  0.00  0.00    +0.000 S 
ATOM     22  O   UNL     1       2.125   4.968  18.404  0.00  0.00    +0.000 OA
ATOM     23  O   UNL     1       2.129   5.255  20.906  0.00  0.00    +0.000 OA
BRANCH  21  24
ATOM     24  N   UNL     1       4.195   5.855  19.520  0.00  0.00    +0.000 N 
ATOM     25  H   UNL     1       4.521   6.655  20.064  0.00  0.00    +0.000 HD
BRANCH  24  29
ATOM     26  C   UNL     1       6.125   5.073  15.852  0.00  0.00    +0.000 A 
ATOM     27  C   UNL     1       5.949   4.046  16.789  0.00  0.00    +0.000 A 
ATOM     28  C   UNL     1       5.313   4.302  18.007  0.00  0.00    +0.000 A 
ATOM     29  C   UNL     1       4.849   5.584  18.291  0.00  0.00    +0.000 A 
ATOM     30  C   UNL     1       5.031   6.618  17.374  0.00  0.00    +0.000 A 
ATOM     31  C   UNL     1       5.668   6.364  16.155  0.00  0.00    +0.000 A 
BRANCH  26  33
ATOM     32  C   UNL     1       6.139   3.827  13.591  0.00  0.00    +0.000 C 
ATOM     33  C   UNL     1       6.764   4.832  14.523  0.00  0.00    +0.000 C 
ATOM     34  O   UNL     1       7.759   5.475  14.194  0.00  0.00    +0.000 OA
ENDBRANCH  26  33
ENDBRANCH  24  29
ENDBRANCH  21  24
ENDBRANCH   1  21
TORSDOF 8
ENDMDL
MODEL 3
REMARK VINA RESULT:      -8.5      2.750      4.623
REMARK  Name = 
REMARK  9 active torsions:
REMARK  status: ('A' for Active; 'I' for Inactive)
REMARK    1  A    between atoms: C_1  and  C_2
REMARK    2  A    between atoms: C_2  and  C_4
REMARK    3  A    between atoms: C_7  and  N_8
REMARK    4  A    between atoms: N_8  and  S_9
REMARK    5  A    between atoms: S_9  and  C_12
REMARK    6  A    between atoms: C_16  and  C_17
REMARK    7  A    between atoms: N_19  and  C_20
REMARK    8  A    between atoms: C_25  and  C_26
REMARK    9  A    between atoms: C_26  and  O_28
REMARK                            x       y       z     vdW  Elec       q    Type
REMARK                         _______ _______ _______ _____ _____    ______ ____
ROOT
ATOM      1  C   UNL     1       5.660   4.833  18.140  0.00  0.00    +0.000 A 
ATOM      2  C   UNL     1       5.288   3.514  17.860  0.00  0.00    +0.000 A 
ATOM      3  C   UNL     1       4.011   3.084  18.192  0.00  0.00    +0.000 A 
ATOM      4  C   UNL     1       3.122   3.976  18.793  0.00  0.00    +0.000 A 
ATOM      5  C   UNL     1       3.491   5.306  19.083  0.00  0.00    +0.000 A 
ATOM      6  C   UNL     1       4.780   5.728  18.771  0.00  0.00    +0.000 A 
ENDROOT
BRANCH   5   7
ATOM      7  C   UNL     1       2.468   6.157  19.762  0.00  0.00    +0.000 C 
ATOM      8  O   UNL     1       1.774   5.604  20.612  0.00  0.00    +0.000 OA
ATOM      9  N   UNL     1       2.349   7.492  19.391  0.00  0.00    +0.000 N 
ATOM     10  H   UNL     1       2.705   7.781  18.481  0.00  0.00    +0.000 HD
BRANCH   9  11
ATOM     11  C   UNL     1       1.527   8.448  20.062  0.00  0.00    +0.000 A 
ATOM     12  C   UNL     1       0.996   8.177  21.333  0.00  0.00    +0.000 A 
ATOM     13  C   UNL     1       0.137   9.070  21.977  0.00  0.00    +0.000 A 
ATOM     14  C   UNL     1      -0.196  10.271  21.373  0.00  0.00    +0.000 A 
ATOM     15  C   UNL     1       0.354  10.593  20.133  0.00  0.00    +0.000 A 
ATOM     16  C   UNL     1       1.240   9.706  19.485  0.00  0.00    +0.000 A 
BRANCH  16  17
ATOM     17  C   UNL     1       1.827  10.093  18.175  0.00  0.00    +0.000 C 
ATOM     18  O   UNL     1       2.363  11.173  17.976  0.00  0.00    +0.000 OA
BRANCH  17  19
ATOM     19  O   UNL     1       1.644   9.182  17.193  0.00  0.00    +0.000 OA
ATOM     20  H   UNL     1       2.387   9.080  16.570  0.00  0.00    +0.000 HD
ENDBRANCH  17  19
ENDBRANCH  16  17
ENDBRANCH   9  11
ENDBRANCH   5   7
BRANCH   1  21
ATOM     21  S   UNL     1       7.287   5.386  17.700  0.00  0.00    +0.000 S 
ATOM     22  O   UNL     1       8.094   4.212  17.417  0.00  0.00    +0.000 OA
ATOM     23  O   UNL     1       7.719   6.369  18.663  0.00  0.00    +0.000 OA
BRANCH  21  24
ATOM     24  N   UNL     1       7.013   6.137  16.214  0.00  0.00    +0.000 N 
ATOM     25  H   UNL     1       6.550   7.038  16.334  0.00  0.00    +0.000 HD
BRANCH  24  29
ATOM     26  C   UNL     1       5.823   3.743  12.951  0.00  0.00    +0.000 A 
ATOM     27  C   UNL     1       7.139   4.217  13.035  0.00  0.00    +0.000 A 
ATOM     28  C   UNL     1       7.536   5.013  14.113  0.00  0.00    +0.000 A 
ATOM     29  C   UNL     1       6.620   5.336  15.111  0.00  0.00    +0.000 A 
ATOM     30  C   UNL     1       5.304   4.883  15.032  0.00  0.00    +0.000 A 
ATOM     31  C   UNL     1       4.905   4.087  13.954  0.00  0.00    +0.000 A 
BRANCH  26  33
ATOM     32  C   UNL     1       4.062   3.165  11.154  0.00  0.00    +0.000 C 
ATOM     33  C   UNL     1       5.370   2.858  11.836  0.00  0.00    +0.000 C 
ATOM     34  O   UNL     1       6.079   1.924  11.466  0.00  0.00    +0.000 OA
ENDBRANCH  26  33
ENDBRANCH  24  29
ENDBRANCH  21  24
ENDBRANCH   1  21
TORSDOF 8
ENDMDL
MODEL 4
REMARK VINA RESULT:      -8.4      2.813      4.660
REMARK  Name = 
REMARK  9 active torsions:
REMARK  status: ('A' for Active; 'I' for Inactive)
REMARK    1  A    between atoms: C_1  and  C_2
REMARK    2  A    between atoms: C_2  and  C_4
REMARK    3  A    between atoms: C_7  and  N_8
REMARK    4  A    between atoms: N_8  and  S_9
REMARK    5  A    between atoms: S_9  and  C_12
REMARK    6  A    between atoms: C_16  and  C_17
REMARK    7  A    between atoms: N_19  and  C_20
REMARK    8  A    between atoms: C_25  and  C_26
REMARK    9  A    between atoms: C_26  and  O_28
REMARK                            x       y       z     vdW  Elec       q    Type
REMARK                         _______ _______ _______ _____ _____    ______ ____
ROOT
ATOM      1  C   UNL     1       5.446   5.019  17.926  0.00  0.00    +0.000 A 
ATOM      2  C   UNL     1       5.041   3.715  17.623  0.00  0.00    +0.000 A 
ATOM      3  C   UNL     1       3.785   3.283  18.027  0.00  0.00    +0.000 A 
ATOM      4  C   UNL     1       2.949   4.160  18.721  0.00  0.00    +0.000 A 
ATOM      5  C   UNL     1       3.352   5.474  19.034  0.00  0.00    +0.000 A 
ATOM      6  C   UNL     1       4.621   5.897  18.649  0.00  0.00    +0.000 A 
ENDROOT
BRANCH   5   7
ATOM      7  C   UNL     1       2.388   6.308  19.814  0.00  0.00    +0.000 C 
ATOM      8  O   UNL     1       1.784   5.740  20.721  0.00  0.00    +0.000 OA
ATOM      9  N   UNL     1       2.218   7.644  19.467  0.00  0.00    +0.000 N 
ATOM     10  H   UNL     1       2.483   7.943  18.530  0.00  0.00    +0.000 HD
BRANCH   9  11
ATOM     11  C   UNL     1       1.452   8.584  20.220  0.00  0.00    +0.000 A 
ATOM     12  C   UNL     1       1.467   8.567  21.624  0.00  0.00    +0.000 A 
ATOM     13  C   UNL     1       0.674   9.433  22.378  0.00  0.00    +0.000 A 
ATOM     14  C   UNL     1      -0.139  10.359  21.746  0.00  0.00    +0.000 A 
ATOM     15  C   UNL     1      -0.139  10.436  20.355  0.00  0.00    +0.000 A 
ATOM     16  C   UNL     1       0.675   9.578  19.584  0.00  0.00    +0.000 A 
BRANCH  16  17
ATOM     17  C   UNL     1       0.668   9.706  18.102  0.00  0.00    +0.000 C 
ATOM     18  O   UNL     1      -0.343   9.596  17.427  0.00  0.00    +0.000 OA
BRANCH  17  19
ATOM     19  O   UNL     1       1.893   9.872  17.555  0.00  0.00    +0.000 OA
ATOM     20  H   UNL     1       2.388   9.051  17.374  0.00  0.00    +0.000 HD
ENDBRANCH  17  19
ENDBRANCH  16  17
ENDBRANCH   9  11
ENDBRANCH   5   7
BRANCH   1  21
ATOM     21  S   UNL     1       7.045   5.575  17.396  0.00  0.00    +0.000 S 
ATOM     22  O   UNL     1       7.880   4.404  17.200  0.00  0.00    +0.000 OA
ATOM     23  O   UNL     1       7.469   6.654  18.254  0.00  0.00    +0.000 OA
BRANCH  21  24
ATOM     24  N   UNL     1       6.713   6.178  15.855  0.00  0.00    +0.000 N 
ATOM     25  H   UNL     1       6.121   7.007  15.900  0.00  0.00    +0.000 HD
BRANCH  24  29
ATOM     26  C   UNL     1       6.036   3.454  12.707  0.00  0.00    +0.000 A 
ATOM     27  C   UNL     1       5.049   3.667  13.679  0.00  0.00    +0.000 A 
ATOM     28  C   UNL     1       5.272   4.566  14.726  0.00  0.00    +0.000 A 
ATOM     29  C   UNL     1       6.478   5.257  14.802  0.00  0.00    +0.000 A 
ATOM     30  C   UNL     1       7.473   5.043  13.849  0.00  0.00    +0.000 A 
ATOM     31  C   UNL     1       7.253   4.143  12.802  0.00  0.00    +0.000 A 
BRANCH  26  33
ATOM     32  C   UNL     1       6.992   1.739  11.031  0.00  0.00    +0.000 C 
ATOM     33  C   UNL     1       5.821   2.531  11.552  0.00  0.00    +0.000 C 
ATOM     34  O   UNL     1       4.698   2.400  11.069  0.00  0.00    +0.000 OA
ENDBRANCH  26  33
ENDBRANCH  24  29
ENDBRANCH  21  24
ENDBRANCH   1  21
TORSDOF 8
ENDMDL
MODEL 5
REMARK VINA RESULT:      -8.4      2.825      4.356
REMARK  Name = 
REMARK  9 active torsions:
REMARK  status: ('A' for Active; 'I' for Inactive)
REMARK    1  A    between atoms: C_1  and  C_2
REMARK    2  A    between atoms: C_2  and  C_4
REMARK    3  A    between atoms: C_7  and  N_8
REMARK    4  A    between atoms: N_8  and  S_9
REMARK    5  A    between atoms: S_9  and  C_12
REMARK    6  A    between atoms: C_16  and  C_17
REMARK    7  A    between atoms: N_19  and  C_20
REMARK    8  A    between atoms: C_25  and  C_26
REMARK    9  A    between atoms: C_26  and  O_28
REMARK                            x       y       z     vdW  Elec       q    Type
REMARK                         _______ _______ _______ _____ _____    ______ ____
ROOT
ATOM      1  C   UNL     1       5.363   4.735  18.947  0.00  0.00    +0.000 A 
ATOM      2  C   UNL     1       5.080   3.366  18.995  0.00  0.00    +0.000 A 
ATOM      3  C   UNL     1       3.834   2.946  19.442  0.00  0.00    +0.000 A 
ATOM      4  C   UNL     1       2.888   3.896  19.829  0.00  0.00    +0.000 A 
ATOM      5  C   UNL     1       3.168   5.278  19.788  0.00  0.00    +0.000 A 
ATOM      6  C   UNL     1       4.426   5.695  19.362  0.00  0.00    +0.000 A 
ENDROOT
BRANCH   5   7
ATOM      7  C   UNL     1       2.091   6.199  20.262  0.00  0.00    +0.000 C 
ATOM      8  O   UNL     1       1.088   5.668  20.734  0.00  0.00    +0.000 OA
ATOM      9  N   UNL     1       2.272   7.571  20.131  0.00  0.00    +0.000 N 
ATOM     10  H   UNL     1       2.947   7.913  19.449  0.00  0.00    +0.000 HD
BRANCH   9  11
ATOM     11  C   UNL     1       1.399   8.558  20.680  0.00  0.00    +0.000 A 
ATOM     12  C   UNL     1       1.193   8.649  22.066  0.00  0.00    +0.000 A 
ATOM     13  C   UNL     1       0.293   9.562  22.617  0.00  0.00    +0.000 A 
ATOM     14  C   UNL     1      -0.410  10.428  21.796  0.00  0.00    +0.000 A 
ATOM     15  C   UNL     1      -0.192  10.398  20.420  0.00  0.00    +0.000 A 
ATOM     16  C   UNL     1       0.732   9.492  19.855  0.00  0.00    +0.000 A 
BRANCH  16  17
ATOM     17  C   UNL     1       0.958   9.506  18.385  0.00  0.00    +0.000 C 
ATOM     18  O   UNL     1       0.049   9.526  17.570  0.00  0.00    +0.000 OA
BRANCH  17  19
ATOM     19  O   UNL     1       2.257   9.409  18.023  0.00  0.00    +0.000 OA
ATOM     20  H   UNL     1       2.878   9.967  18.529  0.00  0.00    +0.000 HD
ENDBRANCH  17  19
ENDBRANCH  16  17
ENDBRANCH   9  11
ENDBRANCH   5   7
BRANCH   1  21
ATOM     21  S   UNL     1       6.949   5.271  18.362  0.00  0.00    +0.000 S 
ATOM     22  O   UNL     1       7.678   4.098  17.914  0.00  0.00    +0.000 OA
ATOM     23  O   UNL     1       7.520   6.175  19.330  0.00  0.00    +0.000 OA
BRANCH  21  24
ATOM     24  N   UNL     1       6.537   6.128  16.967  0.00  0.00    +0.000 N 
ATOM     25  H   UNL     1       5.871   6.873  17.173  0.00  0.00    +0.000 HD
BRANCH  24  29
ATOM     26  C   UNL     1       6.017   3.977  13.376  0.00  0.00    +0.000 A 
ATOM     27  C   UNL     1       7.217   4.658  13.623  0.00  0.00    +0.000 A 
ATOM     28  C   UNL     1       7.391   5.375  14.810  0.00  0.00    +0.000 A 
ATOM     29  C   UNL     1       6.369   5.410  15.755  0.00  0.00    +0.000 A 
ATOM     30  C   UNL     1       5.165   4.749  15.515  0.00  0.00    +0.000 A 
ATOM     31  C   UNL     1       4.989   4.032  14.328  0.00  0.00    +0.000 A 
BRANCH  26  33
ATOM     32  C   UNL     1       6.984   2.450  11.533  0.00  0.00    +0.000 C 
ATOM     33  C   UNL     1       5.806   3.168  12.138  0.00  0.00    +0.000 C 
ATOM     34  O   UNL     1       4.680   3.068  11.654  0.00  0.00    +0.000 OA
ENDBRANCH  26  33
ENDBRANCH  24  29
ENDBRANCH  21  24
ENDBRANCH   1  21
TORSDOF 8
ENDMDL
MODEL 6
REMARK VINA RESULT:      -8.3      3.632      9.919
REMARK  Name = 
REMARK  9 active torsions:
REMARK  status: ('A' for Active; 'I' for Inactive)
REMARK    1  A    between atoms: C_1  and  C_2
REMARK    2  A    between atoms: C_2  and  C_4
REMARK    3  A    between atoms: C_7  and  N_8
REMARK    4  A    between atoms: N_8  and  S_9
REMARK    5  A    between atoms: S_9  and  C_12
REMARK    6  A    between atoms: C_16  and  C_17
REMARK    7  A    between atoms: N_19  and  C_20
REMARK    8  A    between atoms: C_25  and  C_26
REMARK    9  A    between atoms: C_26  and  O_28
REMARK                            x       y       z     vdW  Elec       q    Type
REMARK                         _______ _______ _______ _____ _____    ______ ____
ROOT
ATOM      1  C   UNL     1       1.053   9.502  19.598  0.00  0.00    +0.000 A 
ATOM      2  C   UNL     1       0.689   9.066  20.876  0.00  0.00    +0.000 A 
ATOM      3  C   UNL     1       1.074   7.800  21.297  0.00  0.00    +0.000 A 
ATOM      4  C   UNL     1       1.821   6.991  20.440  0.00  0.00    +0.000 A 
ATOM      5  C   UNL     1       2.188   7.421  19.148  0.00  0.00    +0.000 A 
ATOM      6  C   UNL     1       1.780   8.682  18.720  0.00  0.00    +0.000 A 
ENDROOT
BRANCH   5   7
ATOM      7  C   UNL     1       2.955   6.454  18.307  0.00  0.00    +0.000 C 
ATOM      8  O   UNL     1       2.348   5.453  17.935  0.00  0.00    +0.000 OA
ATOM      9  N   UNL     1       4.287   6.725  18.013  0.00  0.00    +0.000 N 
ATOM     10  H   UNL     1       4.799   7.370  18.613  0.00  0.00    +0.000 HD
BRANCH   9  11
ATOM     11  C   UNL     1       5.083   5.970  17.099  0.00  0.00    +0.000 A 
ATOM     12  C   UNL     1       5.132   6.306  15.737  0.00  0.00    +0.000 A 
ATOM     13  C   UNL     1       5.851   5.542  14.816  0.00  0.00    +0.000 A 
ATOM     14  C   UNL     1       6.562   4.431  15.240  0.00  0.00    +0.000 A 
ATOM     15  C   UNL     1       6.575   4.099  16.594  0.00  0.00    +0.000 A 
ATOM     16  C   UNL     1       5.868   4.879  17.535  0.00  0.00    +0.000 A 
BRANCH  16  17
ATOM     17  C   UNL     1       5.926   4.510  18.974  0.00  0.00    +0.000 C 
ATOM     18  O   UNL     1       5.330   3.552  19.443  0.00  0.00    +0.000 OA
BRANCH  17  19
ATOM     19  O   UNL     1       6.629   5.374  19.740  0.00  0.00    +0.000 OA
ATOM     20  H   UNL     1       7.314   5.888  19.274  0.00  0.00    +0.000 HD
ENDBRANCH  17  19
ENDBRANCH  16  17
ENDBRANCH   9  11
ENDBRANCH   5   7
BRANCH   1  21
ATOM     21  S   UNL     1       0.574  11.126  19.068  0.00  0.00    +0.000 S 
ATOM     22  O   UNL     1       1.754  11.786  18.539  0.00  0.00    +0.000 OA
ATOM     23  O   UNL     1      -0.217  11.738  20.107  0.00  0.00    +0.000 OA
BRANCH  21  24
ATOM     24  N   UNL     1      -0.408  10.785  17.739  0.00  0.00    +0.000 N 
ATOM     25  H   UNL     1      -0.018  11.172  16.880  0.00  0.00    +0.000 HD
BRANCH  24  29
ATOM     26  C   UNL     1      -4.598  10.913  18.215  0.00  0.00    +0.000 A 
ATOM     27  C   UNL     1      -3.824  12.054  18.466  0.00  0.00    +0.000 A 
ATOM     28  C   UNL     1      -2.435  12.014  18.313  0.00  0.00    +0.000 A 
ATOM     29  C   UNL     1      -1.816  10.836  17.905  0.00  0.00    +0.000 A 
ATOM     30  C   UNL     1      -2.573   9.689  17.666  0.00  0.00    +0.000 A 
ATOM     31  C   UNL     1      -3.962   9.727  17.820  0.00  0.00    +0.000 A 
BRANCH  26  33
ATOM     32  C   UNL     1      -6.844  12.115  17.800  0.00  0.00    +0.000 C 
ATOM     33  C   UNL     1      -6.087  10.925  18.329  0.00  0.00    +0.000 C 
ATOM     34  O   UNL     1      -6.675   9.959  18.813  0.00  0.00    +0.000 OA
ENDBRANCH  26  33
ENDBRANCH  24  29
ENDBRANCH  21  24
ENDBRANCH   1  21
TORSDOF 8
ENDMDL
MODEL 7
REMARK VINA RESULT:      -8.3      2.752      4.450
REMARK  Name = 
REMARK  9 active torsions:
REMARK  status: ('A' for Active; 'I' for Inactive)
REMARK    1  A    between atoms: C_1  and  C_2
REMARK    2  A    between atoms: C_2  and  C_4
REMARK    3  A    between atoms: C_7  and  N_8
REMARK    4  A    between atoms: N_8  and  S_9
REMARK    5  A    between atoms: S_9  and  C_12
REMARK    6  A    between atoms: C_16  and  C_17
REMARK    7  A    between atoms: N_19  and  C_20
REMARK    8  A    between atoms: C_25  and  C_26
REMARK    9  A    between atoms: C_26  and  O_28
REMARK                            x       y       z     vdW  Elec       q    Type
REMARK                         _______ _______ _______ _____ _____    ______ ____
ROOT
ATOM      1  C   UNL     1       5.561   5.547  18.386  0.00  0.00    +0.000 A 
ATOM      2  C   UNL     1       5.611   4.174  18.648  0.00  0.00    +0.000 A 
ATOM      3  C   UNL     1       4.577   3.580  19.359  0.00  0.00    +0.000 A 
ATOM      4  C   UNL     1       3.506   4.363  19.794  0.00  0.00    +0.000 A 
ATOM      5  C   UNL     1       3.451   5.748  19.538  0.00  0.00    +0.000 A 
ATOM      6  C   UNL     1       4.500   6.345  18.845  0.00  0.00    +0.000 A 
ENDROOT
BRANCH   5   7
ATOM      7  C   UNL     1       2.274   6.489  20.086  0.00  0.00    +0.000 C 
ATOM      8  O   UNL     1       1.384   5.806  20.586  0.00  0.00    +0.000 OA
ATOM      9  N   UNL     1       2.245   7.876  19.986  0.00  0.00    +0.000 N 
ATOM     10  H   UNL     1       2.829   8.328  19.284  0.00  0.00    +0.000 HD
BRANCH   9  11
ATOM     11  C   UNL     1       1.263   8.710  20.601  0.00  0.00    +0.000 A 
ATOM     12  C   UNL     1       0.988   8.610  21.973  0.00  0.00    +0.000 A 
ATOM     13  C   UNL     1      -0.014   9.369  22.581  0.00  0.00    +0.000 A 
ATOM     14  C   UNL     1      -0.753  10.269  21.832  0.00  0.00    +0.000 A 
ATOM     15  C   UNL     1      -0.472  10.430  20.476  0.00  0.00    +0.000 A 
ATOM     16  C   UNL     1       0.554   9.682  19.858  0.00  0.00    +0.000 A 
BRANCH  16  17
ATOM     17  C   UNL     1       0.843   9.898  18.416  0.00  0.00    +0.000 C 
ATOM     18  O   UNL     1       1.966  10.116  17.985  0.00  0.00    +0.000 OA
BRANCH  17  19
ATOM     19  O   UNL     1      -0.254   9.917  17.627  0.00  0.00    +0.000 OA
ATOM     20  H   UNL     1      -0.901  10.621  17.824  0.00  0.00    +0.000 HD
ENDBRANCH  17  19
ENDBRANCH  16  17
ENDBRANCH   9  11
ENDBRANCH   5   7
BRANCH   1  21
ATOM     21  S   UNL     1       6.874   6.301  17.463  0.00  0.00    +0.000 S 
ATOM     22  O   UNL     1       7.871   6.768  18.410  0.00  0.00    +0.000 OA
ATOM     23  O   UNL     1       6.302   7.194  16.486  0.00  0.00    +0.000 OA
BRANCH  21  24
ATOM     24  N   UNL     1       7.558   4.973  16.678  0.00  0.00    +0.000 N 
ATOM     25  H   UNL     1       8.577   4.989  16.739  0.00  0.00    +0.000 HD
BRANCH  24  29
ATOM     26  C   UNL     1       5.821   3.638  13.073  0.00  0.00    +0.000 A 
ATOM     27  C   UNL     1       6.970   4.441  13.047  0.00  0.00    +0.000 A 
ATOM     28  C   UNL     1       7.546   4.888  14.240  0.00  0.00    +0.000 A 
ATOM     29  C   UNL     1       6.979   4.532  15.461  0.00  0.00    +0.000 A 
ATOM     30  C   UNL     1       5.828   3.746  15.499  0.00  0.00    +0.000 A 
ATOM     31  C   UNL     1       5.249   3.299  14.307  0.00  0.00    +0.000 A 
BRANCH  26  33
ATOM     32  C   UNL     1       5.721   1.820  11.244  0.00  0.00    +0.000 C 
ATOM     33  C   UNL     1       5.198   3.108  11.823  0.00  0.00    +0.000 C 
ATOM     34  O   UNL     1       4.252   3.702  11.309  0.00  0.00    +0.000 OA
ENDBRANCH  26  33
ENDBRANCH  24  29
ENDBRANCH  21  24
ENDBRANCH   1  21
TORSDOF 8
ENDMDL
MODEL 8
REMARK VINA RESULT:      -8.3      3.008      9.396
REMARK  Name = 
REMARK  9 active torsions:
REMARK  status: ('A' for Active; 'I' for Inactive)
REMARK    1  A    between atoms: C_1  and  C_2
REMARK    2  A    between atoms: C_2  and  C_4
REMARK    3  A    between atoms: C_7  and  N_8
REMARK    4  A    between atoms: N_8  and  S_9
REMARK    5  A    between atoms: S_9  and  C_12
REMARK    6  A    between atoms: C_16  and  C_17
REMARK    7  A    between atoms: N_19  and  C_20
REMARK    8  A    between atoms: C_25  and  C_26
REMARK    9  A    between atoms: C_26  and  O_28
REMARK                            x       y       z     vdW  Elec       q    Type
REMARK                         _______ _______ _______ _____ _____    ______ ____
ROOT
ATOM      1  C   UNL     1       1.498   7.569  20.597  0.00  0.00    +0.000 A 
ATOM      2  C   UNL     1       1.183   6.355  21.215  0.00  0.00    +0.000 A 
ATOM      3  C   UNL     1       1.713   5.177  20.707  0.00  0.00    +0.000 A 
ATOM      4  C   UNL     1       2.553   5.228  19.593  0.00  0.00    +0.000 A 
ATOM      5  C   UNL     1       2.871   6.447  18.961  0.00  0.00    +0.000 A 
ATOM      6  C   UNL     1       2.319   7.625  19.459  0.00  0.00    +0.000 A 
ENDROOT
BRANCH   5   7
ATOM      7  C   UNL     1       3.750   6.374  17.755  0.00  0.00    +0.000 C 
ATOM      8  O   UNL     1       3.946   7.429  17.157  0.00  0.00    +0.000 OA
ATOM      9  N   UNL     1       4.272   5.142  17.376  0.00  0.00    +0.000 N 
ATOM     10  H   UNL     1       3.811   4.293  17.703  0.00  0.00    +0.000 HD
BRANCH   9  11
ATOM     11  C   UNL     1       5.243   4.957  16.345  0.00  0.00    +0.000 A 
ATOM     12  C   UNL     1       4.855   4.589  15.047  0.00  0.00    +0.000 A 
ATOM     13  C   UNL     1       5.792   4.339  14.043  0.00  0.00    +0.000 A 
ATOM     14  C   UNL     1       7.144   4.474  14.306  0.00  0.00    +0.000 A 
ATOM     15  C   UNL     1       7.561   4.885  15.570  0.00  0.00    +0.000 A 
ATOM     16  C   UNL     1       6.620   5.161  16.586  0.00  0.00    +0.000 A 
BRANCH  16  17
ATOM     17  C   UNL     1       7.100   5.623  17.916  0.00  0.00    +0.000 C 
ATOM     18  O   UNL     1       6.968   4.968  18.938  0.00  0.00    +0.000 OA
BRANCH  17  19
ATOM     19  O   UNL     1       7.621   6.870  17.914  0.00  0.00    +0.000 OA
ATOM     20  H   UNL     1       8.308   7.038  17.242  0.00  0.00    +0.000 HD
ENDBRANCH  17  19
ENDBRANCH  16  17
ENDBRANCH   9  11
ENDBRANCH   5   7
BRANCH   1  21
ATOM     21  S   UNL     1       0.833   9.075  21.257  0.00  0.00    +0.000 S 
ATOM     22  O   UNL     1       1.737   9.544  22.292  0.00  0.00    +0.000 OA
ATOM     23  O   UNL     1      -0.571   8.883  21.529  0.00  0.00    +0.000 OA
BRANCH  21  24
ATOM     24  N   UNL     1       1.014  10.138  19.959  0.00  0.00    +0.000 N 
ATOM     25  H   UNL     1       1.617  10.923  20.203  0.00  0.00    +0.000 HD
BRANCH  24  29
ATOM     26  C   UNL     1      -2.345  10.937  17.535  0.00  0.00    +0.000 A 
ATOM     27  C   UNL     1      -1.490   9.869  17.226  0.00  0.00    +0.000 A 
ATOM     28  C   UNL     1      -0.374   9.604  18.025  0.00  0.00    +0.000 A 
ATOM     29  C   UNL     1      -0.111  10.401  19.136  0.00  0.00    +0.000 A 
ATOM     30  C   UNL     1      -0.945  11.475  19.445  0.00  0.00    +0.000 A 
ATOM     31  C   UNL     1      -2.061  11.743  18.647  0.00  0.00    +0.000 A 
BRANCH  26  33
ATOM     32  C   UNL     1      -3.612  10.784  15.291  0.00  0.00    +0.000 C 
ATOM     33  C   UNL     1      -3.569  11.229  16.730  0.00  0.00    +0.000 C 
ATOM     34  O   UNL     1      -4.530  11.789  17.253  0.00  0.00    +0.000 OA
ENDBRANCH  26  33
ENDBRANCH  24  29
ENDBRANCH  21  24
ENDBRANCH   1  21
TORSDOF 8
ENDMDL
MODEL 9
REMARK VINA RESULT:      -8.3      1.013      1.201
REMARK  Name = 
REMARK  9 active torsions:
REMARK  status: ('A' for Active; 'I' for Inactive)
REMARK    1  A    between atoms: C_1  and  C_2
REMARK    2  A    between atoms: C_2  and  C_4
REMARK    3  A    between atoms: C_7  and  N_8
REMARK    4  A    between atoms: N_8  and  S_9
REMARK    5  A    between atoms: S_9  and  C_12
REMARK    6  A    between atoms: C_16  and  C_17
REMARK    7  A    between atoms: N_19  and  C_20
REMARK    8  A    between atoms: C_25  and  C_26
REMARK    9  A    between atoms: C_26  and  O_28
REMARK                            x       y       z     vdW  Elec       q    Type
REMARK                         _______ _______ _______ _____ _____    ______ ____
ROOT
ATOM      1  C   UNL     1       2.090   7.167  19.339  0.00  0.00    +0.000 A 
ATOM      2  C   UNL     1       2.305   7.610  18.030  0.00  0.00    +0.000 A 
ATOM      3  C   UNL     1       1.990   8.920  17.696  0.00  0.00    +0.000 A 
ATOM      4  C   UNL     1       1.470   9.771  18.672  0.00  0.00    +0.000 A 
ATOM      5  C   UNL     1       1.245   9.330  19.993  0.00  0.00    +0.000 A 
ATOM      6  C   UNL     1       1.540   8.009  20.319  0.00  0.00    +0.000 A 
ENDROOT
BRANCH   5   7
ATOM      7  C   UNL     1       0.649  10.319  20.942  0.00  0.00    +0.000 C 
ATOM      8  O   UNL     1       1.389  10.741  21.827  0.00  0.00    +0.000 OA
ATOM      9  N   UNL     1      -0.683  10.685  20.784  0.00  0.00    +0.000 N 
ATOM     10  H   UNL     1      -1.303  10.065  20.265  0.00  0.00    +0.000 HD
BRANCH   9  11
ATOM     11  C   UNL     1      -1.328  11.727  21.518  0.00  0.00    +0.000 A 
ATOM     12  C   UNL     1      -1.748  11.523  22.841  0.00  0.00    +0.000 A 
ATOM     13  C   UNL     1      -2.439  12.505  23.553  0.00  0.00    +0.000 A 
ATOM     14  C   UNL     1      -2.707  13.730  22.965  0.00  0.00    +0.000 A 
ATOM     15  C   UNL     1      -2.260  13.983  21.670  0.00  0.00    +0.000 A 
ATOM     16  C   UNL     1      -1.542  13.003  20.950  0.00  0.00    +0.000 A 
BRANCH  16  17
ATOM     17  C   UNL     1      -1.058  13.317  19.580  0.00  0.00    +0.000 C 
ATOM     18  O   UNL     1      -0.131  14.081  19.357  0.00  0.00    +0.000 OA
BRANCH  17  19
ATOM     19  O   UNL     1      -1.785  12.751  18.591  0.00  0.00    +0.000 OA
ATOM     20  H   UNL     1      -2.538  12.203  18.884  0.00  0.00    +0.000 HD
ENDBRANCH  17  19
ENDBRANCH  16  17
ENDBRANCH   9  11
ENDBRANCH   5   7
BRANCH   1  21
ATOM     21  S   UNL     1       2.508   5.498  19.768  0.00  0.00    +0.000 S 
ATOM     22  O   UNL     1       2.072   4.637  18.684  0.00  0.00    +0.000 OA
ATOM     23  O   UNL     1       2.092   5.250  21.127  0.00  0.00    +0.000 OA
BRANCH  21  24
ATOM     24  N   UNL     1       4.194   5.529  19.693  0.00  0.00    +0.000 N 
ATOM     25  H   UNL     1       4.582   6.221  20.334  0.00  0.00    +0.000 HD
BRANCH  24  29
ATOM     26  C   UNL     1       6.054   5.050  15.937  0.00  0.00    +0.000 A 
ATOM     27  C   UNL     1       6.196   6.251  16.646  0.00  0.00    +0.000 A 
ATOM     28  C   UNL     1       5.577   6.414  17.889  0.00  0.00    +0.000 A 
ATOM     29  C   UNL     1       4.820   5.378  18.429  0.00  0.00    +0.000 A 
ATOM     30  C   UNL     1       4.659   4.184  17.727  0.00  0.00    +0.000 A 
ATOM     31  C   UNL     1       5.275   4.019  16.482  0.00  0.00    +0.000 A 
BRANCH  26  33
ATOM     32  C   UNL     1       6.113   3.850  13.652  0.00  0.00    +0.000 C 
ATOM     33  C   UNL     1       6.729   4.822  14.624  0.00  0.00    +0.000 C 
ATOM     34  O   UNL     1       7.746   5.451  14.339  0.00  0.00    +0.000 OA
ENDBRANCH  26  33
ENDBRANCH  24  29
ENDBRANCH  21  24
ENDBRANCH   1  21
TORSDOF 8
ENDMDL
