MODEL 1
REMARK VINA RESULT:      -7.5      0.000      0.000
REMARK  Name = 
REMARK  5 active torsions:
REMARK  status: ('A' for Active; 'I' for Inactive)
REMARK    1  A    between atoms: C_2  and  C_15
REMARK    2  A    between atoms: N_3  and  C_4
REMARK    3  A    between atoms: C_4  and  N_6
REMARK    4  A    between atoms: N_6  and  N_7
REMARK    5  A    between atoms: C_8  and  C_10
REMARK                            x       y       z     vdW  Elec       q    Type
REMARK                         _______ _______ _______ _____ _____    ______ ____
ROOT
ATOM      1  C   UNL     1       7.191   5.067  17.961  0.00  0.00    +0.000 C 
ATOM      2  S   UNL     1       7.800   6.393  18.763  0.00  0.00    +0.000 S 
ENDROOT
BRANCH   1   5
ATOM      3  O   UNL     1       4.945   4.872  16.023  0.00  0.00    +0.000 OA
ATOM      4  C   UNL     1       6.121   4.809  15.703  0.00  0.00    +0.000 C 
ATOM      5  N   UNL     1       7.188   4.815  16.593  0.00  0.00    +0.000 N 
ATOM      6  H   UNL     1       8.109   4.605  16.233  0.00  0.00    +0.000 HD
BRANCH   4   7
ATOM      7  C   UNL     1       6.457   4.556  14.274  0.00  0.00    +0.000 A 
ATOM      8  C   UNL     1       7.495   5.215  13.604  0.00  0.00    +0.000 A 
ATOM      9  C   UNL     1       7.746   4.926  12.257  0.00  0.00    +0.000 A 
ATOM     10  C   UNL     1       6.964   3.988  11.580  0.00  0.00    +0.000 A 
ATOM     11  C   UNL     1       5.926   3.336  12.243  0.00  0.00    +0.000 A 
ATOM     12  C   UNL     1       5.670   3.625  13.583  0.00  0.00    +0.000 A 
ENDBRANCH   4   7
ENDBRANCH   1   5
BRANCH   1  13
ATOM     13  N   UNL     1       6.583   4.062  18.689  0.00  0.00    +0.000 N 
ATOM     14  H   UNL     1       7.126   3.613  19.428  0.00  0.00    +0.000 HD
BRANCH  13  15
ATOM     15  N   UNL     1       5.193   4.137  18.903  0.00  0.00    +0.000 N 
ATOM     16  C   UNL     1       4.551   3.190  19.682  0.00  0.00    +0.000 C 
ATOM     17  O   UNL     1       5.141   2.237  20.186  0.00  0.00    +0.000 OA
ATOM     18  H   UNL     1       4.726   5.025  18.719  0.00  0.00    +0.000 HD
BRANCH  16  19
ATOM     19  C   UNL     1       3.129   3.426  19.819  0.00  0.00    +0.000 A 
ATOM     20  C   UNL     1       2.309   3.439  20.931  0.00  0.00    +0.000 A 
ATOM     21  C   UNL     1       0.990   3.660  20.467  0.00  0.00    +0.000 A 
ATOM     22  C   UNL     1       1.082   3.782  19.100  0.00  0.00    +0.000 A 
ATOM     23  O   UNL     1       2.372   3.646  18.695  0.00  0.00    +0.000 OA
ENDBRANCH  16  19
ENDBRANCH  13  15
ENDBRANCH   1  13
TORSDOF 5
ENDMDL
MODEL 2
REMARK VINA RESULT:      -7.5      0.588      1.230
REMARK  Name = 
REMARK  5 active torsions:
REMARK  status: ('A' for Active; 'I' for Inactive)
REMARK    1  A    between atoms: C_2  and  C_15
REMARK    2  A    between atoms: N_3  and  C_4
REMARK    3  A    between atoms: C_4  and  N_6
REMARK    4  A    between atoms: N_6  and  N_7
REMARK    5  A    between atoms: C_8  and  C_10
REMARK                            x       y       z     vdW  Elec       q    Type
REMARK                         _______ _______ _______ _____ _____    ______ ____
ROOT
ATOM      1  C   UNL     1       6.991   4.851  17.968  0.00  0.00    +0.000 C 
ATOM      2  S   UNL     1       7.624   6.203  18.705  0.00  0.00    +0.000 S 
ENDROOT
BRANCH   1   5
ATOM      3  O   UNL     1       5.131   5.815  15.859  0.00  0.00    +0.000 OA
ATOM      4  C   UNL     1       6.090   5.093  15.637  0.00  0.00    +0.000 C 
ATOM      5  N   UNL     1       6.927   4.561  16.610  0.00  0.00    +0.000 N 
ATOM      6  H   UNL     1       7.594   3.857  16.329  0.00  0.00    +0.000 HD
BRANCH   4   7
ATOM      7  C   UNL     1       6.309   4.612  14.244  0.00  0.00    +0.000 A 
ATOM      8  C   UNL     1       5.474   3.680  13.617  0.00  0.00    +0.000 A 
ATOM      9  C   UNL     1       5.749   3.272  12.306  0.00  0.00    +0.000 A 
ATOM     10  C   UNL     1       6.853   3.789  11.624  0.00  0.00    +0.000 A 
ATOM     11  C   UNL     1       7.689   4.713  12.248  0.00  0.00    +0.000 A 
ATOM     12  C   UNL     1       7.421   5.117  13.556  0.00  0.00    +0.000 A 
ENDBRANCH   4   7
ENDBRANCH   1   5
BRANCH   1  13
ATOM     13  N   UNL     1       6.427   3.861  18.751  0.00  0.00    +0.000 N 
ATOM     14  H   UNL     1       6.928   3.576  19.594  0.00  0.00    +0.000 HD
BRANCH  13  15
ATOM     15  N   UNL     1       5.023   3.771  18.808  0.00  0.00    +0.000 N 
ATOM     16  C   UNL     1       4.412   2.843  19.634  0.00  0.00    +0.000 C 
ATOM     17  O   UNL     1       5.049   2.046  20.319  0.00  0.00    +0.000 OA
ATOM     18  H   UNL     1       4.477   4.558  18.459  0.00  0.00    +0.000 HD
BRANCH  16  19
ATOM     19  C   UNL     1       2.966   2.897  19.589  0.00  0.00    +0.000 A 
ATOM     20  C   UNL     1       2.045   3.429  20.472  0.00  0.00    +0.000 A 
ATOM     21  C   UNL     1       0.761   3.138  19.951  0.00  0.00    +0.000 A 
ATOM     22  C   UNL     1       0.972   2.458  18.775  0.00  0.00    +0.000 A 
ATOM     23  O   UNL     1       2.302   2.308  18.542  0.00  0.00    +0.000 OA
ENDBRANCH  16  19
ENDBRANCH  13  15
ENDBRANCH   1  13
TORSDOF 5
ENDMDL
MODEL 3
REMARK VINA RESULT:      -7.5      3.290      6.997
REMARK  Name = 
REMARK  5 active torsions:
REMARK  status: ('A' for Active; 'I' for Inactive)
REMARK    1  A    between atoms: C_2  and  C_15
REMARK    2  A    between atoms: N_3  and  C_4
REMARK    3  A    between atoms: C_4  and  N_6
REMARK    4  A    between atoms: N_6  and  N_7
REMARK    5  A    between atoms: C_8  and  C_10
REMARK                            x       y       z     vdW  Elec       q    Type
REMARK                         _______ _______ _______ _____ _____    ______ ____
ROOT
ATOM      1  C   UNL     1       4.258   3.802  18.672  0.00  0.00    +0.000 C 
ATOM      2  S   UNL     1       3.687   2.245  18.816  0.00  0.00    +0.000 S 
ENDROOT
BRANCH   1   5
ATOM      3  O   UNL     1       4.092   6.338  17.129  0.00  0.00    +0.000 OA
ATOM      4  C   UNL     1       3.472   6.132  18.161  0.00  0.00    +0.000 C 
ATOM      5  N   UNL     1       3.592   4.992  18.946  0.00  0.00    +0.000 N 
ATOM      6  H   UNL     1       3.150   4.991  19.854  0.00  0.00    +0.000 HD
BRANCH   4   7
ATOM      7  C   UNL     1       2.635   7.231  18.719  0.00  0.00    +0.000 A 
ATOM      8  C   UNL     1       2.152   7.231  20.033  0.00  0.00    +0.000 A 
ATOM      9  C   UNL     1       1.365   8.299  20.484  0.00  0.00    +0.000 A 
ATOM     10  C   UNL     1       1.060   9.359  19.627  0.00  0.00    +0.000 A 
ATOM     11  C   UNL     1       1.534   9.358  18.317  0.00  0.00    +0.000 A 
ATOM     12  C   UNL     1       2.313   8.293  17.864  0.00  0.00    +0.000 A 
ENDBRANCH   4   7
ENDBRANCH   1   5
BRANCH   1  13
ATOM     13  N   UNL     1       5.545   4.006  18.210  0.00  0.00    +0.000 N 
ATOM     14  H   UNL     1       6.317   3.664  18.784  0.00  0.00    +0.000 HD
BRANCH  13  15
ATOM     15  N   UNL     1       5.764   4.010  16.819  0.00  0.00    +0.000 N 
ATOM     16  C   UNL     1       6.789   4.762  16.272  0.00  0.00    +0.000 C 
ATOM     17  O   UNL     1       7.522   5.476  16.953  0.00  0.00    +0.000 OA
ATOM     18  H   UNL     1       5.353   3.257  16.266  0.00  0.00    +0.000 HD
BRANCH  16  19
ATOM     19  C   UNL     1       6.890   4.637  14.833  0.00  0.00    +0.000 A 
ATOM     20  C   UNL     1       6.204   3.840  13.937  0.00  0.00    +0.000 A 
ATOM     21  C   UNL     1       6.762   4.085  12.659  0.00  0.00    +0.000 A 
ATOM     22  C   UNL     1       7.745   5.027  12.846  0.00  0.00    +0.000 A 
ATOM     23  O   UNL     1       7.831   5.373  14.157  0.00  0.00    +0.000 OA
ENDBRANCH  16  19
ENDBRANCH  13  15
ENDBRANCH   1  13
TORSDOF 5
ENDMDL
MODEL 4
REMARK VINA RESULT:      -7.4      1.672      6.620
REMARK  Name = 
REMARK  5 active torsions:
REMARK  status: ('A' for Active; 'I' for Inactive)
REMARK    1  A    between atoms: C_2  and  C_15
REMARK    2  A    between atoms: N_3  and  C_4
REMARK    3  A    between atoms: C_4  and  N_6
REMARK    4  A    between atoms: N_6  and  N_7
REMARK    5  A    between atoms: C_8  and  C_10
REMARK                            x       y       z     vdW  Elec       q    Type
REMARK                         _______ _______ _______ _____ _____    ______ ____
ROOT
ATOM      1  C   UNL     1       6.946   5.433  18.303  0.00  0.00    +0.000 C 
ATOM      2  S   UNL     1       7.770   6.860  18.540  0.00  0.00    +0.000 S 
ENDROOT
BRANCH   1   5
ATOM      3  O   UNL     1       4.305   6.617  17.622  0.00  0.00    +0.000 OA
ATOM      4  C   UNL     1       4.442   5.626  18.323  0.00  0.00    +0.000 C 
ATOM      5  N   UNL     1       5.664   5.100  18.724  0.00  0.00    +0.000 N 
ATOM      6  H   UNL     1       5.660   4.372  19.425  0.00  0.00    +0.000 HD
BRANCH   4   7
ATOM      7  C   UNL     1       3.228   5.010  18.926  0.00  0.00    +0.000 A 
ATOM      8  C   UNL     1       2.736   5.367  20.187  0.00  0.00    +0.000 A 
ATOM      9  C   UNL     1       1.590   4.737  20.690  0.00  0.00    +0.000 A 
ATOM     10  C   UNL     1       0.940   3.754  19.940  0.00  0.00    +0.000 A 
ATOM     11  C   UNL     1       1.432   3.392  18.688  0.00  0.00    +0.000 A 
ATOM     12  C   UNL     1       2.576   4.013  18.186  0.00  0.00    +0.000 A 
ENDBRANCH   4   7
ENDBRANCH   1   5
BRANCH   1  13
ATOM     13  N   UNL     1       7.568   4.403  17.624  0.00  0.00    +0.000 N 
ATOM     14  H   UNL     1       7.510   3.465  18.023  0.00  0.00    +0.000 HD
BRANCH  13  15
ATOM     15  N   UNL     1       7.638   4.474  16.219  0.00  0.00    +0.000 N 
ATOM     16  C   UNL     1       6.524   4.194  15.446  0.00  0.00    +0.000 C 
ATOM     17  O   UNL     1       5.451   3.845  15.933  0.00  0.00    +0.000 OA
ATOM     18  H   UNL     1       8.413   4.990  15.802  0.00  0.00    +0.000 HD
BRANCH  16  19
ATOM     19  C   UNL     1       6.760   4.335  14.024  0.00  0.00    +0.000 A 
ATOM     20  C   UNL     1       6.316   3.590  12.948  0.00  0.00    +0.000 A 
ATOM     21  C   UNL     1       6.915   4.144  11.791  0.00  0.00    +0.000 A 
ATOM     22  C   UNL     1       7.678   5.202  12.225  0.00  0.00    +0.000 A 
ATOM     23  O   UNL     1       7.591   5.331  13.575  0.00  0.00    +0.000 OA
ENDBRANCH  16  19
ENDBRANCH  13  15
ENDBRANCH   1  13
TORSDOF 5
ENDMDL
MODEL 5
REMARK VINA RESULT:      -7.4      1.120      1.276
REMARK  Name = 
REMARK  5 active torsions:
REMARK  status: ('A' for Active; 'I' for Inactive)
REMARK    1  A    between atoms: C_2  and  C_15
REMARK    2  A    between atoms: N_3  and  C_4
REMARK    3  A    between atoms: C_4  and  N_6
REMARK    4  A    between atoms: N_6  and  N_7
REMARK    5  A    between atoms: C_8  and  C_10
REMARK                            x       y       z     vdW  Elec       q    Type
REMARK                         _______ _______ _______ _____ _____    ______ ____
ROOT
ATOM      1  C   UNL     1       7.418   5.377  17.752  0.00  0.00    +0.000 C 
ATOM      2  S   UNL     1       7.893   6.848  18.369  0.00  0.00    +0.000 S 
ENDROOT
BRANCH   1   5
ATOM      3  O   UNL     1       5.160   5.562  15.825  0.00  0.00    +0.000 OA
ATOM      4  C   UNL     1       6.276   5.167  15.524  0.00  0.00    +0.000 C 
ATOM      5  N   UNL     1       7.325   4.993  16.419  0.00  0.00    +0.000 N 
ATOM      6  H   UNL     1       8.155   4.519  16.091  0.00  0.00    +0.000 HD
BRANCH   4   7
ATOM      7  C   UNL     1       6.509   4.689  14.133  0.00  0.00    +0.000 A 
ATOM      8  C   UNL     1       7.548   5.167  13.325  0.00  0.00    +0.000 A 
ATOM      9  C   UNL     1       7.699   4.672  12.023  0.00  0.00    +0.000 A 
ATOM     10  C   UNL     1       6.819   3.707  11.530  0.00  0.00    +0.000 A 
ATOM     11  C   UNL     1       5.781   3.234  12.331  0.00  0.00    +0.000 A 
ATOM     12  C   UNL     1       5.624   3.729  13.625  0.00  0.00    +0.000 A 
ENDBRANCH   4   7
ENDBRANCH   1   5
BRANCH   1  13
ATOM     13  N   UNL     1       7.037   4.374  18.623  0.00  0.00    +0.000 N 
ATOM     14  H   UNL     1       7.424   4.391  19.568  0.00  0.00    +0.000 HD
BRANCH  13  15
ATOM     15  N   UNL     1       5.744   3.831  18.495  0.00  0.00    +0.000 N 
ATOM     16  C   UNL     1       4.660   4.455  19.087  0.00  0.00    +0.000 C 
ATOM     17  O   UNL     1       4.771   5.471  19.768  0.00  0.00    +0.000 OA
ATOM     18  H   UNL     1       5.580   3.153  17.751  0.00  0.00    +0.000 HD
BRANCH  16  19
ATOM     19  C   UNL     1       3.403   3.779  18.840  0.00  0.00    +0.000 A 
ATOM     20  C   UNL     1       2.102   4.246  18.831  0.00  0.00    +0.000 A 
ATOM     21  C   UNL     1       1.266   3.128  18.595  0.00  0.00    +0.000 A 
ATOM     22  C   UNL     1       2.104   2.047  18.460  0.00  0.00    +0.000 A 
ATOM     23  O   UNL     1       3.400   2.427  18.602  0.00  0.00    +0.000 OA
ENDBRANCH  16  19
ENDBRANCH  13  15
ENDBRANCH   1  13
TORSDOF 5
ENDMDL
MODEL 6
REMARK VINA RESULT:      -7.3      1.904      6.675
REMARK  Name = 
REMARK  5 active torsions:
REMARK  status: ('A' for Active; 'I' for Inactive)
REMARK    1  A    between atoms: C_2  and  C_15
REMARK    2  A    between atoms: N_3  and  C_4
REMARK    3  A    between atoms: C_4  and  N_6
REMARK    4  A    between atoms: N_6  and  N_7
REMARK    5  A    between atoms: C_8  and  C_10
REMARK                            x       y       z     vdW  Elec       q    Type
REMARK                         _______ _______ _______ _____ _____    ______ ____
ROOT
ATOM      1  C   UNL     1       6.492   5.092  17.616  0.00  0.00    +0.000 C 
ATOM      2  S   UNL     1       7.237   6.558  17.876  0.00  0.00    +0.000 S 
ENDROOT
BRANCH   1   5
ATOM      3  O   UNL     1       3.774   6.287  17.456  0.00  0.00    +0.000 OA
ATOM      4  C   UNL     1       4.004   5.194  17.949  0.00  0.00    +0.000 C 
ATOM      5  N   UNL     1       5.271   4.647  18.112  0.00  0.00    +0.000 N 
ATOM      6  H   UNL     1       5.359   3.807  18.667  0.00  0.00    +0.000 HD
BRANCH   4   7
ATOM      7  C   UNL     1       2.877   4.440  18.565  0.00  0.00    +0.000 A 
ATOM      8  C   UNL     1       2.230   3.375  17.926  0.00  0.00    +0.000 A 
ATOM      9  C   UNL     1       1.173   2.718  18.569  0.00  0.00    +0.000 A 
ATOM     10  C   UNL     1       0.761   3.123  19.841  0.00  0.00    +0.000 A 
ATOM     11  C   UNL     1       1.399   4.187  20.475  0.00  0.00    +0.000 A 
ATOM     12  C   UNL     1       2.449   4.847  19.836  0.00  0.00    +0.000 A 
ENDBRANCH   4   7
ENDBRANCH   1   5
BRANCH   1  13
ATOM     13  N   UNL     1       7.124   4.147  16.829  0.00  0.00    +0.000 N 
ATOM     14  H   UNL     1       7.692   3.440  17.298  0.00  0.00    +0.000 HD
BRANCH  13  15
ATOM     15  N   UNL     1       6.499   3.745  15.633  0.00  0.00    +0.000 N 
ATOM     16  C   UNL     1       6.810   4.367  14.436  0.00  0.00    +0.000 C 
ATOM     17  O   UNL     1       7.602   5.303  14.362  0.00  0.00    +0.000 OA
ATOM     18  H   UNL     1       6.042   2.833  15.613  0.00  0.00    +0.000 HD
BRANCH  16  19
ATOM     19  C   UNL     1       6.096   3.819  13.301  0.00  0.00    +0.000 A 
ATOM     20  C   UNL     1       4.787   3.973  12.887  0.00  0.00    +0.000 A 
ATOM     21  C   UNL     1       4.618   3.152  11.746  0.00  0.00    +0.000 A 
ATOM     22  C   UNL     1       5.836   2.555  11.522  0.00  0.00    +0.000 A 
ATOM     23  O   UNL     1       6.741   2.953  12.454  0.00  0.00    +0.000 OA
ENDBRANCH  16  19
ENDBRANCH  13  15
ENDBRANCH   1  13
TORSDOF 5
ENDMDL
MODEL 7
REMARK VINA RESULT:      -7.3      2.110      6.752
REMARK  Name = 
REMARK  5 active torsions:
REMARK  status: ('A' for Active; 'I' for Inactive)
REMARK    1  A    between atoms: C_2  and  C_15
REMARK    2  A    between atoms: N_3  and  C_4
REMARK    3  A    between atoms: C_4  and  N_6
REMARK    4  A    between atoms: N_6  and  N_7
REMARK    5  A    between atoms: C_8  and  C_10
REMARK                            x       y       z     vdW  Elec       q    Type
REMARK                         _______ _______ _______ _____ _____    ______ ____
ROOT
ATOM      1  C   UNL     1       6.069   6.017  17.549  0.00  0.00    +0.000 C 
ATOM      2  S   UNL     1       7.551   6.190  18.287  0.00  0.00    +0.000 S 
ENDROOT
BRANCH   1   5
ATOM      3  O   UNL     1       3.300   6.994  18.021  0.00  0.00    +0.000 OA
ATOM      4  C   UNL     1       3.640   5.829  18.161  0.00  0.00    +0.000 C 
ATOM      5  N   UNL     1       4.941   5.359  18.027  0.00  0.00    +0.000 N 
ATOM      6  H   UNL     1       5.135   4.410  18.313  0.00  0.00    +0.000 HD
BRANCH   4   7
ATOM      7  C   UNL     1       2.633   4.850  18.657  0.00  0.00    +0.000 A 
ATOM      8  C   UNL     1       2.232   3.728  17.923  0.00  0.00    +0.000 A 
ATOM      9  C   UNL     1       1.274   2.855  18.455  0.00  0.00    +0.000 A 
ATOM     10  C   UNL     1       0.719   3.101  19.712  0.00  0.00    +0.000 A 
ATOM     11  C   UNL     1       1.112   4.221  20.442  0.00  0.00    +0.000 A 
ATOM     12  C   UNL     1       2.061   5.096  19.913  0.00  0.00    +0.000 A 
ENDBRANCH   4   7
ENDBRANCH   1   5
BRANCH   1  13
ATOM     13  N   UNL     1       5.877   6.557  16.292  0.00  0.00    +0.000 N 
ATOM     14  H   UNL     1       6.372   7.420  16.064  0.00  0.00    +0.000 HD
BRANCH  13  15
ATOM     15  N   UNL     1       5.635   5.681  15.216  0.00  0.00    +0.000 N 
ATOM     16  C   UNL     1       6.689   5.148  14.495  0.00  0.00    +0.000 C 
ATOM     17  O   UNL     1       7.862   5.432  14.727  0.00  0.00    +0.000 OA
ATOM     18  H   UNL     1       4.719   5.237  15.156  0.00  0.00    +0.000 HD
BRANCH  16  19
ATOM     19  C   UNL     1       6.268   4.251  13.438  0.00  0.00    +0.000 A 
ATOM     20  C   UNL     1       6.981   3.626  12.433  0.00  0.00    +0.000 A 
ATOM     21  C   UNL     1       6.044   2.916  11.645  0.00  0.00    +0.000 A 
ATOM     22  C   UNL     1       4.816   3.136  12.222  0.00  0.00    +0.000 A 
ATOM     23  O   UNL     1       4.937   3.940  13.311  0.00  0.00    +0.000 OA
ENDBRANCH  16  19
ENDBRANCH  13  15
ENDBRANCH   1  13
TORSDOF 5
ENDMDL
MODEL 8
REMARK VINA RESULT:      -7.3      1.608      6.835
REMARK  Name = 
REMARK  5 active torsions:
REMARK  status: ('A' for Active; 'I' for Inactive)
REMARK    1  A    between atoms: C_2  and  C_15
REMARK    2  A    between atoms: N_3  and  C_4
REMARK    3  A    between atoms: C_4  and  N_6
REMARK    4  A    between atoms: N_6  and  N_7
REMARK    5  A    between atoms: C_8  and  C_10
REMARK                            x       y       z     vdW  Elec       q    Type
REMARK                         _______ _______ _______ _____ _____    ______ ____
ROOT
ATOM      1  C   UNL     1       6.132   5.161  17.188  0.00  0.00    +0.000 C 
ATOM      2  S   UNL     1       6.816   6.676  17.287  0.00  0.00    +0.000 S 
ENDROOT
BRANCH   1   5
ATOM      3  O   UNL     1       5.534   3.510  19.587  0.00  0.00    +0.000 OA
ATOM      4  C   UNL     1       4.674   4.021  18.887  0.00  0.00    +0.000 C 
ATOM      5  N   UNL     1       4.920   4.727  17.715  0.00  0.00    +0.000 N 
ATOM      6  H   UNL     1       4.131   4.975  17.136  0.00  0.00    +0.000 HD
BRANCH   4   7
ATOM      7  C   UNL     1       3.244   3.754  19.207  0.00  0.00    +0.000 A 
ATOM      8  C   UNL     1       2.631   4.191  20.387  0.00  0.00    +0.000 A 
ATOM      9  C   UNL     1       1.282   3.895  20.620  0.00  0.00    +0.000 A 
ATOM     10  C   UNL     1       0.549   3.165  19.682  0.00  0.00    +0.000 A 
ATOM     11  C   UNL     1       1.159   2.723  18.509  0.00  0.00    +0.000 A 
ATOM     12  C   UNL     1       2.504   3.011  18.277  0.00  0.00    +0.000 A 
ENDBRANCH   4   7
ENDBRANCH   1   5
BRANCH   1  13
ATOM     13  N   UNL     1       6.813   4.158  16.525  0.00  0.00    +0.000 N 
ATOM     14  H   UNL     1       7.358   3.501  17.085  0.00  0.00    +0.000 HD
BRANCH  13  15
ATOM     15  N   UNL     1       6.260   3.646  15.335  0.00  0.00    +0.000 N 
ATOM     16  C   UNL     1       6.583   4.209  14.112  0.00  0.00    +0.000 C 
ATOM     17  O   UNL     1       7.323   5.183  14.006  0.00  0.00    +0.000 OA
ATOM     18  H   UNL     1       5.856   2.710  15.358  0.00  0.00    +0.000 HD
BRANCH  16  19
ATOM     19  C   UNL     1       5.946   3.550  12.990  0.00  0.00    +0.000 A 
ATOM     20  C   UNL     1       6.416   2.598  12.106  0.00  0.00    +0.000 A 
ATOM     21  C   UNL     1       5.382   2.363  11.168  0.00  0.00    +0.000 A 
ATOM     22  C   UNL     1       4.336   3.174  11.542  0.00  0.00    +0.000 A 
ATOM     23  O   UNL     1       4.663   3.895  12.646  0.00  0.00    +0.000 OA
ENDBRANCH  16  19
ENDBRANCH  13  15
ENDBRANCH   1  13
TORSDOF 5
ENDMDL
MODEL 9
REMARK VINA RESULT:      -7.3      0.999      1.107
REMARK  Name = 
REMARK  5 active torsions:
REMARK  status: ('A' for Active; 'I' for Inactive)
REMARK    1  A    between atoms: C_2  and  C_15
REMARK    2  A    between atoms: N_3  and  C_4
REMARK    3  A    between atoms: C_4  and  N_6
REMARK    4  A    between atoms: N_6  and  N_7
REMARK    5  A    between atoms: C_8  and  C_10
REMARK                            x       y       z     vdW  Elec       q    Type
REMARK                         _______ _______ _______ _____ _____    ______ ____
ROOT
ATOM      1  C   UNL     1       7.113   4.992  17.841  0.00  0.00    +0.000 C 
ATOM      2  S   UNL     1       7.644   6.413  18.529  0.00  0.00    +0.000 S 
ENDROOT
BRANCH   1   5
ATOM      3  O   UNL     1       5.559   6.223  15.625  0.00  0.00    +0.000 OA
ATOM      4  C   UNL     1       6.359   5.314  15.467  0.00  0.00    +0.000 C 
ATOM      5  N   UNL     1       7.037   4.665  16.492  0.00  0.00    +0.000 N 
ATOM      6  H   UNL     1       7.557   3.830  16.263  0.00  0.00    +0.000 HD
BRANCH   4   7
ATOM      7  C   UNL     1       6.523   4.741  14.102  0.00  0.00    +0.000 A 
ATOM      8  C   UNL     1       7.553   5.120  13.233  0.00  0.00    +0.000 A 
ATOM      9  C   UNL     1       7.637   4.539  11.961  0.00  0.00    +0.000 A 
ATOM     10  C   UNL     1       6.698   3.588  11.557  0.00  0.00    +0.000 A 
ATOM     11  C   UNL     1       5.668   3.214  12.418  0.00  0.00    +0.000 A 
ATOM     12  C   UNL     1       5.578   3.794  13.683  0.00  0.00    +0.000 A 
ENDBRANCH   4   7
ENDBRANCH   1   5
BRANCH   1  13
ATOM     13  N   UNL     1       6.661   3.977  18.662  0.00  0.00    +0.000 N 
ATOM     14  H   UNL     1       7.355   3.451  19.196  0.00  0.00    +0.000 HD
BRANCH  13  15
ATOM     15  N   UNL     1       5.394   4.113  19.261  0.00  0.00    +0.000 N 
ATOM     16  C   UNL     1       4.257   3.674  18.605  0.00  0.00    +0.000 C 
ATOM     17  O   UNL     1       4.289   3.185  17.479  0.00  0.00    +0.000 OA
ATOM     18  H   UNL     1       5.354   4.275  20.267  0.00  0.00    +0.000 HD
BRANCH  16  19
ATOM     19  C   UNL     1       3.041   3.869  19.369  0.00  0.00    +0.000 A 
ATOM     20  C   UNL     1       2.370   5.020  19.735  0.00  0.00    +0.000 A 
ATOM     21  C   UNL     1       1.273   4.618  20.535  0.00  0.00    +0.000 A 
ATOM     22  C   UNL     1       1.330   3.246  20.599  0.00  0.00    +0.000 A 
ATOM     23  O   UNL     1       2.394   2.779  19.895  0.00  0.00    +0.000 OA
ENDBRANCH  16  19
ENDBRANCH  13  15
ENDBRANCH   1  13
TORSDOF 5
ENDMDL
