MODEL 1
REMARK VINA RESULT:      -7.7      0.000      0.000
REMARK  Name = 
REMARK  5 active torsions:
REMARK  status: ('A' for Active; 'I' for Inactive)
REMARK    1  A    between atoms: C_1  and  N_2
REMARK    2  A    between atoms: N_2  and  C_3
REMARK    3  A    between atoms: C_3  and  C_4
REMARK    4  A    between atoms: C_7  and  N_8
REMARK    5  A    between atoms: C_16  and  C_17
REMARK                            x       y       z     vdW  Elec       q    Type
REMARK                         _______ _______ _______ _____ _____    ______ ____
ROOT
ATOM      1  N   UNL     1       2.895   7.125  18.620  0.00  0.00    +0.000 N 
ATOM      2  C   UNL     1       3.932   7.211  17.725  0.00  0.00    +0.000 A 
ATOM      3  C   UNL     1       4.130   5.930  17.334  0.00  0.00    +0.000 A 
ATOM      4  C   UNL     1       4.857   5.562  16.221  0.00  0.00    +0.000 A 
ATOM      5  F   UNL     1       5.291   6.419  15.287  0.00  0.00    +0.000 F 
ATOM      6  C   UNL     1       5.050   4.186  16.153  0.00  0.00    +0.000 A 
ATOM      7  F   UNL     1       5.670   3.675  15.077  0.00  0.00    +0.000 F 
ATOM      8  C   UNL     1       4.655   3.300  17.183  0.00  0.00    +0.000 A 
ATOM      9  C   UNL     1       3.962   3.716  18.361  0.00  0.00    +0.000 A 
ATOM     10  C   UNL     1       3.602   5.093  18.378  0.00  0.00    +0.000 A 
ATOM     11  N   UNL     1       2.857   5.877  19.207  0.00  0.00    +0.000 NA
ENDROOT
BRANCH   1  15
ATOM     12  C   UNL     1       0.042  10.134  19.497  0.00  0.00    +0.000 A 
ATOM     13  C   UNL     1       0.553   9.315  20.503  0.00  0.00    +0.000 A 
ATOM     14  C   UNL     1       1.531   8.374  20.202  0.00  0.00    +0.000 A 
ATOM     15  C   UNL     1       2.005   8.206  18.885  0.00  0.00    +0.000 A 
ATOM     16  C   UNL     1       1.588   9.097  17.899  0.00  0.00    +0.000 A 
ATOM     17  C   UNL     1       0.596  10.047  18.208  0.00  0.00    +0.000 A 
BRANCH  12  18
ATOM     18  C   UNL     1      -1.124  11.049  19.803  0.00  0.00    +0.000 C 
BRANCH  18  20
ATOM     19  C   UNL     1      -2.855  11.512  18.171  0.00  0.00    +0.000 C 
ATOM     20  N   UNL     1      -1.544  11.890  18.680  0.00  0.00    +0.000 NA
ATOM     21  H   UNL     1      -1.586  12.857  19.006  0.00  0.00    +0.000 HD
ENDBRANCH  18  20
ENDBRANCH  12  18
ENDBRANCH   1  15
BRANCH   9  22
ATOM     22  C   UNL     1       3.862   2.782  19.497  0.00  0.00    +0.000 C 
ATOM     23  N   UNL     1       4.988   2.130  19.870  0.00  0.00    +0.000 N 
ATOM     24  O   UNL     1       2.774   2.536  20.005  0.00  0.00    +0.000 OA
ATOM     25  H   UNL     1       5.870   2.251  19.393  0.00  0.00    +0.000 HD
ATOM     26  H   UNL     1       4.878   1.343  20.508  0.00  0.00    +0.000 HD
ENDBRANCH   9  22
TORSDOF 4
ENDMDL
MODEL 2
REMARK VINA RESULT:      -7.7      2.704      3.216
REMARK  Name = 
REMARK  5 active torsions:
REMARK  status: ('A' for Active; 'I' for Inactive)
REMARK    1  A    between atoms: C_1  and  N_2
REMARK    2  A    between atoms: N_2  and  C_3
REMARK    3  A    between atoms: C_3  and  C_4
REMARK    4  A    between atoms: C_7  and  N_8
REMARK    5  A    between atoms: C_16  and  C_17
REMARK                            x       y       z     vdW  Elec       q    Type
REMARK                         _______ _______ _______ _____ _____    ______ ____
ROOT
ATOM      1  N   UNL     1       2.617   6.893  18.113  0.00  0.00    +0.000 N 
ATOM      2  C   UNL     1       1.922   5.731  17.886  0.00  0.00    +0.000 A 
ATOM      3  C   UNL     1       2.887   4.785  17.811  0.00  0.00    +0.000 A 
ATOM      4  C   UNL     1       2.653   3.429  17.900  0.00  0.00    +0.000 A 
ATOM      5  F   UNL     1       1.481   2.888  18.261  0.00  0.00    +0.000 F 
ATOM      6  C   UNL     1       3.790   2.681  17.616  0.00  0.00    +0.000 A 
ATOM      7  F   UNL     1       3.733   1.345  17.745  0.00  0.00    +0.000 F 
ATOM      8  C   UNL     1       5.000   3.258  17.160  0.00  0.00    +0.000 A 
ATOM      9  C   UNL     1       5.196   4.666  17.011  0.00  0.00    +0.000 A 
ATOM     10  C   UNL     1       4.105   5.464  17.457  0.00  0.00    +0.000 A 
ATOM     11  N   UNL     1       3.899   6.801  17.614  0.00  0.00    +0.000 NA
ENDROOT
BRANCH   1  15
ATOM     12  C   UNL     1       0.697  10.072  20.155  0.00  0.00    +0.000 A 
ATOM     13  C   UNL     1       1.123   8.934  20.838  0.00  0.00    +0.000 A 
ATOM     14  C   UNL     1       1.802   7.930  20.158  0.00  0.00    +0.000 A 
ATOM     15  C   UNL     1       2.050   8.021  18.774  0.00  0.00    +0.000 A 
ATOM     16  C   UNL     1       1.735   9.203  18.108  0.00  0.00    +0.000 A 
ATOM     17  C   UNL     1       1.046  10.217  18.800  0.00  0.00    +0.000 A 
BRANCH  12  18
ATOM     18  C   UNL     1      -0.168  11.088  20.868  0.00  0.00    +0.000 C 
BRANCH  18  20
ATOM     19  C   UNL     1      -1.136  10.791  23.070  0.00  0.00    +0.000 C 
ATOM     20  N   UNL     1       0.052  11.163  22.314  0.00  0.00    +0.000 NA
ATOM     21  H   UNL     1       0.807  10.520  22.554  0.00  0.00    +0.000 HD
ENDBRANCH  18  20
ENDBRANCH  12  18
ENDBRANCH   1  15
BRANCH   9  22
ATOM     22  C   UNL     1       6.367   5.146  16.256  0.00  0.00    +0.000 C 
ATOM     23  N   UNL     1       6.160   6.102  15.322  0.00  0.00    +0.000 N 
ATOM     24  O   UNL     1       7.462   4.615  16.406  0.00  0.00    +0.000 OA
ATOM     25  H   UNL     1       5.242   6.476  15.121  0.00  0.00    +0.000 HD
ATOM     26  H   UNL     1       6.918   6.282  14.666  0.00  0.00    +0.000 HD
ENDBRANCH   9  22
TORSDOF 4
ENDMDL
MODEL 3
REMARK VINA RESULT:      -7.6      1.636      1.922
REMARK  Name = 
REMARK  5 active torsions:
REMARK  status: ('A' for Active; 'I' for Inactive)
REMARK    1  A    between atoms: C_1  and  N_2
REMARK    2  A    between atoms: N_2  and  C_3
REMARK    3  A    between atoms: C_3  and  C_4
REMARK    4  A    between atoms: C_7  and  N_8
REMARK    5  A    between atoms: C_16  and  C_17
REMARK                            x       y       z     vdW  Elec       q    Type
REMARK                         _______ _______ _______ _____ _____    ______ ____
ROOT
ATOM      1  N   UNL     1       2.503   6.707  19.318  0.00  0.00    +0.000 N 
ATOM      2  C   UNL     1       3.502   6.262  18.488  0.00  0.00    +0.000 A 
ATOM      3  C   UNL     1       3.321   4.921  18.454  0.00  0.00    +0.000 A 
ATOM      4  C   UNL     1       3.889   4.086  17.515  0.00  0.00    +0.000 A 
ATOM      5  F   UNL     1       4.527   4.510  16.415  0.00  0.00    +0.000 F 
ATOM      6  C   UNL     1       3.684   2.743  17.815  0.00  0.00    +0.000 A 
ATOM      7  F   UNL     1       4.110   1.815  16.943  0.00  0.00    +0.000 F 
ATOM      8  C   UNL     1       3.078   2.305  19.017  0.00  0.00    +0.000 A 
ATOM      9  C   UNL     1       2.556   3.193  20.008  0.00  0.00    +0.000 A 
ATOM     10  C   UNL     1       2.601   4.569  19.648  0.00  0.00    +0.000 A 
ATOM     11  N   UNL     1       2.127   5.719  20.204  0.00  0.00    +0.000 NA
ENDROOT
BRANCH   1  15
ATOM     12  C   UNL     1       0.617  10.500  19.170  0.00  0.00    +0.000 A 
ATOM     13  C   UNL     1       0.665   9.768  20.355  0.00  0.00    +0.000 A 
ATOM     14  C   UNL     1       1.339   8.553  20.395  0.00  0.00    +0.000 A 
ATOM     15  C   UNL     1       1.960   8.023  19.246  0.00  0.00    +0.000 A 
ATOM     16  C   UNL     1       2.020   8.800  18.092  0.00  0.00    +0.000 A 
ATOM     17  C   UNL     1       1.335  10.029  18.055  0.00  0.00    +0.000 A 
BRANCH  12  18
ATOM     18  C   UNL     1      -0.240  11.744  19.096  0.00  0.00    +0.000 C 
BRANCH  18  20
ATOM     19  C   UNL     1      -2.122  11.462  17.594  0.00  0.00    +0.000 C 
ATOM     20  N   UNL     1      -0.789  12.024  17.767  0.00  0.00    +0.000 NA
ATOM     21  H   UNL     1      -0.844  13.037  17.653  0.00  0.00    +0.000 HD
ENDBRANCH  18  20
ENDBRANCH  12  18
ENDBRANCH   1  15
BRANCH   9  22
ATOM     22  C   UNL     1       2.223   2.657  21.339  0.00  0.00    +0.000 C 
ATOM     23  N   UNL     1       0.948   2.801  21.770  0.00  0.00    +0.000 N 
ATOM     24  O   UNL     1       3.100   2.196  22.060  0.00  0.00    +0.000 OA
ATOM     25  H   UNL     1       0.239   3.270  21.223  0.00  0.00    +0.000 HD
ATOM     26  H   UNL     1       0.769   2.621  22.756  0.00  0.00    +0.000 HD
ENDBRANCH   9  22
TORSDOF 4
ENDMDL
MODEL 4
REMARK VINA RESULT:      -7.6      1.779      2.298
REMARK  Name = 
REMARK  5 active torsions:
REMARK  status: ('A' for Active; 'I' for Inactive)
REMARK    1  A    between atoms: C_1  and  N_2
REMARK    2  A    between atoms: N_2  and  C_3
REMARK    3  A    between atoms: C_3  and  C_4
REMARK    4  A    between atoms: C_7  and  N_8
REMARK    5  A    between atoms: C_16  and  C_17
REMARK                            x       y       z     vdW  Elec       q    Type
REMARK                         _______ _______ _______ _____ _____    ______ ____
ROOT
ATOM      1  N   UNL     1       2.420   6.634  19.448  0.00  0.00    +0.000 N 
ATOM      2  C   UNL     1       3.394   6.202  18.583  0.00  0.00    +0.000 A 
ATOM      3  C   UNL     1       3.231   4.858  18.556  0.00  0.00    +0.000 A 
ATOM      4  C   UNL     1       3.775   4.030  17.597  0.00  0.00    +0.000 A 
ATOM      5  F   UNL     1       4.367   4.462  16.475  0.00  0.00    +0.000 F 
ATOM      6  C   UNL     1       3.599   2.685  17.906  0.00  0.00    +0.000 A 
ATOM      7  F   UNL     1       4.006   1.762  17.019  0.00  0.00    +0.000 F 
ATOM      8  C   UNL     1       3.043   2.240  19.129  0.00  0.00    +0.000 A 
ATOM      9  C   UNL     1       2.546   3.122  20.138  0.00  0.00    +0.000 A 
ATOM     10  C   UNL     1       2.559   4.498  19.776  0.00  0.00    +0.000 A 
ATOM     11  N   UNL     1       2.090   5.643  20.348  0.00  0.00    +0.000 NA
ENDROOT
BRANCH   1  15
ATOM     12  C   UNL     1       1.022  10.629  19.216  0.00  0.00    +0.000 A 
ATOM     13  C   UNL     1       1.527   9.979  18.092  0.00  0.00    +0.000 A 
ATOM     14  C   UNL     1       1.926   8.650  18.178  0.00  0.00    +0.000 A 
ATOM     15  C   UNL     1       1.857   7.942  19.395  0.00  0.00    +0.000 A 
ATOM     16  C   UNL     1       1.245   8.544  20.491  0.00  0.00    +0.000 A 
ATOM     17  C   UNL     1       0.844   9.890  20.400  0.00  0.00    +0.000 A 
BRANCH  12  18
ATOM     18  C   UNL     1       0.731  12.112  19.151  0.00  0.00    +0.000 C 
BRANCH  18  20
ATOM     19  C   UNL     1      -1.487  12.106  18.173  0.00  0.00    +0.000 C 
ATOM     20  N   UNL     1      -0.099  12.517  18.014  0.00  0.00    +0.000 NA
ATOM     21  H   UNL     1      -0.066  13.534  17.943  0.00  0.00    +0.000 HD
ENDBRANCH  18  20
ENDBRANCH  12  18
ENDBRANCH   1  15
BRANCH   9  22
ATOM     22  C   UNL     1       2.269   2.583  21.481  0.00  0.00    +0.000 C 
ATOM     23  N   UNL     1       1.036   2.795  21.997  0.00  0.00    +0.000 N 
ATOM     24  O   UNL     1       3.162   2.057  22.136  0.00  0.00    +0.000 OA
ATOM     25  H   UNL     1       0.323   3.315  21.505  0.00  0.00    +0.000 HD
ATOM     26  H   UNL     1       0.911   2.609  22.990  0.00  0.00    +0.000 HD
ENDBRANCH   9  22
TORSDOF 4
ENDMDL
MODEL 5
REMARK VINA RESULT:      -7.6      0.361      1.068
REMARK  Name = 
REMARK  5 active torsions:
REMARK  status: ('A' for Active; 'I' for Inactive)
REMARK    1  A    between atoms: C_1  and  N_2
REMARK    2  A    between atoms: N_2  and  C_3
REMARK    3  A    between atoms: C_3  and  C_4
REMARK    4  A    between atoms: C_7  and  N_8
REMARK    5  A    between atoms: C_16  and  C_17
REMARK                            x       y       z     vdW  Elec       q    Type
REMARK                         _______ _______ _______ _____ _____    ______ ____
ROOT
ATOM      1  N   UNL     1       2.916   7.044  18.666  0.00  0.00    +0.000 N 
ATOM      2  C   UNL     1       3.950   7.163  17.771  0.00  0.00    +0.000 A 
ATOM      3  C   UNL     1       4.149   5.897  17.335  0.00  0.00    +0.000 A 
ATOM      4  C   UNL     1       4.873   5.570  16.207  0.00  0.00    +0.000 A 
ATOM      5  F   UNL     1       5.303   6.460  15.302  0.00  0.00    +0.000 F 
ATOM      6  C   UNL     1       5.067   4.198  16.089  0.00  0.00    +0.000 A 
ATOM      7  F   UNL     1       5.685   3.726  14.994  0.00  0.00    +0.000 F 
ATOM      8  C   UNL     1       4.678   3.274  17.089  0.00  0.00    +0.000 A 
ATOM      9  C   UNL     1       3.987   3.647  18.283  0.00  0.00    +0.000 A 
ATOM     10  C   UNL     1       3.625   5.022  18.350  0.00  0.00    +0.000 A 
ATOM     11  N   UNL     1       2.882   5.776  19.208  0.00  0.00    +0.000 NA
ENDROOT
BRANCH   1  15
ATOM     12  C   UNL     1       0.486  10.416  19.493  0.00  0.00    +0.000 A 
ATOM     13  C   UNL     1       0.936  10.155  18.200  0.00  0.00    +0.000 A 
ATOM     14  C   UNL     1       1.683   9.012  17.942  0.00  0.00    +0.000 A 
ATOM     15  C   UNL     1       2.025   8.113  18.972  0.00  0.00    +0.000 A 
ATOM     16  C   UNL     1       1.481   8.301  20.240  0.00  0.00    +0.000 A 
ATOM     17  C   UNL     1       0.726   9.461  20.498  0.00  0.00    +0.000 A 
BRANCH  12  18
ATOM     18  C   UNL     1      -0.197  11.732  19.793  0.00  0.00    +0.000 C 
BRANCH  18  20
ATOM     19  C   UNL     1      -2.412  11.635  18.814  0.00  0.00    +0.000 C 
ATOM     20  N   UNL     1      -1.079  12.214  18.727  0.00  0.00    +0.000 NA
ATOM     21  H   UNL     1      -1.156  13.228  18.813  0.00  0.00    +0.000 HD
ENDBRANCH  18  20
ENDBRANCH  12  18
ENDBRANCH   1  15
BRANCH   9  22
ATOM     22  C   UNL     1       3.893   2.673  19.385  0.00  0.00    +0.000 C 
ATOM     23  N   UNL     1       5.049   2.160  19.866  0.00  0.00    +0.000 N 
ATOM     24  O   UNL     1       2.799   2.274  19.768  0.00  0.00    +0.000 OA
ATOM     25  H   UNL     1       5.953   2.409  19.489  0.00  0.00    +0.000 HD
ATOM     26  H   UNL     1       4.977   1.347  20.474  0.00  0.00    +0.000 HD
ENDBRANCH   9  22
TORSDOF 4
ENDMDL
MODEL 6
REMARK VINA RESULT:      -7.6      4.443      8.377
REMARK  Name = 
REMARK  5 active torsions:
REMARK  status: ('A' for Active; 'I' for Inactive)
REMARK    1  A    between atoms: C_1  and  N_2
REMARK    2  A    between atoms: N_2  and  C_3
REMARK    3  A    between atoms: C_3  and  C_4
REMARK    4  A    between atoms: C_7  and  N_8
REMARK    5  A    between atoms: C_16  and  C_17
REMARK                            x       y       z     vdW  Elec       q    Type
REMARK                         _______ _______ _______ _____ _____    ______ ____
ROOT
ATOM      1  N   UNL     1       1.631   8.162  20.311  0.00  0.00    +0.000 N 
ATOM      2  C   UNL     1       1.525   8.565  21.618  0.00  0.00    +0.000 A 
ATOM      3  C   UNL     1       0.505   9.456  21.601  0.00  0.00    +0.000 A 
ATOM      4  C   UNL     1      -0.163   9.892  22.726  0.00  0.00    +0.000 A 
ATOM      5  F   UNL     1      -0.021   9.352  23.945  0.00  0.00    +0.000 F 
ATOM      6  C   UNL     1      -1.042  10.932  22.443  0.00  0.00    +0.000 A 
ATOM      7  F   UNL     1      -1.823  11.403  23.429  0.00  0.00    +0.000 F 
ATOM      8  C   UNL     1      -1.126  11.546  21.171  0.00  0.00    +0.000 A 
ATOM      9  C   UNL     1      -0.372  11.118  20.035  0.00  0.00    +0.000 A 
ATOM     10  C   UNL     1       0.409   9.948  20.253  0.00  0.00    +0.000 A 
ATOM     11  N   UNL     1       1.164   9.140  19.458  0.00  0.00    +0.000 NA
ENDROOT
BRANCH   1  15
ATOM     12  C   UNL     1       3.358   4.390  19.443  0.00  0.00    +0.000 A 
ATOM     13  C   UNL     1       2.446   4.539  20.486  0.00  0.00    +0.000 A 
ATOM     14  C   UNL     1       1.848   5.772  20.716  0.00  0.00    +0.000 A 
ATOM     15  C   UNL     1       2.165   6.897  19.928  0.00  0.00    +0.000 A 
ATOM     16  C   UNL     1       2.982   6.731  18.812  0.00  0.00    +0.000 A 
ATOM     17  C   UNL     1       3.586   5.481  18.584  0.00  0.00    +0.000 A 
BRANCH  12  18
ATOM     18  C   UNL     1       4.112   3.087  19.293  0.00  0.00    +0.000 C 
BRANCH  18  20
ATOM     19  C   UNL     1       2.615   2.098  17.664  0.00  0.00    +0.000 C 
ATOM     20  N   UNL     1       3.990   2.465  17.973  0.00  0.00    +0.000 NA
ATOM     21  H   UNL     1       4.314   3.135  17.275  0.00  0.00    +0.000 HD
ENDBRANCH  18  20
ENDBRANCH  12  18
ENDBRANCH   1  15
BRANCH   9  22
ATOM     22  C   UNL     1      -0.304  11.996  18.853  0.00  0.00    +0.000 C 
ATOM     23  N   UNL     1       0.896  12.133  18.244  0.00  0.00    +0.000 N 
ATOM     24  O   UNL     1      -1.282  12.651  18.510  0.00  0.00    +0.000 OA
ATOM     25  H   UNL     1       1.732  11.674  18.580  0.00  0.00    +0.000 HD
ATOM     26  H   UNL     1       0.989  12.887  17.566  0.00  0.00    +0.000 HD
ENDBRANCH   9  22
TORSDOF 4
ENDMDL
MODEL 7
REMARK VINA RESULT:      -7.6      1.128      1.725
REMARK  Name = 
REMARK  5 active torsions:
REMARK  status: ('A' for Active; 'I' for Inactive)
REMARK    1  A    between atoms: C_1  and  N_2
REMARK    2  A    between atoms: N_2  and  C_3
REMARK    3  A    between atoms: C_3  and  C_4
REMARK    4  A    between atoms: C_7  and  N_8
REMARK    5  A    between atoms: C_16  and  C_17
REMARK                            x       y       z     vdW  Elec       q    Type
REMARK                         _______ _______ _______ _____ _____    ______ ____
ROOT
ATOM      1  N   UNL     1       2.866   6.997  18.934  0.00  0.00    +0.000 N 
ATOM      2  C   UNL     1       3.883   7.158  18.027  0.00  0.00    +0.000 A 
ATOM      3  C   UNL     1       4.061   5.916  17.516  0.00  0.00    +0.000 A 
ATOM      4  C   UNL     1       4.760   5.646  16.358  0.00  0.00    +0.000 A 
ATOM      5  F   UNL     1       5.181   6.582  15.496  0.00  0.00    +0.000 F 
ATOM      6  C   UNL     1       4.938   4.281  16.160  0.00  0.00    +0.000 A 
ATOM      7  F   UNL     1       5.529   3.866  15.028  0.00  0.00    +0.000 F 
ATOM      8  C   UNL     1       4.558   3.307  17.114  0.00  0.00    +0.000 A 
ATOM      9  C   UNL     1       3.894   3.618  18.340  0.00  0.00    +0.000 A 
ATOM     10  C   UNL     1       3.548   4.990  18.491  0.00  0.00    +0.000 A 
ATOM     11  N   UNL     1       2.829   5.701  19.404  0.00  0.00    +0.000 NA
ENDROOT
BRANCH   1  15
ATOM     12  C   UNL     1       0.486  10.340  19.995  0.00  0.00    +0.000 A 
ATOM     13  C   UNL     1       0.906  10.146  18.681  0.00  0.00    +0.000 A 
ATOM     14  C   UNL     1       1.636   9.013  18.344  0.00  0.00    +0.000 A 
ATOM     15  C   UNL     1       1.992   8.056  19.316  0.00  0.00    +0.000 A 
ATOM     16  C   UNL     1       1.477   8.179  20.604  0.00  0.00    +0.000 A 
ATOM     17  C   UNL     1       0.739   9.330  20.941  0.00  0.00    +0.000 A 
BRANCH  12  18
ATOM     18  C   UNL     1      -0.178  11.644  20.381  0.00  0.00    +0.000 C 
BRANCH  18  20
ATOM     19  C   UNL     1       1.383  13.426  20.894  0.00  0.00    +0.000 C 
ATOM     20  N   UNL     1       0.516  12.388  21.435  0.00  0.00    +0.000 NA
ATOM     21  H   UNL     1      -0.188  12.827  22.030  0.00  0.00    +0.000 HD
ENDBRANCH  18  20
ENDBRANCH  12  18
ENDBRANCH   1  15
BRANCH   9  22
ATOM     22  C   UNL     1       3.812   2.585  19.388  0.00  0.00    +0.000 C 
ATOM     23  N   UNL     1       4.973   2.048  19.829  0.00  0.00    +0.000 N 
ATOM     24  O   UNL     1       2.722   2.163  19.759  0.00  0.00    +0.000 OA
ATOM     25  H   UNL     1       5.873   2.318  19.458  0.00  0.00    +0.000 HD
ATOM     26  H   UNL     1       4.907   1.202  20.392  0.00  0.00    +0.000 HD
ENDBRANCH   9  22
TORSDOF 4
ENDMDL
MODEL 8
REMARK VINA RESULT:      -7.6      1.349      1.810
REMARK  Name = 
REMARK  5 active torsions:
REMARK  status: ('A' for Active; 'I' for Inactive)
REMARK    1  A    between atoms: C_1  and  N_2
REMARK    2  A    between atoms: N_2  and  C_3
REMARK    3  A    between atoms: C_3  and  C_4
REMARK    4  A    between atoms: C_7  and  N_8
REMARK    5  A    between atoms: C_16  and  C_17
REMARK                            x       y       z     vdW  Elec       q    Type
REMARK                         _______ _______ _______ _____ _____    ______ ____
ROOT
ATOM      1  N   UNL     1       2.934   6.830  18.828  0.00  0.00    +0.000 N 
ATOM      2  C   UNL     1       3.969   7.095  17.967  0.00  0.00    +0.000 A 
ATOM      3  C   UNL     1       4.160   5.921  17.319  0.00  0.00    +0.000 A 
ATOM      4  C   UNL     1       4.882   5.788  16.151  0.00  0.00    +0.000 A 
ATOM      5  F   UNL     1       5.319   6.818  15.414  0.00  0.00    +0.000 F 
ATOM      6  C   UNL     1       5.068   4.456  15.799  0.00  0.00    +0.000 A 
ATOM      7  F   UNL     1       5.683   4.175  14.639  0.00  0.00    +0.000 F 
ATOM      8  C   UNL     1       4.671   3.377  16.625  0.00  0.00    +0.000 A 
ATOM      9  C   UNL     1       3.982   3.543  17.865  0.00  0.00    +0.000 A 
ATOM     10  C   UNL     1       3.629   4.888  18.168  0.00  0.00    +0.000 A 
ATOM     11  N   UNL     1       2.891   5.488  19.144  0.00  0.00    +0.000 NA
ENDROOT
BRANCH   1  15
ATOM     12  C   UNL     1       0.524  10.028  20.217  0.00  0.00    +0.000 A 
ATOM     13  C   UNL     1       0.948   9.972  18.891  0.00  0.00    +0.000 A 
ATOM     14  C   UNL     1       1.689   8.885  18.443  0.00  0.00    +0.000 A 
ATOM     15  C   UNL     1       2.050   7.837  19.314  0.00  0.00    +0.000 A 
ATOM     16  C   UNL     1       1.532   7.824  20.606  0.00  0.00    +0.000 A 
ATOM     17  C   UNL     1       0.783   8.928  21.056  0.00  0.00    +0.000 A 
BRANCH  12  18
ATOM     18  C   UNL     1      -0.152  11.280  20.732  0.00  0.00    +0.000 C 
BRANCH  18  20
ATOM     19  C   UNL     1      -1.288  11.473  22.864  0.00  0.00    +0.000 C 
ATOM     20  N   UNL     1      -0.006  11.498  22.173  0.00  0.00    +0.000 NA
ATOM     21  H   UNL     1       0.583  10.754  22.549  0.00  0.00    +0.000 HD
ENDBRANCH  18  20
ENDBRANCH  12  18
ENDBRANCH   1  15
BRANCH   9  22
ATOM     22  C   UNL     1       3.880   2.395  18.783  0.00  0.00    +0.000 C 
ATOM     23  N   UNL     1       4.238   2.592  20.073  0.00  0.00    +0.000 N 
ATOM     24  O   UNL     1       3.583   1.284  18.357  0.00  0.00    +0.000 OA
ATOM     25  H   UNL     1       4.580   3.480  20.413  0.00  0.00    +0.000 HD
ATOM     26  H   UNL     1       4.365   1.763  20.651  0.00  0.00    +0.000 HD
ENDBRANCH   9  22
TORSDOF 4
ENDMDL
MODEL 9
REMARK VINA RESULT:      -7.5      4.467      8.536
REMARK  Name = 
REMARK  5 active torsions:
REMARK  status: ('A' for Active; 'I' for Inactive)
REMARK    1  A    between atoms: C_1  and  N_2
REMARK    2  A    between atoms: N_2  and  C_3
REMARK    3  A    between atoms: C_3  and  C_4
REMARK    4  A    between atoms: C_7  and  N_8
REMARK    5  A    between atoms: C_16  and  C_17
REMARK                            x       y       z     vdW  Elec       q    Type
REMARK                         _______ _______ _______ _____ _____    ______ ____
ROOT
ATOM      1  N   UNL     1       1.503   8.605  20.128  0.00  0.00    +0.000 N 
ATOM      2  C   UNL     1       1.423   8.857  21.475  0.00  0.00    +0.000 A 
ATOM      3  C   UNL     1       0.371   9.702  21.585  0.00  0.00    +0.000 A 
ATOM      4  C   UNL     1      -0.277   9.984  22.770  0.00  0.00    +0.000 A 
ATOM      5  F   UNL     1      -0.076   9.320  23.916  0.00  0.00    +0.000 F 
ATOM      6  C   UNL     1      -1.202  11.012  22.628  0.00  0.00    +0.000 A 
ATOM      7  F   UNL     1      -1.968  11.339  23.682  0.00  0.00    +0.000 F 
ATOM      8  C   UNL     1      -1.351  11.759  21.435  0.00  0.00    +0.000 A 
ATOM      9  C   UNL     1      -0.618  11.489  20.238  0.00  0.00    +0.000 A 
ATOM     10  C   UNL     1       0.213  10.335  20.303  0.00  0.00    +0.000 A 
ATOM     11  N   UNL     1       0.972   9.651  19.402  0.00  0.00    +0.000 NA
ENDROOT
BRANCH   1  15
ATOM     12  C   UNL     1       3.393   5.065  18.765  0.00  0.00    +0.000 A 
ATOM     13  C   UNL     1       2.744   5.103  19.998  0.00  0.00    +0.000 A 
ATOM     14  C   UNL     1       2.081   6.256  20.399  0.00  0.00    +0.000 A 
ATOM     15  C   UNL     1       2.071   7.413  19.593  0.00  0.00    +0.000 A 
ATOM     16  C   UNL     1       2.613   7.346  18.311  0.00  0.00    +0.000 A 
ATOM     17  C   UNL     1       3.284   6.176  17.910  0.00  0.00    +0.000 A 
BRANCH  12  18
ATOM     18  C   UNL     1       4.234   3.860  18.403  0.00  0.00    +0.000 C 
BRANCH  18  20
ATOM     19  C   UNL     1       6.513   4.643  18.139  0.00  0.00    +0.000 C 
ATOM     20  N   UNL     1       5.587   3.877  18.962  0.00  0.00    +0.000 NA
ATOM     21  H   UNL     1       5.543   4.303  19.888  0.00  0.00    +0.000 HD
ENDBRANCH  18  20
ENDBRANCH  12  18
ENDBRANCH   1  15
BRANCH   9  22
ATOM     22  C   UNL     1      -0.622  12.493  19.159  0.00  0.00    +0.000 C 
ATOM     23  N   UNL     1      -0.781  12.047  17.891  0.00  0.00    +0.000 N 
ATOM     24  O   UNL     1      -0.382  13.670  19.406  0.00  0.00    +0.000 OA
ATOM     25  H   UNL     1      -0.879  11.067  17.668  0.00  0.00    +0.000 HD
ATOM     26  H   UNL     1      -0.579  12.704  17.140  0.00  0.00    +0.000 HD
ENDBRANCH   9  22
TORSDOF 4
ENDMDL
