MODEL 1
REMARK VINA RESULT:      -7.7      0.000      0.000
REMARK  Name = 
REMARK  15 active torsions:
REMARK  status: ('A' for Active; 'I' for Inactive)
REMARK    1  A    between atoms: C_1  and  C_2
REMARK    2  A    between atoms: C_2  and  C_3
REMARK    3  A    between atoms: C_3  and  N_4
REMARK    4  A    between atoms: N_7  and  C_8
REMARK    5  A    between atoms: C_8  and  C_9
REMARK    6  A    between atoms: C_8  and  C_15
REMARK    7  A    between atoms: C_9  and  S_10
REMARK    8  A    between atoms: S_10  and  C_11
REMARK    9  A    between atoms: C_11  and  C_12
REMARK   10  A    between atoms: C_12  and  C_13
REMARK   11  A    between atoms: C_12  and  C_14
REMARK   12  A    between atoms: C_15  and  O_17
REMARK   13  A    between atoms: C_18  and  C_20
REMARK   14  A    between atoms: C_24  and  C_25
REMARK   15  A    between atoms: C_26  and  C_27
REMARK                            x       y       z     vdW  Elec       q    Type
REMARK                         _______ _______ _______ _____ _____    ______ ____
ROOT
ATOM      1  N   UNK A   0       1.842   7.911  19.627  0.00  0.00    +0.000 N 
ATOM      2  C   UNK A   0       2.407   6.623  19.642  0.00  0.00    +0.000 C 
ATOM      3  O   UNK A   0       2.236   5.793  20.536  0.00  0.00    +0.000 OA
ATOM      4  N   UNK A   1       3.210   6.279  18.581  0.00  0.00    +0.000 N 
ATOM      5  C   UNK A   0       1.949   8.787  18.506  0.00  0.00    +0.000 C 
ATOM      6  O   UNK A   0       2.735   8.574  17.576  0.00  0.00    +0.000 OA
ATOM      7  H   UNK A   1       3.582   7.062  18.041  0.00  0.00    +0.000 HD
ENDROOT
BRANCH   5   8
ATOM      8  C   UNK A   0       1.214  10.104  18.450  0.00  0.00    +0.000 A 
ATOM      9  C   UNK A   0       1.992  11.271  18.544  0.00  0.00    +0.000 A 
ATOM     10  C   UNK A   0       1.387  12.527  18.645  0.00  0.00    +0.000 A 
ATOM     11  C   UNK A   0      -0.003  12.632  18.657  0.00  0.00    +0.000 A 
ATOM     12  C   UNK A   0      -0.789  11.493  18.488  0.00  0.00    +0.000 A 
ATOM     13  C   UNK A   0      -0.180  10.240  18.332  0.00  0.00    +0.000 A 
BRANCH  12  14
ATOM     14  C   UNK A   0      -2.221  11.619  18.526  0.00  0.00    +0.000 C 
ATOM     15  C   UNK A   0      -3.409  11.745  18.627  0.00  0.00    +0.000 C 
BRANCH  15  16
ATOM     16  C   UNK A   0      -4.823  11.921  18.806  0.00  0.00    +0.000 A 
ATOM     17  C   UNK A   0      -5.329  12.252  20.066  0.00  0.00    +0.000 A 
ATOM     18  C   UNK A   0      -6.703  12.441  20.245  0.00  0.00    +0.000 A 
ATOM     19  C   UNK A   0      -7.571  12.297  19.164  0.00  0.00    +0.000 A 
ATOM     20  C   UNK A   0      -7.070  11.957  17.908  0.00  0.00    +0.000 A 
ATOM     21  C   UNK A   0      -5.696  11.768  17.729  0.00  0.00    +0.000 A 
ENDBRANCH  15  16
ENDBRANCH  12  14
ENDBRANCH   5   8
BRANCH   1  22
ATOM     22  C   UNK A   0       0.947   8.273  20.740  0.00  0.00    +0.000 C 
BRANCH  22  24
ATOM     23  C   UNK A   0       0.270   9.661  22.770  0.00  0.00    +0.000 C 
ATOM     24  C   UNK A   0       1.409   9.116  21.931  0.00  0.00    +0.000 C 
ENDBRANCH  22  24
ENDBRANCH   1  22
BRANCH   4  25
ATOM     25  C   UNK A   1       3.975   5.022  18.591  0.00  0.00    +0.000 C 
BRANCH  25  26
ATOM     26  C   UNK A   1       5.463   5.398  18.611  0.00  0.00    +0.000 C 
ATOM     27  O   UNK A   1       5.997   6.180  17.836  0.00  0.00    +0.000 OA
BRANCH  26  28
ATOM     28  O   UNK A   1       6.128   4.876  19.676  0.00  0.00    +0.000 OA
ATOM     29  H   UNK A   1       7.084   5.106  19.670  0.00  0.00    +0.000 HD
ENDBRANCH  26  28
ENDBRANCH  25  26
BRANCH  25  30
ATOM     30  C   UNK A   1       3.644   4.111  17.397  0.00  0.00    +0.000 C 
BRANCH  30  31
ATOM     31  S   UNK A   1       3.483   2.364  17.940  0.00  0.00    +0.000 S 
BRANCH  31  32
ATOM     32  C   UNK A   1       3.241   2.589  19.740  0.00  0.00    +0.000 C 
BRANCH  32  33
ATOM     33  C   UNK A   1       1.801   2.232  20.172  0.00  0.00    +0.000 C 
ATOM     34  C   UNK A   1       1.488   2.627  21.621  0.00  0.00    +0.000 C 
ATOM     35  C   UNK A   1       0.781   2.904  19.246  0.00  0.00    +0.000 C 
ENDBRANCH  32  33
ENDBRANCH  31  32
ENDBRANCH  30  31
ENDBRANCH  25  30
ENDBRANCH   4  25
TORSDOF 12
ENDMDL
MODEL 2
REMARK VINA RESULT:      -7.3      0.752      1.233
REMARK  Name = 
REMARK  15 active torsions:
REMARK  status: ('A' for Active; 'I' for Inactive)
REMARK    1  A    between atoms: C_1  and  C_2
REMARK    2  A    between atoms: C_2  and  C_3
REMARK    3  A    between atoms: C_3  and  N_4
REMARK    4  A    between atoms: N_7  and  C_8
REMARK    5  A    between atoms: C_8  and  C_9
REMARK    6  A    between atoms: C_8  and  C_15
REMARK    7  A    between atoms: C_9  and  S_10
REMARK    8  A    between atoms: S_10  and  C_11
REMARK    9  A    between atoms: C_11  and  C_12
REMARK   10  A    between atoms: C_12  and  C_13
REMARK   11  A    between atoms: C_12  and  C_14
REMARK   12  A    between atoms: C_15  and  O_17
REMARK   13  A    between atoms: C_18  and  C_20
REMARK   14  A    between atoms: C_24  and  C_25
REMARK   15  A    between atoms: C_26  and  C_27
REMARK                            x       y       z     vdW  Elec       q    Type
REMARK                         _______ _______ _______ _____ _____    ______ ____
ROOT
ATOM      1  N   UNK A   0       2.091   8.019  19.474  0.00  0.00    +0.000 N 
ATOM      2  C   UNK A   0       2.618   6.718  19.389  0.00  0.00    +0.000 C 
ATOM      3  O   UNK A   0       2.741   5.948  20.343  0.00  0.00    +0.000 OA
ATOM      4  N   UNK A   1       3.024   6.286  18.149  0.00  0.00    +0.000 N 
ATOM      5  C   UNK A   0       1.834   8.823  18.324  0.00  0.00    +0.000 C 
ATOM      6  O   UNK A   0       2.268   8.530  17.205  0.00  0.00    +0.000 OA
ATOM      7  H   UNK A   1       3.206   7.023  17.467  0.00  0.00    +0.000 HD
ENDROOT
BRANCH   5   8
ATOM      8  C   UNK A   0       1.134  10.157  18.424  0.00  0.00    +0.000 A 
ATOM      9  C   UNK A   0       1.948  11.291  18.581  0.00  0.00    +0.000 A 
ATOM     10  C   UNK A   0       1.385  12.547  18.825  0.00  0.00    +0.000 A 
ATOM     11  C   UNK A   0       0.001  12.684  18.919  0.00  0.00    +0.000 A 
ATOM     12  C   UNK A   0      -0.824  11.584  18.690  0.00  0.00    +0.000 A 
ATOM     13  C   UNK A   0      -0.260  10.336  18.391  0.00  0.00    +0.000 A 
BRANCH  12  14
ATOM     14  C   UNK A   0      -2.249  11.740  18.814  0.00  0.00    +0.000 C 
ATOM     15  C   UNK A   0      -3.435  11.904  18.852  0.00  0.00    +0.000 C 
BRANCH  15  16
ATOM     16  C   UNK A   0      -4.855  12.125  18.839  0.00  0.00    +0.000 A 
ATOM     17  C   UNK A   0      -5.548  12.118  17.626  0.00  0.00    +0.000 A 
ATOM     18  C   UNK A   0      -6.932  12.315  17.606  0.00  0.00    +0.000 A 
ATOM     19  C   UNK A   0      -7.623  12.523  18.799  0.00  0.00    +0.000 A 
ATOM     20  C   UNK A   0      -6.931  12.540  20.010  0.00  0.00    +0.000 A 
ATOM     21  C   UNK A   0      -5.547  12.343  20.030  0.00  0.00    +0.000 A 
ENDBRANCH  15  16
ENDBRANCH  12  14
ENDBRANCH   5   8
BRANCH   1  22
ATOM     22  C   UNK A   0       1.616   8.475  20.792  0.00  0.00    +0.000 C 
BRANCH  22  24
ATOM     23  C   UNK A   0      -0.386   9.307  22.136  0.00  0.00    +0.000 C 
ATOM     24  C   UNK A   0       0.205   8.183  21.308  0.00  0.00    +0.000 C 
ENDBRANCH  22  24
ENDBRANCH   1  22
BRANCH   4  25
ATOM     25  C   UNK A   1       3.737   5.008  17.992  0.00  0.00    +0.000 C 
BRANCH  25  26
ATOM     26  C   UNK A   1       5.041   5.308  17.240  0.00  0.00    +0.000 C 
ATOM     27  O   UNK A   1       6.001   4.552  17.177  0.00  0.00    +0.000 OA
BRANCH  26  28
ATOM     28  O   UNK A   1       4.986   6.461  16.521  0.00  0.00    +0.000 OA
ATOM     29  H   UNK A   1       5.879   6.816  16.313  0.00  0.00    +0.000 HD
ENDBRANCH  26  28
ENDBRANCH  25  26
BRANCH  25  30
ATOM     30  C   UNK A   1       2.902   3.943  17.262  0.00  0.00    +0.000 C 
BRANCH  30  31
ATOM     31  S   UNK A   1       3.355   2.259  17.837  0.00  0.00    +0.000 S 
BRANCH  31  32
ATOM     32  C   UNK A   1       3.187   2.461  19.648  0.00  0.00    +0.000 C 
BRANCH  32  33
ATOM     33  C   UNK A   1       1.744   2.181  20.124  0.00  0.00    +0.000 C 
ATOM     34  C   UNK A   1       1.292   3.100  21.265  0.00  0.00    +0.000 C 
ATOM     35  C   UNK A   1       0.758   2.321  18.958  0.00  0.00    +0.000 C 
ENDBRANCH  32  33
ENDBRANCH  31  32
ENDBRANCH  30  31
ENDBRANCH  25  30
ENDBRANCH   4  25
TORSDOF 12
ENDMDL
MODEL 3
REMARK VINA RESULT:      -7.1      0.798      1.049
REMARK  Name = 
REMARK  15 active torsions:
REMARK  status: ('A' for Active; 'I' for Inactive)
REMARK    1  A    between atoms: C_1  and  C_2
REMARK    2  A    between atoms: C_2  and  C_3
REMARK    3  A    between atoms: C_3  and  N_4
REMARK    4  A    between atoms: N_7  and  C_8
REMARK    5  A    between atoms: C_8  and  C_9
REMARK    6  A    between atoms: C_8  and  C_15
REMARK    7  A    between atoms: C_9  and  S_10
REMARK    8  A    between atoms: S_10  and  C_11
REMARK    9  A    between atoms: C_11  and  C_12
REMARK   10  A    between atoms: C_12  and  C_13
REMARK   11  A    between atoms: C_12  and  C_14
REMARK   12  A    between atoms: C_15  and  O_17
REMARK   13  A    between atoms: C_18  and  C_20
REMARK   14  A    between atoms: C_24  and  C_25
REMARK   15  A    between atoms: C_26  and  C_27
REMARK                            x       y       z     vdW  Elec       q    Type
REMARK                         _______ _______ _______ _____ _____    ______ ____
ROOT
ATOM      1  N   UNK A   0       2.027   8.222  19.566  0.00  0.00    +0.000 N 
ATOM      2  C   UNK A   0       2.570   6.925  19.528  0.00  0.00    +0.000 C 
ATOM      3  O   UNK A   0       2.633   6.163  20.493  0.00  0.00    +0.000 OA
ATOM      4  N   UNK A   1       3.064   6.489  18.322  0.00  0.00    +0.000 N 
ATOM      5  C   UNK A   0       1.842   9.015  18.395  0.00  0.00    +0.000 C 
ATOM      6  O   UNK A   0       2.355   8.720  17.311  0.00  0.00    +0.000 OA
ATOM      7  H   UNK A   1       3.287   7.223  17.648  0.00  0.00    +0.000 HD
ENDROOT
BRANCH   5   8
ATOM      8  C   UNK A   0       1.125  10.343  18.438  0.00  0.00    +0.000 A 
ATOM      9  C   UNK A   0       1.926  11.497  18.493  0.00  0.00    +0.000 A 
ATOM     10  C   UNK A   0       1.352  12.757  18.678  0.00  0.00    +0.000 A 
ATOM     11  C   UNK A   0      -0.030  12.881  18.814  0.00  0.00    +0.000 A 
ATOM     12  C   UNK A   0      -0.845  11.757  18.686  0.00  0.00    +0.000 A 
ATOM     13  C   UNK A   0      -0.272  10.500  18.445  0.00  0.00    +0.000 A 
BRANCH  12  14
ATOM     14  C   UNK A   0      -2.267  11.901  18.852  0.00  0.00    +0.000 C 
ATOM     15  C   UNK A   0      -3.459  12.004  18.919  0.00  0.00    +0.000 C 
BRANCH  15  16
ATOM     16  C   UNK A   0      -4.892  12.108  18.939  0.00  0.00    +0.000 A 
ATOM     17  C   UNK A   0      -5.562  12.246  20.157  0.00  0.00    +0.000 A 
ATOM     18  C   UNK A   0      -6.955  12.364  20.184  0.00  0.00    +0.000 A 
ATOM     19  C   UNK A   0      -7.678  12.342  18.992  0.00  0.00    +0.000 A 
ATOM     20  C   UNK A   0      -7.012  12.194  17.776  0.00  0.00    +0.000 A 
ATOM     21  C   UNK A   0      -5.619  12.076  17.749  0.00  0.00    +0.000 A 
ENDBRANCH  15  16
ENDBRANCH  12  14
ENDBRANCH   5   8
BRANCH   1  22
ATOM     22  C   UNK A   0       1.457   8.682  20.845  0.00  0.00    +0.000 C 
BRANCH  22  24
ATOM     23  C   UNK A   0      -0.450   9.155  22.472  0.00  0.00    +0.000 C 
ATOM     24  C   UNK A   0       0.029   8.348  21.281  0.00  0.00    +0.000 C 
ENDBRANCH  22  24
ENDBRANCH   1  22
BRANCH   4  25
ATOM     25  C   UNK A   1       3.798   5.217  18.224  0.00  0.00    +0.000 C 
BRANCH  25  26
ATOM     26  C   UNK A   1       5.237   5.556  17.808  0.00  0.00    +0.000 C 
ATOM     27  O   UNK A   1       6.222   4.890  18.093  0.00  0.00    +0.000 OA
BRANCH  26  28
ATOM     28  O   UNK A   1       5.307   6.618  16.961  0.00  0.00    +0.000 OA
ATOM     29  H   UNK A   1       6.168   6.662  16.488  0.00  0.00    +0.000 HD
ENDBRANCH  26  28
ENDBRANCH  25  26
BRANCH  25  30
ATOM     30  C   UNK A   1       3.151   4.227  17.241  0.00  0.00    +0.000 C 
BRANCH  30  31
ATOM     31  S   UNK A   1       1.458   3.780  17.795  0.00  0.00    +0.000 S 
BRANCH  31  32
ATOM     32  C   UNK A   1       1.777   2.166  18.596  0.00  0.00    +0.000 C 
BRANCH  32  33
ATOM     33  C   UNK A   1       1.827   2.292  20.135  0.00  0.00    +0.000 C 
ATOM     34  C   UNK A   1       3.232   2.586  20.674  0.00  0.00    +0.000 C 
ATOM     35  C   UNK A   1       0.874   3.392  20.615  0.00  0.00    +0.000 C 
ENDBRANCH  32  33
ENDBRANCH  31  32
ENDBRANCH  30  31
ENDBRANCH  25  30
ENDBRANCH   4  25
TORSDOF 12
ENDMDL
MODEL 4
REMARK VINA RESULT:      -7.0      0.843      1.456
REMARK  Name = 
REMARK  15 active torsions:
REMARK  status: ('A' for Active; 'I' for Inactive)
REMARK    1  A    between atoms: C_1  and  C_2
REMARK    2  A    between atoms: C_2  and  C_3
REMARK    3  A    between atoms: C_3  and  N_4
REMARK    4  A    between atoms: N_7  and  C_8
REMARK    5  A    between atoms: C_8  and  C_9
REMARK    6  A    between atoms: C_8  and  C_15
REMARK    7  A    between atoms: C_9  and  S_10
REMARK    8  A    between atoms: S_10  and  C_11
REMARK    9  A    between atoms: C_11  and  C_12
REMARK   10  A    between atoms: C_12  and  C_13
REMARK   11  A    between atoms: C_12  and  C_14
REMARK   12  A    between atoms: C_15  and  O_17
REMARK   13  A    between atoms: C_18  and  C_20
REMARK   14  A    between atoms: C_24  and  C_25
REMARK   15  A    between atoms: C_26  and  C_27
REMARK                            x       y       z     vdW  Elec       q    Type
REMARK                         _______ _______ _______ _____ _____    ______ ____
ROOT
ATOM      1  N   UNK A   0       1.610   8.454  19.634  0.00  0.00    +0.000 N 
ATOM      2  C   UNK A   0       2.228   7.193  19.550  0.00  0.00    +0.000 C 
ATOM      3  O   UNK A   0       2.120   6.303  20.395  0.00  0.00    +0.000 OA
ATOM      4  N   UNK A   1       3.007   6.949  18.445  0.00  0.00    +0.000 N 
ATOM      5  C   UNK A   0       1.644   9.400  18.567  0.00  0.00    +0.000 C 
ATOM      6  O   UNK A   0       2.405   9.278  17.601  0.00  0.00    +0.000 OA
ATOM      7  H   UNK A   1       3.329   7.778  17.944  0.00  0.00    +0.000 HD
ENDROOT
BRANCH   5   8
ATOM      8  C   UNK A   0       0.855  10.686  18.617  0.00  0.00    +0.000 A 
ATOM      9  C   UNK A   0       1.590  11.883  18.633  0.00  0.00    +0.000 A 
ATOM     10  C   UNK A   0       0.951  13.112  18.822  0.00  0.00    +0.000 A 
ATOM     11  C   UNK A   0      -0.430  13.160  19.002  0.00  0.00    +0.000 A 
ATOM     12  C   UNK A   0      -1.184  11.990  18.913  0.00  0.00    +0.000 A 
ATOM     13  C   UNK A   0      -0.548  10.764  18.668  0.00  0.00    +0.000 A 
BRANCH  12  14
ATOM     14  C   UNK A   0      -2.605  12.055  19.123  0.00  0.00    +0.000 C 
ATOM     15  C   UNK A   0      -3.782  12.180  19.315  0.00  0.00    +0.000 C 
BRANCH  15  16
ATOM     16  C   UNK A   0      -5.182  12.393  19.553  0.00  0.00    +0.000 A 
ATOM     17  C   UNK A   0      -6.042  12.626  18.477  0.00  0.00    +0.000 A 
ATOM     18  C   UNK A   0      -7.410  12.818  18.698  0.00  0.00    +0.000 A 
ATOM     19  C   UNK A   0      -7.916  12.779  19.997  0.00  0.00    +0.000 A 
ATOM     20  C   UNK A   0      -7.058  12.556  21.073  0.00  0.00    +0.000 A 
ATOM     21  C   UNK A   0      -5.690  12.365  20.851  0.00  0.00    +0.000 A 
ENDBRANCH  15  16
ENDBRANCH  12  14
ENDBRANCH   5   8
BRANCH   1  22
ATOM     22  C   UNK A   0       0.741   8.709  20.795  0.00  0.00    +0.000 C 
BRANCH  22  24
ATOM     23  C   UNK A   0       0.192   9.500  23.157  0.00  0.00    +0.000 C 
ATOM     24  C   UNK A   0       1.273   9.246  22.125  0.00  0.00    +0.000 C 
ENDBRANCH  22  24
ENDBRANCH   1  22
BRANCH   4  25
ATOM     25  C   UNK A   1       3.822   5.727  18.352  0.00  0.00    +0.000 C 
BRANCH  25  26
ATOM     26  C   UNK A   1       5.112   6.099  17.608  0.00  0.00    +0.000 C 
ATOM     27  O   UNK A   1       6.244   5.905  18.031  0.00  0.00    +0.000 OA
BRANCH  26  28
ATOM     28  O   UNK A   1       4.884   6.555  16.347  0.00  0.00    +0.000 OA
ATOM     29  H   UNK A   1       5.595   6.294  15.721  0.00  0.00    +0.000 HD
ENDBRANCH  26  28
ENDBRANCH  25  26
BRANCH  25  30
ATOM     30  C   UNK A   1       3.088   4.569  17.654  0.00  0.00    +0.000 C 
BRANCH  30  31
ATOM     31  S   UNK A   1       4.072   3.023  17.756  0.00  0.00    +0.000 S 
BRANCH  31  32
ATOM     32  C   UNK A   1       3.137   2.107  19.034  0.00  0.00    +0.000 C 
BRANCH  32  33
ATOM     33  C   UNK A   1       1.869   2.872  19.473  0.00  0.00    +0.000 C 
ATOM     34  C   UNK A   1       0.580   2.312  18.859  0.00  0.00    +0.000 C 
ATOM     35  C   UNK A   1       1.734   2.856  21.000  0.00  0.00    +0.000 C 
ENDBRANCH  32  33
ENDBRANCH  31  32
ENDBRANCH  30  31
ENDBRANCH  25  30
ENDBRANCH   4  25
TORSDOF 12
ENDMDL
MODEL 5
REMARK VINA RESULT:      -6.8      0.916      1.193
REMARK  Name = 
REMARK  15 active torsions:
REMARK  status: ('A' for Active; 'I' for Inactive)
REMARK    1  A    between atoms: C_1  and  C_2
REMARK    2  A    between atoms: C_2  and  C_3
REMARK    3  A    between atoms: C_3  and  N_4
REMARK    4  A    between atoms: N_7  and  C_8
REMARK    5  A    between atoms: C_8  and  C_9
REMARK    6  A    between atoms: C_8  and  C_15
REMARK    7  A    between atoms: C_9  and  S_10
REMARK    8  A    between atoms: S_10  and  C_11
REMARK    9  A    between atoms: C_11  and  C_12
REMARK   10  A    between atoms: C_12  and  C_13
REMARK   11  A    between atoms: C_12  and  C_14
REMARK   12  A    between atoms: C_15  and  O_17
REMARK   13  A    between atoms: C_18  and  C_20
REMARK   14  A    between atoms: C_24  and  C_25
REMARK   15  A    between atoms: C_26  and  C_27
REMARK                            x       y       z     vdW  Elec       q    Type
REMARK                         _______ _______ _______ _____ _____    ______ ____
ROOT
ATOM      1  N   UNK A   0       1.974   8.423  19.501  0.00  0.00    +0.000 N 
ATOM      2  C   UNK A   0       2.583   7.159  19.400  0.00  0.00    +0.000 C 
ATOM      3  O   UNK A   0       2.714   6.367  20.333  0.00  0.00    +0.000 OA
ATOM      4  N   UNK A   1       3.067   6.795  18.166  0.00  0.00    +0.000 N 
ATOM      5  C   UNK A   0       1.715   9.248  18.367  0.00  0.00    +0.000 C 
ATOM      6  O   UNK A   0       2.213   9.020  17.259  0.00  0.00    +0.000 OA
ATOM      7  H   UNK A   1       3.231   7.564  17.515  0.00  0.00    +0.000 HD
ENDROOT
BRANCH   5   8
ATOM      8  C   UNK A   0       0.931  10.532  18.478  0.00  0.00    +0.000 A 
ATOM      9  C   UNK A   0       1.669  11.715  18.657  0.00  0.00    +0.000 A 
ATOM     10  C   UNK A   0       1.024  12.928  18.912  0.00  0.00    +0.000 A 
ATOM     11  C   UNK A   0      -0.366  12.975  18.995  0.00  0.00    +0.000 A 
ATOM     12  C   UNK A   0      -1.118  11.828  18.744  0.00  0.00    +0.000 A 
ATOM     13  C   UNK A   0      -0.472  10.622  18.434  0.00  0.00    +0.000 A 
BRANCH  12  14
ATOM     14  C   UNK A   0      -2.550  11.890  18.856  0.00  0.00    +0.000 C 
ATOM     15  C   UNK A   0      -3.736  12.001  18.992  0.00  0.00    +0.000 C 
BRANCH  15  16
ATOM     16  C   UNK A   0      -5.147  12.189  19.185  0.00  0.00    +0.000 A 
ATOM     17  C   UNK A   0      -5.664  12.290  20.479  0.00  0.00    +0.000 A 
ATOM     18  C   UNK A   0      -7.034  12.489  20.676  0.00  0.00    +0.000 A 
ATOM     19  C   UNK A   0      -7.888  12.584  19.577  0.00  0.00    +0.000 A 
ATOM     20  C   UNK A   0      -7.375  12.473  18.285  0.00  0.00    +0.000 A 
ATOM     21  C   UNK A   0      -6.005  12.274  18.089  0.00  0.00    +0.000 A 
ENDBRANCH  15  16
ENDBRANCH  12  14
ENDBRANCH   5   8
BRANCH   1  22
ATOM     22  C   UNK A   0       1.416   8.804  20.811  0.00  0.00    +0.000 C 
BRANCH  22  24
ATOM     23  C   UNK A   0      -0.487   9.140  22.476  0.00  0.00    +0.000 C 
ATOM     24  C   UNK A   0       0.026   8.367  21.276  0.00  0.00    +0.000 C 
ENDBRANCH  22  24
ENDBRANCH   1  22
BRANCH   4  25
ATOM     25  C   UNK A   1       3.864   5.569  18.001  0.00  0.00    +0.000 C 
BRANCH  25  26
ATOM     26  C   UNK A   1       4.976   5.885  16.990  0.00  0.00    +0.000 C 
ATOM     27  O   UNK A   1       5.876   6.694  17.172  0.00  0.00    +0.000 OA
BRANCH  26  28
ATOM     28  O   UNK A   1       4.949   5.071  15.901  0.00  0.00    +0.000 OA
ATOM     29  H   UNK A   1       4.229   5.308  15.275  0.00  0.00    +0.000 HD
ENDBRANCH  26  28
ENDBRANCH  25  26
BRANCH  25  30
ATOM     30  C   UNK A   1       3.021   4.364  17.547  0.00  0.00    +0.000 C 
BRANCH  30  31
ATOM     31  S   UNK A   1       3.892   2.790  17.915  0.00  0.00    +0.000 S 
BRANCH  31  32
ATOM     32  C   UNK A   1       2.808   2.098  19.216  0.00  0.00    +0.000 C 
BRANCH  32  33
ATOM     33  C   UNK A   1       1.624   3.037  19.534  0.00  0.00    +0.000 C 
ATOM     34  C   UNK A   1       0.310   2.601  18.874  0.00  0.00    +0.000 C 
ATOM     35  C   UNK A   1       1.407   3.132  21.049  0.00  0.00    +0.000 C 
ENDBRANCH  32  33
ENDBRANCH  31  32
ENDBRANCH  30  31
ENDBRANCH  25  30
ENDBRANCH   4  25
TORSDOF 12
ENDMDL
MODEL 6
REMARK VINA RESULT:      -6.8      5.052     10.124
REMARK  Name = 
REMARK  15 active torsions:
REMARK  status: ('A' for Active; 'I' for Inactive)
REMARK    1  A    between atoms: C_1  and  C_2
REMARK    2  A    between atoms: C_2  and  C_3
REMARK    3  A    between atoms: C_3  and  N_4
REMARK    4  A    between atoms: N_7  and  C_8
REMARK    5  A    between atoms: C_8  and  C_9
REMARK    6  A    between atoms: C_8  and  C_15
REMARK    7  A    between atoms: C_9  and  S_10
REMARK    8  A    between atoms: S_10  and  C_11
REMARK    9  A    between atoms: C_11  and  C_12
REMARK   10  A    between atoms: C_12  and  C_13
REMARK   11  A    between atoms: C_12  and  C_14
REMARK   12  A    between atoms: C_15  and  O_17
REMARK   13  A    between atoms: C_18  and  C_20
REMARK   14  A    between atoms: C_24  and  C_25
REMARK   15  A    between atoms: C_26  and  C_27
REMARK                            x       y       z     vdW  Elec       q    Type
REMARK                         _______ _______ _______ _____ _____    ______ ____
ROOT
ATOM      1  N   UNK A   0      -1.827  11.884  21.608  0.00  0.00    +0.000 N 
ATOM      2  C   UNK A   0      -3.027  12.298  22.214  0.00  0.00    +0.000 C 
ATOM      3  O   UNK A   0      -3.229  12.318  23.429  0.00  0.00    +0.000 OA
ATOM      4  N   UNK A   1      -4.042  12.703  21.380  0.00  0.00    +0.000 N 
ATOM      5  C   UNK A   0      -1.586  12.012  20.208  0.00  0.00    +0.000 C 
ATOM      6  O   UNK A   0      -2.489  12.271  19.405  0.00  0.00    +0.000 OA
ATOM      7  H   UNK A   1      -3.969  12.383  20.414  0.00  0.00    +0.000 HD
ENDROOT
BRANCH   5   8
ATOM      8  C   UNK A   0      -0.241  11.699  19.599  0.00  0.00    +0.000 A 
ATOM      9  C   UNK A   0       0.541  12.792  19.190  0.00  0.00    +0.000 A 
ATOM     10  C   UNK A   0       1.734  12.595  18.488  0.00  0.00    +0.000 A 
ATOM     11  C   UNK A   0       2.158  11.302  18.183  0.00  0.00    +0.000 A 
ATOM     12  C   UNK A   0       1.434  10.205  18.647  0.00  0.00    +0.000 A 
ATOM     13  C   UNK A   0       0.267  10.403  19.398  0.00  0.00    +0.000 A 
BRANCH  12  14
ATOM     14  C   UNK A   0       1.874   8.879  18.303  0.00  0.00    +0.000 C 
ATOM     15  C   UNK A   0       2.301   7.787  18.058  0.00  0.00    +0.000 C 
BRANCH  15  16
ATOM     16  C   UNK A   0       2.859   6.487  17.805  0.00  0.00    +0.000 A 
ATOM     17  C   UNK A   0       4.182   6.371  17.369  0.00  0.00    +0.000 A 
ATOM     18  C   UNK A   0       4.737   5.109  17.137  0.00  0.00    +0.000 A 
ATOM     19  C   UNK A   0       3.970   3.963  17.338  0.00  0.00    +0.000 A 
ATOM     20  C   UNK A   0       2.646   4.077  17.764  0.00  0.00    +0.000 A 
ATOM     21  C   UNK A   0       2.091   5.339  17.996  0.00  0.00    +0.000 A 
ENDBRANCH  15  16
ENDBRANCH  12  14
ENDBRANCH   5   8
BRANCH   1  22
ATOM     22  C   UNK A   0      -0.720  11.486  22.496  0.00  0.00    +0.000 C 
BRANCH  22  24
ATOM     23  C   UNK A   0       0.656   9.354  22.749  0.00  0.00    +0.000 C 
ATOM     24  C   UNK A   0      -0.617  10.091  23.115  0.00  0.00    +0.000 C 
ENDBRANCH  22  24
ENDBRANCH   1  22
BRANCH   4  25
ATOM     25  C   UNK A   1      -5.383  12.993  21.912  0.00  0.00    +0.000 C 
BRANCH  25  26
ATOM     26  C   UNK A   1      -6.385  12.181  21.079  0.00  0.00    +0.000 C 
ATOM     27  O   UNK A   1      -7.039  11.236  21.498  0.00  0.00    +0.000 OA
BRANCH  26  28
ATOM     28  O   UNK A   1      -6.587  12.701  19.838  0.00  0.00    +0.000 OA
ATOM     29  H   UNK A   1      -7.472  12.472  19.476  0.00  0.00    +0.000 HD
ENDBRANCH  26  28
ENDBRANCH  25  26
BRANCH  25  30
ATOM     30  C   UNK A   1      -5.723  14.493  21.890  0.00  0.00    +0.000 C 
BRANCH  30  31
ATOM     31  S   UNK A   1      -4.332  15.462  21.185  0.00  0.00    +0.000 S 
BRANCH  31  32
ATOM     32  C   UNK A   1      -3.466  15.975  22.712  0.00  0.00    +0.000 C 
BRANCH  32  33
ATOM     33  C   UNK A   1      -1.935  16.032  22.510  0.00  0.00    +0.000 C 
ATOM     34  C   UNK A   1      -1.157  15.199  23.536  0.00  0.00    +0.000 C 
ATOM     35  C   UNK A   1      -1.561  15.555  21.102  0.00  0.00    +0.000 C 
ENDBRANCH  32  33
ENDBRANCH  31  32
ENDBRANCH  30  31
ENDBRANCH  25  30
ENDBRANCH   4  25
TORSDOF 12
ENDMDL
MODEL 7
REMARK VINA RESULT:      -6.8      1.630      3.138
REMARK  Name = 
REMARK  15 active torsions:
REMARK  status: ('A' for Active; 'I' for Inactive)
REMARK    1  A    between atoms: C_1  and  C_2
REMARK    2  A    between atoms: C_2  and  C_3
REMARK    3  A    between atoms: C_3  and  N_4
REMARK    4  A    between atoms: N_7  and  C_8
REMARK    5  A    between atoms: C_8  and  C_9
REMARK    6  A    between atoms: C_8  and  C_15
REMARK    7  A    between atoms: C_9  and  S_10
REMARK    8  A    between atoms: S_10  and  C_11
REMARK    9  A    between atoms: C_11  and  C_12
REMARK   10  A    between atoms: C_12  and  C_13
REMARK   11  A    between atoms: C_12  and  C_14
REMARK   12  A    between atoms: C_15  and  O_17
REMARK   13  A    between atoms: C_18  and  C_20
REMARK   14  A    between atoms: C_24  and  C_25
REMARK   15  A    between atoms: C_26  and  C_27
REMARK                            x       y       z     vdW  Elec       q    Type
REMARK                         _______ _______ _______ _____ _____    ______ ____
ROOT
ATOM      1  N   UNK A   0       1.729   7.870  19.395  0.00  0.00    +0.000 N 
ATOM      2  C   UNK A   0       2.266   6.578  19.249  0.00  0.00    +0.000 C 
ATOM      3  O   UNK A   0       2.207   5.694  20.104  0.00  0.00    +0.000 OA
ATOM      4  N   UNK A   1       2.902   6.295  18.064  0.00  0.00    +0.000 N 
ATOM      5  C   UNK A   0       1.694   8.816  18.328  0.00  0.00    +0.000 C 
ATOM      6  O   UNK A   0       2.334   8.655  17.284  0.00  0.00    +0.000 OA
ATOM      7  H   UNK A   1       3.209   7.107  17.527  0.00  0.00    +0.000 HD
ENDROOT
BRANCH   5   8
ATOM      8  C   UNK A   0       0.984  10.141  18.461  0.00  0.00    +0.000 A 
ATOM      9  C   UNK A   0       1.781  11.264  18.739  0.00  0.00    +0.000 A 
ATOM     10  C   UNK A   0       1.199  12.503  19.019  0.00  0.00    +0.000 A 
ATOM     11  C   UNK A   0      -0.189  12.635  19.029  0.00  0.00    +0.000 A 
ATOM     12  C   UNK A   0      -0.993  11.551  18.682  0.00  0.00    +0.000 A 
ATOM     13  C   UNK A   0      -0.406  10.322  18.347  0.00  0.00    +0.000 A 
BRANCH  12  14
ATOM     14  C   UNK A   0      -2.423  11.699  18.719  0.00  0.00    +0.000 C 
ATOM     15  C   UNK A   0      -3.605  11.893  18.767  0.00  0.00    +0.000 C 
BRANCH  15  16
ATOM     16  C   UNK A   0      -5.010  12.188  18.831  0.00  0.00    +0.000 A 
ATOM     17  C   UNK A   0      -5.613  12.436  20.067  0.00  0.00    +0.000 A 
ATOM     18  C   UNK A   0      -6.976  12.740  20.135  0.00  0.00    +0.000 A 
ATOM     19  C   UNK A   0      -7.737  12.793  18.969  0.00  0.00    +0.000 A 
ATOM     20  C   UNK A   0      -7.139  12.536  17.735  0.00  0.00    +0.000 A 
ATOM     21  C   UNK A   0      -5.776  12.232  17.666  0.00  0.00    +0.000 A 
ENDBRANCH  15  16
ENDBRANCH  12  14
ENDBRANCH   5   8
BRANCH   1  22
ATOM     22  C   UNK A   0       1.010   8.169  20.646  0.00  0.00    +0.000 C 
BRANCH  22  24
ATOM     23  C   UNK A   0       0.469  10.018  22.318  0.00  0.00    +0.000 C 
ATOM     24  C   UNK A   0       1.543   9.149  21.693  0.00  0.00    +0.000 C 
ENDBRANCH  22  24
ENDBRANCH   1  22
BRANCH   4  25
ATOM     25  C   UNK A   1       3.636   5.032  17.886  0.00  0.00    +0.000 C 
BRANCH  25  26
ATOM     26  C   UNK A   1       2.620   3.892  18.048  0.00  0.00    +0.000 C 
ATOM     27  O   UNK A   1       1.686   3.675  17.288  0.00  0.00    +0.000 OA
BRANCH  26  28
ATOM     28  O   UNK A   1       2.935   3.042  19.062  0.00  0.00    +0.000 OA
ATOM     29  H   UNK A   1       2.139   2.726  19.545  0.00  0.00    +0.000 HD
ENDBRANCH  26  28
ENDBRANCH  25  26
BRANCH  25  30
ATOM     30  C   UNK A   1       4.810   4.879  18.868  0.00  0.00    +0.000 C 
BRANCH  30  31
ATOM     31  S   UNK A   1       6.384   4.618  17.959  0.00  0.00    +0.000 S 
BRANCH  31  32
ATOM     32  C   UNK A   1       6.582   6.245  17.147  0.00  0.00    +0.000 C 
BRANCH  32  33
ATOM     33  C   UNK A   1       7.832   6.993  17.662  0.00  0.00    +0.000 C 
ATOM     34  C   UNK A   1       7.675   8.518  17.649  0.00  0.00    +0.000 C 
ATOM     35  C   UNK A   1       8.177   6.545  19.087  0.00  0.00    +0.000 C 
ENDBRANCH  32  33
ENDBRANCH  31  32
ENDBRANCH  30  31
ENDBRANCH  25  30
ENDBRANCH   4  25
TORSDOF 12
ENDMDL
MODEL 8
REMARK VINA RESULT:      -6.8      1.932      3.168
REMARK  Name = 
REMARK  15 active torsions:
REMARK  status: ('A' for Active; 'I' for Inactive)
REMARK    1  A    between atoms: C_1  and  C_2
REMARK    2  A    between atoms: C_2  and  C_3
REMARK    3  A    between atoms: C_3  and  N_4
REMARK    4  A    between atoms: N_7  and  C_8
REMARK    5  A    between atoms: C_8  and  C_9
REMARK    6  A    between atoms: C_8  and  C_15
REMARK    7  A    between atoms: C_9  and  S_10
REMARK    8  A    between atoms: S_10  and  C_11
REMARK    9  A    between atoms: C_11  and  C_12
REMARK   10  A    between atoms: C_12  and  C_13
REMARK   11  A    between atoms: C_12  and  C_14
REMARK   12  A    between atoms: C_15  and  O_17
REMARK   13  A    between atoms: C_18  and  C_20
REMARK   14  A    between atoms: C_24  and  C_25
REMARK   15  A    between atoms: C_26  and  C_27
REMARK                            x       y       z     vdW  Elec       q    Type
REMARK                         _______ _______ _______ _____ _____    ______ ____
ROOT
ATOM      1  N   UNK A   0       1.523   8.528  19.984  0.00  0.00    +0.000 N 
ATOM      2  C   UNK A   0       1.989   7.208  19.844  0.00  0.00    +0.000 C 
ATOM      3  O   UNK A   0       2.135   6.414  20.775  0.00  0.00    +0.000 OA
ATOM      4  N   UNK A   1       2.305   6.786  18.575  0.00  0.00    +0.000 N 
ATOM      5  C   UNK A   0       1.234   9.365  18.866  0.00  0.00    +0.000 C 
ATOM      6  O   UNK A   0       1.591   9.079  17.718  0.00  0.00    +0.000 OA
ATOM      7  H   UNK A   1       2.479   7.529  17.897  0.00  0.00    +0.000 HD
ENDROOT
BRANCH   5   8
ATOM      8  C   UNK A   0       0.597  10.723  19.032  0.00  0.00    +0.000 A 
ATOM      9  C   UNK A   0       1.464  11.826  19.115  0.00  0.00    +0.000 A 
ATOM     10  C   UNK A   0       0.973  13.101  19.412  0.00  0.00    +0.000 A 
ATOM     11  C   UNK A   0      -0.390  13.289  19.632  0.00  0.00    +0.000 A 
ATOM     12  C   UNK A   0      -1.274  12.222  19.479  0.00  0.00    +0.000 A 
ATOM     13  C   UNK A   0      -0.787  10.955  19.127  0.00  0.00    +0.000 A 
BRANCH  12  14
ATOM     14  C   UNK A   0      -2.674  12.430  19.732  0.00  0.00    +0.000 C 
ATOM     15  C   UNK A   0      -3.829  12.585  20.014  0.00  0.00    +0.000 C 
BRANCH  15  16
ATOM     16  C   UNK A   0      -5.198  12.761  20.412  0.00  0.00    +0.000 A 
ATOM     17  C   UNK A   0      -5.530  12.781  21.769  0.00  0.00    +0.000 A 
ATOM     18  C   UNK A   0      -6.858  12.969  22.165  0.00  0.00    +0.000 A 
ATOM     19  C   UNK A   0      -7.854  13.133  21.204  0.00  0.00    +0.000 A 
ATOM     20  C   UNK A   0      -7.526  13.104  19.848  0.00  0.00    +0.000 A 
ATOM     21  C   UNK A   0      -6.198  12.916  19.452  0.00  0.00    +0.000 A 
ENDBRANCH  15  16
ENDBRANCH  12  14
ENDBRANCH   5   8
BRANCH   1  22
ATOM     22  C   UNK A   0       1.143   8.974  21.336  0.00  0.00    +0.000 C 
BRANCH  22  24
ATOM     23  C   UNK A   0      -0.689   9.876  22.864  0.00  0.00    +0.000 C 
ATOM     24  C   UNK A   0      -0.264   8.782  21.905  0.00  0.00    +0.000 C 
ENDBRANCH  22  24
ENDBRANCH   1  22
BRANCH   4  25
ATOM     25  C   UNK A   1       2.955   5.485  18.353  0.00  0.00    +0.000 C 
BRANCH  25  26
ATOM     26  C   UNK A   1       1.843   4.427  18.302  0.00  0.00    +0.000 C 
ATOM     27  O   UNK A   1       1.185   4.153  17.308  0.00  0.00    +0.000 OA
BRANCH  26  28
ATOM     28  O   UNK A   1       1.741   3.710  19.453  0.00  0.00    +0.000 OA
ATOM     29  H   UNK A   1       1.194   4.167  20.131  0.00  0.00    +0.000 HD
ENDBRANCH  26  28
ENDBRANCH  25  26
BRANCH  25  30
ATOM     30  C   UNK A   1       4.000   5.146  19.430  0.00  0.00    +0.000 C 
BRANCH  30  31
ATOM     31  S   UNK A   1       5.448   4.300  18.684  0.00  0.00    +0.000 S 
BRANCH  31  32
ATOM     32  C   UNK A   1       6.703   5.628  18.777  0.00  0.00    +0.000 C 
BRANCH  32  33
ATOM     33  C   UNK A   1       6.656   6.549  17.537  0.00  0.00    +0.000 C 
ATOM     34  C   UNK A   1       7.683   7.686  17.587  0.00  0.00    +0.000 C 
ATOM     35  C   UNK A   1       6.881   5.737  16.257  0.00  0.00    +0.000 C 
ENDBRANCH  32  33
ENDBRANCH  31  32
ENDBRANCH  30  31
ENDBRANCH  25  30
ENDBRANCH   4  25
TORSDOF 12
ENDMDL
MODEL 9
REMARK VINA RESULT:      -6.7      1.457      1.971
REMARK  Name = 
REMARK  15 active torsions:
REMARK  status: ('A' for Active; 'I' for Inactive)
REMARK    1  A    between atoms: C_1  and  C_2
REMARK    2  A    between atoms: C_2  and  C_3
REMARK    3  A    between atoms: C_3  and  N_4
REMARK    4  A    between atoms: N_7  and  C_8
REMARK    5  A    between atoms: C_8  and  C_9
REMARK    6  A    between atoms: C_8  and  C_15
REMARK    7  A    between atoms: C_9  and  S_10
REMARK    8  A    between atoms: S_10  and  C_11
REMARK    9  A    between atoms: C_11  and  C_12
REMARK   10  A    between atoms: C_12  and  C_13
REMARK   11  A    between atoms: C_12  and  C_14
REMARK   12  A    between atoms: C_15  and  O_17
REMARK   13  A    between atoms: C_18  and  C_20
REMARK   14  A    between atoms: C_24  and  C_25
REMARK   15  A    between atoms: C_26  and  C_27
REMARK                            x       y       z     vdW  Elec       q    Type
REMARK                         _______ _______ _______ _____ _____    ______ ____
ROOT
ATOM      1  N   UNK A   0       1.699   8.286  19.663  0.00  0.00    +0.000 N 
ATOM      2  C   UNK A   0       2.107   6.948  19.521  0.00  0.00    +0.000 C 
ATOM      3  O   UNK A   0       2.203   6.142  20.448  0.00  0.00    +0.000 OA
ATOM      4  N   UNK A   1       2.422   6.520  18.254  0.00  0.00    +0.000 N 
ATOM      5  C   UNK A   0       1.464   9.143  18.547  0.00  0.00    +0.000 C 
ATOM      6  O   UNK A   0       1.823   8.848  17.403  0.00  0.00    +0.000 OA
ATOM      7  H   UNK A   1       2.638   7.259  17.583  0.00  0.00    +0.000 HD
ENDROOT
BRANCH   5   8
ATOM      8  C   UNK A   0       0.887  10.528  18.713  0.00  0.00    +0.000 A 
ATOM      9  C   UNK A   0       1.787  11.604  18.644  0.00  0.00    +0.000 A 
ATOM     10  C   UNK A   0       1.367  12.907  18.928  0.00  0.00    +0.000 A 
ATOM     11  C   UNK A   0       0.043  13.150  19.288  0.00  0.00    +0.000 A 
ATOM     12  C   UNK A   0      -0.881  12.106  19.288  0.00  0.00    +0.000 A 
ATOM     13  C   UNK A   0      -0.471  10.808  18.949  0.00  0.00    +0.000 A 
BRANCH  12  14
ATOM     14  C   UNK A   0      -2.238  12.371  19.684  0.00  0.00    +0.000 C 
ATOM     15  C   UNK A   0      -3.343  12.617  20.078  0.00  0.00    +0.000 C 
BRANCH  15  16
ATOM     16  C   UNK A   0      -4.641  12.938  20.602  0.00  0.00    +0.000 A 
ATOM     17  C   UNK A   0      -5.742  12.145  20.267  0.00  0.00    +0.000 A 
ATOM     18  C   UNK A   0      -7.006  12.442  20.786  0.00  0.00    +0.000 A 
ATOM     19  C   UNK A   0      -7.170  13.532  21.639  0.00  0.00    +0.000 A 
ATOM     20  C   UNK A   0      -6.074  14.331  21.967  0.00  0.00    +0.000 A 
ATOM     21  C   UNK A   0      -4.810  14.034  21.447  0.00  0.00    +0.000 A 
ENDBRANCH  15  16
ENDBRANCH  12  14
ENDBRANCH   5   8
BRANCH   1  22
ATOM     22  C   UNK A   0       1.321   8.742  21.012  0.00  0.00    +0.000 C 
BRANCH  22  24
ATOM     23  C   UNK A   0      -0.452   9.515  22.675  0.00  0.00    +0.000 C 
ATOM     24  C   UNK A   0      -0.073   8.515  21.601  0.00  0.00    +0.000 C 
ENDBRANCH  22  24
ENDBRANCH   1  22
BRANCH   4  25
ATOM     25  C   UNK A   1       3.015   5.192  18.032  0.00  0.00    +0.000 C 
BRANCH  25  26
ATOM     26  C   UNK A   1       4.242   5.389  17.131  0.00  0.00    +0.000 C 
ATOM     27  O   UNK A   1       4.802   4.498  16.507  0.00  0.00    +0.000 OA
BRANCH  26  28
ATOM     28  O   UNK A   1       4.582   6.697  16.978  0.00  0.00    +0.000 OA
ATOM     29  H   UNK A   1       4.625   6.964  16.033  0.00  0.00    +0.000 HD
ENDBRANCH  26  28
ENDBRANCH  25  26
BRANCH  25  30
ATOM     30  C   UNK A   1       2.024   4.190  17.415  0.00  0.00    +0.000 C 
BRANCH  30  31
ATOM     31  S   UNK A   1       1.655   2.834  18.598  0.00  0.00    +0.000 S 
BRANCH  31  32
ATOM     32  C   UNK A   1       3.337   2.183  18.904  0.00  0.00    +0.000 C 
BRANCH  32  33
ATOM     33  C   UNK A   1       3.851   2.566  20.310  0.00  0.00    +0.000 C 
ATOM     34  C   UNK A   1       2.733   2.702  21.349  0.00  0.00    +0.000 C 
ATOM     35  C   UNK A   1       4.867   1.533  20.810  0.00  0.00    +0.000 C 
ENDBRANCH  32  33
ENDBRANCH  31  32
ENDBRANCH  30  31
ENDBRANCH  25  30
ENDBRANCH   4  25
TORSDOF 12
ENDMDL
