MODEL 1
REMARK VINA RESULT:      -6.2      0.000      0.000
REMARK  Name = 
REMARK  11 active torsions:
REMARK  status: ('A' for Active; 'I' for Inactive)
REMARK    1  A    between atoms: C_1  and  C_2
REMARK    2  A    between atoms: C_2  and  C_3
REMARK    3  A    between atoms: C_3  and  N_4
REMARK    4  A    between atoms: N_4  and  C_5
REMARK    5  A    between atoms: N_4  and  S_8
REMARK    6  A    between atoms: C_5  and  C_6
REMARK    7  A    between atoms: C_6  and  C_7
REMARK    8  A    between atoms: S_8  and  N_11
REMARK    9  A    between atoms: N_11  and  C_12
REMARK   10  A    between atoms: C_12  and  C_13
REMARK   11  A    between atoms: C_13  and  C_14
REMARK                            x       y       z     vdW  Elec       q    Type
REMARK                         _______ _______ _______ _____ _____    ______ ____
ROOT
ATOM      1  N   UNL     1       3.883   5.296  19.461  0.00  0.00    +0.000 NA
ATOM      2  H   UNL     1       4.587   6.049  19.358  0.00  0.00    +0.000 HD
ENDROOT
BRANCH   1   3
ATOM      3  S   UNL     1       4.489   3.930  18.733  0.00  0.00    +0.000 S 
ATOM      4  O   UNL     1       3.445   3.457  17.859  0.00  0.00    +0.000 OA
ATOM      5  O   UNL     1       5.060   3.073  19.743  0.00  0.00    +0.000 OA
BRANCH   3   6
ATOM      6  N   UNL     1       5.778   4.505  17.749  0.00  0.00    +0.000 NA
BRANCH   6   7
ATOM      7  C   UNL     1       5.274   4.733  16.346  0.00  0.00    +0.000 C 
BRANCH   7   9
ATOM      8  C   UNL     1       6.837   4.972  14.327  0.00  0.00    +0.000 C 
ATOM      9  C   UNL     1       6.030   4.041  15.213  0.00  0.00    +0.000 C 
ENDBRANCH   7   9
ENDBRANCH   6   7
BRANCH   6  10
ATOM     10  C   UNL     1       6.638   5.593  18.283  0.00  0.00    +0.000 C 
BRANCH  10  11
ATOM     11  C   UNL     1       6.514   6.900  17.516  0.00  0.00    +0.000 C 
ATOM     12  C   UNL     1       7.737   7.781  17.698  0.00  0.00    +0.000 C 
ENDBRANCH  10  11
ENDBRANCH   6  10
ENDBRANCH   3   6
ENDBRANCH   1   3
BRANCH   1  13
ATOM     13  C   UNL     1       2.560   5.792  19.047  0.00  0.00    +0.000 C 
BRANCH  13  14
ATOM     14  C   UNL     1       2.672   7.227  18.521  0.00  0.00    +0.000 C 
BRANCH  14  15
ATOM     15  C   UNL     1       1.897   8.183  19.378  0.00  0.00    +0.000 A 
ATOM     16  N   UNL     1       1.594   7.957  20.644  0.00  0.00    +0.000 NA
ATOM     17  C   UNL     1       0.950   9.058  21.153  0.00  0.00    +0.000 A 
ATOM     18  C   UNL     1       0.744  10.094  20.270  0.00  0.00    +0.000 A 
ATOM     19  S   UNL     1       1.355   9.691  18.738  0.00  0.00    +0.000 S 
ATOM     20  C   UNL     1       0.057  11.367  20.611  0.00  0.00    +0.000 C 
ATOM     21  O   UNL     1      -0.001  11.495  22.049  0.00  0.00    +0.000 OA
ATOM     22  C   UNL     1      -0.483  10.305  22.705  0.00  0.00    +0.000 C 
ATOM     23  C   UNL     1       0.530   9.158  22.573  0.00  0.00    +0.000 C 
ENDBRANCH  14  15
ENDBRANCH  13  14
ENDBRANCH   1  13
TORSDOF 9
ENDMDL
MODEL 2
REMARK VINA RESULT:      -6.2      1.908      3.263
REMARK  Name = 
REMARK  11 active torsions:
REMARK  status: ('A' for Active; 'I' for Inactive)
REMARK    1  A    between atoms: C_1  and  C_2
REMARK    2  A    between atoms: C_2  and  C_3
REMARK    3  A    between atoms: C_3  and  N_4
REMARK    4  A    between atoms: N_4  and  C_5
REMARK    5  A    between atoms: N_4  and  S_8
REMARK    6  A    between atoms: C_5  and  C_6
REMARK    7  A    between atoms: C_6  and  C_7
REMARK    8  A    between atoms: S_8  and  N_11
REMARK    9  A    between atoms: N_11  and  C_12
REMARK   10  A    between atoms: C_12  and  C_13
REMARK   11  A    between atoms: C_13  and  C_14
REMARK                            x       y       z     vdW  Elec       q    Type
REMARK                         _______ _______ _______ _____ _____    ______ ____
ROOT
ATOM      1  N   UNL     1       4.769   5.704  19.462  0.00  0.00    +0.000 NA
ATOM      2  H   UNL     1       4.566   6.561  18.916  0.00  0.00    +0.000 HD
ENDROOT
BRANCH   1   3
ATOM      3  S   UNL     1       6.302   5.199  19.066  0.00  0.00    +0.000 S 
ATOM      4  O   UNL     1       6.156   3.853  18.574  0.00  0.00    +0.000 OA
ATOM      5  O   UNL     1       7.193   5.500  20.159  0.00  0.00    +0.000 OA
BRANCH   3   6
ATOM      6  N   UNL     1       6.752   6.198  17.738  0.00  0.00    +0.000 NA
BRANCH   6   7
ATOM      7  C   UNL     1       7.886   7.102  18.153  0.00  0.00    +0.000 C 
BRANCH   7   9
ATOM      8  C   UNL     1       8.689   9.518  18.462  0.00  0.00    +0.000 C 
ATOM      9  C   UNL     1       7.838   8.548  17.662  0.00  0.00    +0.000 C 
ENDBRANCH   7   9
ENDBRANCH   6   7
BRANCH   6  10
ATOM     10  C   UNL     1       6.923   5.562  16.406  0.00  0.00    +0.000 C 
BRANCH  10  11
ATOM     11  C   UNL     1       5.666   5.592  15.551  0.00  0.00    +0.000 C 
ATOM     12  C   UNL     1       4.752   6.744  15.928  0.00  0.00    +0.000 C 
ENDBRANCH  10  11
ENDBRANCH   6  10
ENDBRANCH   3   6
ENDBRANCH   1   3
BRANCH   1  13
ATOM     13  C   UNL     1       3.653   4.753  19.328  0.00  0.00    +0.000 C 
BRANCH  13  14
ATOM     14  C   UNL     1       2.458   5.214  20.170  0.00  0.00    +0.000 C 
BRANCH  14  15
ATOM     15  C   UNL     1       2.144   6.659  19.924  0.00  0.00    +0.000 A 
ATOM     16  N   UNL     1       2.415   7.290  18.795  0.00  0.00    +0.000 NA
ATOM     17  C   UNL     1       1.932   8.574  18.873  0.00  0.00    +0.000 A 
ATOM     18  C   UNL     1       1.328   8.916  20.061  0.00  0.00    +0.000 A 
ATOM     19  S   UNL     1       1.368   7.606  21.141  0.00  0.00    +0.000 S 
ATOM     20  C   UNL     1       0.752  10.253  20.358  0.00  0.00    +0.000 C 
ATOM     21  O   UNL     1       0.582  10.974  19.117  0.00  0.00    +0.000 OA
ATOM     22  C   UNL     1       1.756  10.947  18.281  0.00  0.00    +0.000 C 
ATOM     23  C   UNL     1       2.013   9.532  17.742  0.00  0.00    +0.000 C 
ENDBRANCH  14  15
ENDBRANCH  13  14
ENDBRANCH   1  13
TORSDOF 9
ENDMDL
MODEL 3
REMARK VINA RESULT:      -6.1      3.824      8.289
REMARK  Name = 
REMARK  11 active torsions:
REMARK  status: ('A' for Active; 'I' for Inactive)
REMARK    1  A    between atoms: C_1  and  C_2
REMARK    2  A    between atoms: C_2  and  C_3
REMARK    3  A    between atoms: C_3  and  N_4
REMARK    4  A    between atoms: N_4  and  C_5
REMARK    5  A    between atoms: N_4  and  S_8
REMARK    6  A    between atoms: C_5  and  C_6
REMARK    7  A    between atoms: C_6  and  C_7
REMARK    8  A    between atoms: S_8  and  N_11
REMARK    9  A    between atoms: N_11  and  C_12
REMARK   10  A    between atoms: C_12  and  C_13
REMARK   11  A    between atoms: C_13  and  C_14
REMARK                            x       y       z     vdW  Elec       q    Type
REMARK                         _______ _______ _______ _____ _____    ______ ____
ROOT
ATOM      1  N   UNL     1       5.031   5.624  19.163  0.00  0.00    +0.000 NA
ATOM      2  H   UNL     1       5.173   4.607  19.304  0.00  0.00    +0.000 HD
ENDROOT
BRANCH   1   3
ATOM      3  S   UNL     1       3.432   5.867  18.780  0.00  0.00    +0.000 S 
ATOM      4  O   UNL     1       3.389   5.995  17.345  0.00  0.00    +0.000 OA
ATOM      5  O   UNL     1       2.895   6.896  19.636  0.00  0.00    +0.000 OA
BRANCH   3   6
ATOM      6  N   UNL     1       2.662   4.387  19.200  0.00  0.00    +0.000 NA
BRANCH   6   7
ATOM      7  C   UNL     1       1.946   4.551  20.517  0.00  0.00    +0.000 C 
BRANCH   7   9
ATOM      8  C   UNL     1       1.769   2.372  21.858  0.00  0.00    +0.000 C 
ATOM      9  C   UNL     1       1.066   3.390  20.980  0.00  0.00    +0.000 C 
ENDBRANCH   7   9
ENDBRANCH   6   7
BRANCH   6  10
ATOM     10  C   UNL     1       1.878   3.681  18.153  0.00  0.00    +0.000 C 
BRANCH  10  11
ATOM     11  C   UNL     1       2.655   2.579  17.449  0.00  0.00    +0.000 C 
ATOM     12  C   UNL     1       3.376   1.677  18.434  0.00  0.00    +0.000 C 
ENDBRANCH  10  11
ENDBRANCH   6  10
ENDBRANCH   3   6
ENDBRANCH   1   3
BRANCH   1  13
ATOM     13  C   UNL     1       6.065   6.149  18.256  0.00  0.00    +0.000 C 
BRANCH  13  14
ATOM     14  C   UNL     1       6.985   5.016  17.788  0.00  0.00    +0.000 C 
BRANCH  14  15
ATOM     15  C   UNL     1       6.885   4.810  16.306  0.00  0.00    +0.000 A 
ATOM     16  N   UNL     1       7.672   5.402  15.425  0.00  0.00    +0.000 NA
ATOM     17  C   UNL     1       7.364   4.939  14.169  0.00  0.00    +0.000 A 
ATOM     18  C   UNL     1       6.335   4.028  14.101  0.00  0.00    +0.000 A 
ATOM     19  S   UNL     1       5.703   3.737  15.650  0.00  0.00    +0.000 S 
ATOM     20  C   UNL     1       5.835   3.414  12.843  0.00  0.00    +0.000 C 
ATOM     21  O   UNL     1       6.818   3.617  11.803  0.00  0.00    +0.000 OA
ATOM     22  C   UNL     1       7.281   4.979  11.718  0.00  0.00    +0.000 C 
ATOM     23  C   UNL     1       8.110   5.354  12.955  0.00  0.00    +0.000 C 
ENDBRANCH  14  15
ENDBRANCH  13  14
ENDBRANCH   1  13
TORSDOF 9
ENDMDL
MODEL 4
REMARK VINA RESULT:      -6.0      1.817      2.835
REMARK  Name = 
REMARK  11 active torsions:
REMARK  status: ('A' for Active; 'I' for Inactive)
REMARK    1  A    between atoms: C_1  and  C_2
REMARK    2  A    between atoms: C_2  and  C_3
REMARK    3  A    between atoms: C_3  and  N_4
REMARK    4  A    between atoms: N_4  and  C_5
REMARK    5  A    between atoms: N_4  and  S_8
REMARK    6  A    between atoms: C_5  and  C_6
REMARK    7  A    between atoms: C_6  and  C_7
REMARK    8  A    between atoms: S_8  and  N_11
REMARK    9  A    between atoms: N_11  and  C_12
REMARK   10  A    between atoms: C_12  and  C_13
REMARK   11  A    between atoms: C_13  and  C_14
REMARK                            x       y       z     vdW  Elec       q    Type
REMARK                         _______ _______ _______ _____ _____    ______ ____
ROOT
ATOM      1  N   UNL     1       3.086   6.014  18.225  0.00  0.00    +0.000 NA
ATOM      2  H   UNL     1       2.082   5.960  18.477  0.00  0.00    +0.000 HD
ENDROOT
BRANCH   1   3
ATOM      3  S   UNL     1       3.934   5.082  19.309  0.00  0.00    +0.000 S 
ATOM      4  O   UNL     1       3.001   4.759  20.359  0.00  0.00    +0.000 OA
ATOM      5  O   UNL     1       5.190   5.726  19.602  0.00  0.00    +0.000 OA
BRANCH   3   6
ATOM      6  N   UNL     1       4.280   3.632  18.449  0.00  0.00    +0.000 NA
BRANCH   6   7
ATOM      7  C   UNL     1       3.422   2.513  18.986  0.00  0.00    +0.000 C 
BRANCH   7   9
ATOM      8  C   UNL     1       0.870   2.541  18.740  0.00  0.00    +0.000 C 
ATOM      9  C   UNL     1       2.204   2.111  18.157  0.00  0.00    +0.000 C 
ENDBRANCH   7   9
ENDBRANCH   6   7
BRANCH   6  10
ATOM     10  C   UNL     1       4.357   3.696  16.966  0.00  0.00    +0.000 C 
BRANCH  10  11
ATOM     11  C   UNL     1       5.691   4.208  16.446  0.00  0.00    +0.000 C 
ATOM     12  C   UNL     1       5.555   4.852  15.078  0.00  0.00    +0.000 C 
ENDBRANCH  10  11
ENDBRANCH   6  10
ENDBRANCH   3   6
ENDBRANCH   1   3
BRANCH   1  13
ATOM     13  C   UNL     1       3.478   7.420  18.041  0.00  0.00    +0.000 C 
BRANCH  13  14
ATOM     14  C   UNL     1       2.265   8.260  17.625  0.00  0.00    +0.000 C 
BRANCH  14  15
ATOM     15  C   UNL     1       1.589   8.867  18.817  0.00  0.00    +0.000 A 
ATOM     16  N   UNL     1       1.642   8.355  20.035  0.00  0.00    +0.000 NA
ATOM     17  C   UNL     1       0.984   9.193  20.901  0.00  0.00    +0.000 A 
ATOM     18  C   UNL     1       0.415  10.312  20.338  0.00  0.00    +0.000 A 
ATOM     19  S   UNL     1       0.685  10.329  18.661  0.00  0.00    +0.000 S 
ATOM     20  C   UNL     1      -0.352  11.337  21.092  0.00  0.00    +0.000 C 
ATOM     21  O   UNL     1      -0.075  11.183  22.502  0.00  0.00    +0.000 OA
ATOM     22  C   UNL     1      -0.196   9.821  22.958  0.00  0.00    +0.000 C 
ATOM     23  C   UNL     1       0.915   8.943  22.363  0.00  0.00    +0.000 C 
ENDBRANCH  14  15
ENDBRANCH  13  14
ENDBRANCH   1  13
TORSDOF 9
ENDMDL
MODEL 5
REMARK VINA RESULT:      -6.0      1.847      2.841
REMARK  Name = 
REMARK  11 active torsions:
REMARK  status: ('A' for Active; 'I' for Inactive)
REMARK    1  A    between atoms: C_1  and  C_2
REMARK    2  A    between atoms: C_2  and  C_3
REMARK    3  A    between atoms: C_3  and  N_4
REMARK    4  A    between atoms: N_4  and  C_5
REMARK    5  A    between atoms: N_4  and  S_8
REMARK    6  A    between atoms: C_5  and  C_6
REMARK    7  A    between atoms: C_6  and  C_7
REMARK    8  A    between atoms: S_8  and  N_11
REMARK    9  A    between atoms: N_11  and  C_12
REMARK   10  A    between atoms: C_12  and  C_13
REMARK   11  A    between atoms: C_13  and  C_14
REMARK                            x       y       z     vdW  Elec       q    Type
REMARK                         _______ _______ _______ _____ _____    ______ ____
ROOT
ATOM      1  N   UNL     1       2.692   6.363  18.687  0.00  0.00    +0.000 NA
ATOM      2  H   UNL     1       2.002   6.576  19.430  0.00  0.00    +0.000 HD
ENDROOT
BRANCH   1   3
ATOM      3  S   UNL     1       3.757   5.237  19.288  0.00  0.00    +0.000 S 
ATOM      4  O   UNL     1       3.081   4.613  20.397  0.00  0.00    +0.000 OA
ATOM      5  O   UNL     1       5.049   5.856  19.455  0.00  0.00    +0.000 OA
BRANCH   3   6
ATOM      6  N   UNL     1       3.898   4.069  18.033  0.00  0.00    +0.000 NA
BRANCH   6   7
ATOM      7  C   UNL     1       5.212   4.258  17.317  0.00  0.00    +0.000 C 
BRANCH   7   9
ATOM      8  C   UNL     1       5.663   4.258  14.793  0.00  0.00    +0.000 C 
ATOM      9  C   UNL     1       5.183   5.037  16.003  0.00  0.00    +0.000 C 
ENDBRANCH   7   9
ENDBRANCH   6   7
BRANCH   6  10
ATOM     10  C   UNL     1       3.562   2.655  18.347  0.00  0.00    +0.000 C 
BRANCH  10  11
ATOM     11  C   UNL     1       2.245   2.193  17.745  0.00  0.00    +0.000 C 
ATOM     12  C   UNL     1       1.099   2.309  18.734  0.00  0.00    +0.000 C 
ENDBRANCH  10  11
ENDBRANCH   6  10
ENDBRANCH   3   6
ENDBRANCH   1   3
BRANCH   1  13
ATOM     13  C   UNL     1       3.225   7.617  18.130  0.00  0.00    +0.000 C 
BRANCH  13  14
ATOM     14  C   UNL     1       2.077   8.555  17.741  0.00  0.00    +0.000 C 
BRANCH  14  15
ATOM     15  C   UNL     1       1.412   9.133  18.953  0.00  0.00    +0.000 A 
ATOM     16  N   UNL     1       1.411   8.553  20.140  0.00  0.00    +0.000 NA
ATOM     17  C   UNL     1       0.783   9.377  21.041  0.00  0.00    +0.000 A 
ATOM     18  C   UNL     1       0.289  10.557  20.531  0.00  0.00    +0.000 A 
ATOM     19  S   UNL     1       0.595  10.651  18.864  0.00  0.00    +0.000 S 
ATOM     20  C   UNL     1      -0.435  11.581  21.329  0.00  0.00    +0.000 C 
ATOM     21  O   UNL     1      -0.196  11.333  22.732  0.00  0.00    +0.000 OA
ATOM     22  C   UNL     1      -0.402   9.957  23.108  0.00  0.00    +0.000 C 
ATOM     23  C   UNL     1       0.670   9.051  22.485  0.00  0.00    +0.000 C 
ENDBRANCH  14  15
ENDBRANCH  13  14
ENDBRANCH   1  13
TORSDOF 9
ENDMDL
MODEL 6
REMARK VINA RESULT:      -5.9      1.773      2.636
REMARK  Name = 
REMARK  11 active torsions:
REMARK  status: ('A' for Active; 'I' for Inactive)
REMARK    1  A    between atoms: C_1  and  C_2
REMARK    2  A    between atoms: C_2  and  C_3
REMARK    3  A    between atoms: C_3  and  N_4
REMARK    4  A    between atoms: N_4  and  C_5
REMARK    5  A    between atoms: N_4  and  S_8
REMARK    6  A    between atoms: C_5  and  C_6
REMARK    7  A    between atoms: C_6  and  C_7
REMARK    8  A    between atoms: S_8  and  N_11
REMARK    9  A    between atoms: N_11  and  C_12
REMARK   10  A    between atoms: C_12  and  C_13
REMARK   11  A    between atoms: C_13  and  C_14
REMARK                            x       y       z     vdW  Elec       q    Type
REMARK                         _______ _______ _______ _____ _____    ______ ____
ROOT
ATOM      1  N   UNL     1       4.330   6.674  17.729  0.00  0.00    +0.000 NA
ATOM      2  H   UNL     1       4.208   6.500  16.714  0.00  0.00    +0.000 HD
ENDROOT
BRANCH   1   3
ATOM      3  S   UNL     1       5.335   5.494  18.330  0.00  0.00    +0.000 S 
ATOM      4  O   UNL     1       4.855   5.213  19.660  0.00  0.00    +0.000 OA
ATOM      5  O   UNL     1       6.705   5.881  18.098  0.00  0.00    +0.000 OA
BRANCH   3   6
ATOM      6  N   UNL     1       5.011   4.117  17.351  0.00  0.00    +0.000 NA
BRANCH   6   7
ATOM      7  C   UNL     1       3.897   3.311  17.973  0.00  0.00    +0.000 C 
BRANCH   7   9
ATOM      8  C   UNL     1       1.358   3.551  18.233  0.00  0.00    +0.000 C 
ATOM      9  C   UNL     1       2.532   3.368  17.289  0.00  0.00    +0.000 C 
ENDBRANCH   7   9
ENDBRANCH   6   7
BRANCH   6  10
ATOM     10  C   UNL     1       4.890   4.310  15.883  0.00  0.00    +0.000 C 
BRANCH  10  11
ATOM     11  C   UNL     1       6.086   3.795  15.099  0.00  0.00    +0.000 C 
ATOM     12  C   UNL     1       6.916   4.928  14.522  0.00  0.00    +0.000 C 
ENDBRANCH  10  11
ENDBRANCH   6  10
ENDBRANCH   3   6
ENDBRANCH   1   3
BRANCH   1  13
ATOM     13  C   UNL     1       3.016   6.875  18.360  0.00  0.00    +0.000 C 
BRANCH  13  14
ATOM     14  C   UNL     1       2.380   8.178  17.860  0.00  0.00    +0.000 C 
BRANCH  14  15
ATOM     15  C   UNL     1       1.651   8.885  18.962  0.00  0.00    +0.000 A 
ATOM     16  N   UNL     1       1.504   8.396  20.181  0.00  0.00    +0.000 NA
ATOM     17  C   UNL     1       0.856   9.324  20.960  0.00  0.00    +0.000 A 
ATOM     18  C   UNL     1       0.493  10.490  20.326  0.00  0.00    +0.000 A 
ATOM     19  S   UNL     1       0.952  10.440  18.692  0.00  0.00    +0.000 S 
ATOM     20  C   UNL     1      -0.227  11.615  20.980  0.00  0.00    +0.000 C 
ATOM     21  O   UNL     1      -0.132  11.458  22.413  0.00  0.00    +0.000 OA
ATOM     22  C   UNL     1      -0.466  10.130  22.862  0.00  0.00    +0.000 C 
ATOM     23  C   UNL     1       0.592   9.114  22.406  0.00  0.00    +0.000 C 
ENDBRANCH  14  15
ENDBRANCH  13  14
ENDBRANCH   1  13
TORSDOF 9
ENDMDL
MODEL 7
REMARK VINA RESULT:      -5.9      0.967      1.067
REMARK  Name = 
REMARK  11 active torsions:
REMARK  status: ('A' for Active; 'I' for Inactive)
REMARK    1  A    between atoms: C_1  and  C_2
REMARK    2  A    between atoms: C_2  and  C_3
REMARK    3  A    between atoms: C_3  and  N_4
REMARK    4  A    between atoms: N_4  and  C_5
REMARK    5  A    between atoms: N_4  and  S_8
REMARK    6  A    between atoms: C_5  and  C_6
REMARK    7  A    between atoms: C_6  and  C_7
REMARK    8  A    between atoms: S_8  and  N_11
REMARK    9  A    between atoms: N_11  and  C_12
REMARK   10  A    between atoms: C_12  and  C_13
REMARK   11  A    between atoms: C_13  and  C_14
REMARK                            x       y       z     vdW  Elec       q    Type
REMARK                         _______ _______ _______ _____ _____    ______ ____
ROOT
ATOM      1  N   UNL     1       3.697   6.409  18.736  0.00  0.00    +0.000 NA
ATOM      2  H   UNL     1       4.400   7.166  18.651  0.00  0.00    +0.000 HD
ENDROOT
BRANCH   1   3
ATOM      3  S   UNL     1       4.437   4.979  18.324  0.00  0.00    +0.000 S 
ATOM      4  O   UNL     1       3.753   4.511  17.145  0.00  0.00    +0.000 OA
ATOM      5  O   UNL     1       4.547   4.151  19.499  0.00  0.00    +0.000 OA
BRANCH   3   6
ATOM      6  N   UNL     1       6.029   5.439  17.860  0.00  0.00    +0.000 NA
BRANCH   6   7
ATOM      7  C   UNL     1       6.638   4.352  17.011  0.00  0.00    +0.000 C 
BRANCH   7   9
ATOM      8  C   UNL     1       5.903   4.120  14.565  0.00  0.00    +0.000 C 
ATOM      9  C   UNL     1       6.914   4.686  15.546  0.00  0.00    +0.000 C 
ENDBRANCH   7   9
ENDBRANCH   6   7
BRANCH   6  10
ATOM     10  C   UNL     1       6.242   6.818  17.347  0.00  0.00    +0.000 C 
BRANCH  10  11
ATOM     11  C   UNL     1       7.650   7.344  17.576  0.00  0.00    +0.000 C 
ATOM     12  C   UNL     1       7.667   8.849  17.771  0.00  0.00    +0.000 C 
ENDBRANCH  10  11
ENDBRANCH   6  10
ENDBRANCH   3   6
ENDBRANCH   1   3
BRANCH   1  13
ATOM     13  C   UNL     1       2.462   6.796  18.034  0.00  0.00    +0.000 C 
BRANCH  13  14
ATOM     14  C   UNL     1       2.393   8.320  17.882  0.00  0.00    +0.000 C 
BRANCH  14  15
ATOM     15  C   UNL     1       1.674   8.951  19.036  0.00  0.00    +0.000 A 
ATOM     16  N   UNL     1       1.558   8.389  20.227  0.00  0.00    +0.000 NA
ATOM     17  C   UNL     1       0.911   9.259  21.070  0.00  0.00    +0.000 A 
ATOM     18  C   UNL     1       0.519  10.454  20.512  0.00  0.00    +0.000 A 
ATOM     19  S   UNL     1       0.948  10.507  18.870  0.00  0.00    +0.000 S 
ATOM     20  C   UNL     1      -0.205  11.527  21.244  0.00  0.00    +0.000 C 
ATOM     21  O   UNL     1      -0.081  11.289  22.663  0.00  0.00    +0.000 OA
ATOM     22  C   UNL     1      -0.387   9.932  23.039  0.00  0.00    +0.000 C 
ATOM     23  C   UNL     1       0.678   8.962  22.506  0.00  0.00    +0.000 C 
ENDBRANCH  14  15
ENDBRANCH  13  14
ENDBRANCH   1  13
TORSDOF 9
ENDMDL
MODEL 8
REMARK VINA RESULT:      -5.8      1.509      2.812
REMARK  Name = 
REMARK  11 active torsions:
REMARK  status: ('A' for Active; 'I' for Inactive)
REMARK    1  A    between atoms: C_1  and  C_2
REMARK    2  A    between atoms: C_2  and  C_3
REMARK    3  A    between atoms: C_3  and  N_4
REMARK    4  A    between atoms: N_4  and  C_5
REMARK    5  A    between atoms: N_4  and  S_8
REMARK    6  A    between atoms: C_5  and  C_6
REMARK    7  A    between atoms: C_6  and  C_7
REMARK    8  A    between atoms: S_8  and  N_11
REMARK    9  A    between atoms: N_11  and  C_12
REMARK   10  A    between atoms: C_12  and  C_13
REMARK   11  A    between atoms: C_13  and  C_14
REMARK                            x       y       z     vdW  Elec       q    Type
REMARK                         _______ _______ _______ _____ _____    ______ ____
ROOT
ATOM      1  N   UNL     1       2.995   4.954  18.114  0.00  0.00    +0.000 NA
ATOM      2  H   UNL     1       2.569   4.862  17.174  0.00  0.00    +0.000 HD
ENDROOT
BRANCH   1   3
ATOM      3  S   UNL     1       4.405   4.075  18.122  0.00  0.00    +0.000 S 
ATOM      4  O   UNL     1       4.112   2.859  17.405  0.00  0.00    +0.000 OA
ATOM      5  O   UNL     1       4.930   4.039  19.465  0.00  0.00    +0.000 OA
BRANCH   3   6
ATOM      6  N   UNL     1       5.493   5.001  17.162  0.00  0.00    +0.000 NA
BRANCH   6   7
ATOM      7  C   UNL     1       6.903   4.781  17.649  0.00  0.00    +0.000 C 
BRANCH   7   9
ATOM      8  C   UNL     1       7.540   7.263  17.565  0.00  0.00    +0.000 C 
ATOM      9  C   UNL     1       7.594   5.958  18.337  0.00  0.00    +0.000 C 
ENDBRANCH   7   9
ENDBRANCH   6   7
BRANCH   6  10
ATOM     10  C   UNL     1       5.334   4.964  15.685  0.00  0.00    +0.000 C 
BRANCH  10  11
ATOM     11  C   UNL     1       6.362   4.089  14.984  0.00  0.00    +0.000 C 
ATOM     12  C   UNL     1       7.147   4.864  13.941  0.00  0.00    +0.000 C 
ENDBRANCH  10  11
ENDBRANCH   6  10
ENDBRANCH   3   6
ENDBRANCH   1   3
BRANCH   1  13
ATOM     13  C   UNL     1       1.983   4.679  19.147  0.00  0.00    +0.000 C 
BRANCH  13  14
ATOM     14  C   UNL     1       2.237   5.546  20.384  0.00  0.00    +0.000 C 
BRANCH  14  15
ATOM     15  C   UNL     1       1.922   6.987  20.114  0.00  0.00    +0.000 A 
ATOM     16  N   UNL     1       2.260   7.619  19.004  0.00  0.00    +0.000 NA
ATOM     17  C   UNL     1       1.757   8.896  19.046  0.00  0.00    +0.000 A 
ATOM     18  C   UNL     1       1.070   9.233  20.190  0.00  0.00    +0.000 A 
ATOM     19  S   UNL     1       1.055   7.926  21.274  0.00  0.00    +0.000 S 
ATOM     20  C   UNL     1       0.459  10.564  20.444  0.00  0.00    +0.000 C 
ATOM     21  O   UNL     1       0.363  11.279  19.193  0.00  0.00    +0.000 OA
ATOM     22  C   UNL     1       1.590  11.266  18.436  0.00  0.00    +0.000 C 
ATOM     23  C   UNL     1       1.900   9.853  17.920  0.00  0.00    +0.000 C 
ENDBRANCH  14  15
ENDBRANCH  13  14
ENDBRANCH   1  13
TORSDOF 9
ENDMDL
MODEL 9
REMARK VINA RESULT:      -5.8      2.341      7.346
REMARK  Name = 
REMARK  11 active torsions:
REMARK  status: ('A' for Active; 'I' for Inactive)
REMARK    1  A    between atoms: C_1  and  C_2
REMARK    2  A    between atoms: C_2  and  C_3
REMARK    3  A    between atoms: C_3  and  N_4
REMARK    4  A    between atoms: N_4  and  C_5
REMARK    5  A    between atoms: N_4  and  S_8
REMARK    6  A    between atoms: C_5  and  C_6
REMARK    7  A    between atoms: C_6  and  C_7
REMARK    8  A    between atoms: S_8  and  N_11
REMARK    9  A    between atoms: N_11  and  C_12
REMARK   10  A    between atoms: C_12  and  C_13
REMARK   11  A    between atoms: C_13  and  C_14
REMARK                            x       y       z     vdW  Elec       q    Type
REMARK                         _______ _______ _______ _____ _____    ______ ____
ROOT
ATOM      1  N   UNL     1       1.856   7.763  21.058  0.00  0.00    +0.000 NA
ATOM      2  H   UNL     1       2.536   7.545  21.809  0.00  0.00    +0.000 HD
ENDROOT
BRANCH   1   3
ATOM      3  S   UNL     1       0.861   8.975  21.609  0.00  0.00    +0.000 S 
ATOM      4  O   UNL     1       1.480   9.472  22.812  0.00  0.00    +0.000 OA
ATOM      5  O   UNL     1      -0.501   8.500  21.614  0.00  0.00    +0.000 OA
BRANCH   3   6
ATOM      6  N   UNL     1       0.979  10.203  20.410  0.00  0.00    +0.000 NA
BRANCH   6   7
ATOM      7  C   UNL     1      -0.020   9.930  19.313  0.00  0.00    +0.000 C 
BRANCH   7   9
ATOM      8  C   UNL     1       2.038   9.494  17.846  0.00  0.00    +0.000 C 
ATOM      9  C   UNL     1       0.529   9.405  17.987  0.00  0.00    +0.000 C 
ENDBRANCH   7   9
ENDBRANCH   6   7
BRANCH   6  10
ATOM     10  C   UNL     1       1.035  11.620  20.857  0.00  0.00    +0.000 C 
BRANCH  10  11
ATOM     11  C   UNL     1       0.873  12.623  19.727  0.00  0.00    +0.000 C 
ATOM     12  C   UNL     1       2.210  13.019  19.125  0.00  0.00    +0.000 C 
ENDBRANCH  10  11
ENDBRANCH   6  10
ENDBRANCH   3   6
ENDBRANCH   1   3
BRANCH   1  13
ATOM     13  C   UNL     1       1.248   6.517  20.562  0.00  0.00    +0.000 C 
BRANCH  13  14
ATOM     14  C   UNL     1       2.254   5.364  20.648  0.00  0.00    +0.000 C 
BRANCH  14  15
ATOM     15  C   UNL     1       3.058   5.248  19.388  0.00  0.00    +0.000 A 
ATOM     16  N   UNL     1       3.483   6.285  18.687  0.00  0.00    +0.000 NA
ATOM     17  C   UNL     1       4.249   5.834  17.640  0.00  0.00    +0.000 A 
ATOM     18  C   UNL     1       4.377   4.468  17.537  0.00  0.00    +0.000 A 
ATOM     19  S   UNL     1       3.502   3.698  18.772  0.00  0.00    +0.000 S 
ATOM     20  C   UNL     1       5.148   3.773  16.473  0.00  0.00    +0.000 C 
ATOM     21  O   UNL     1       6.025   4.727  15.834  0.00  0.00    +0.000 OA
ATOM     22  C   UNL     1       5.356   5.946  15.455  0.00  0.00    +0.000 C 
ATOM     23  C   UNL     1       4.935   6.749  16.695  0.00  0.00    +0.000 C 
ENDBRANCH  14  15
ENDBRANCH  13  14
ENDBRANCH   1  13
TORSDOF 9
ENDMDL
