MODEL 1
REMARK VINA RESULT:      -7.9      0.000      0.000
REMARK  Name = 
REMARK  4 active torsions:
REMARK  status: ('A' for Active; 'I' for Inactive)
REMARK    1  A    between atoms: C_1  and  C_2
REMARK    2  A    between atoms: C_2  and  S_3
REMARK    3  A    between atoms: S_3  and  C_4
REMARK    4  A    between atoms: C_10  and  C_11
REMARK                            x       y       z     vdW  Elec       q    Type
REMARK                         _______ _______ _______ _____ _____    ______ ____
ROOT
ATOM      1  C   UNL     1       2.224   6.098  19.919  0.00  0.00    +0.000 A 
ATOM      2  C   UNL     1       1.684   5.363  20.987  0.00  0.00    +0.000 A 
ATOM      3  C   UNL     1       2.027   4.022  21.185  0.00  0.00    +0.000 A 
ATOM      4  C   UNL     1       2.930   3.370  20.337  0.00  0.00    +0.000 A 
ATOM      5  C   UNL     1       3.473   4.126  19.297  0.00  0.00    +0.000 A 
ATOM      6  N   UNL     1       4.381   3.820  18.316  0.00  0.00    +0.000 N 
ATOM      7  C   UNL     1       4.576   4.931  17.532  0.00  0.00    +0.000 A 
ATOM      8  N   UNL     1       3.848   5.938  17.977  0.00  0.00    +0.000 NA
ATOM      9  C   UNL     1       3.151   5.462  19.067  0.00  0.00    +0.000 A 
ATOM     10  H   UNL     1       4.842   2.933  18.165  0.00  0.00    +0.000 HD
ENDROOT
BRANCH   7  11
ATOM     11  C   UNL     1       5.459   4.935  16.376  0.00  0.00    +0.000 A 
ATOM     12  C   UNL     1       6.633   5.668  16.365  0.00  0.00    +0.000 A 
ATOM     13  N   UNL     1       7.457   5.708  15.291  0.00  0.00    +0.000 NA
ATOM     14  C   UNL     1       7.074   4.986  14.221  0.00  0.00    +0.000 A 
ATOM     15  C   UNL     1       7.871   4.984  13.085  0.00  0.00    +0.000 A 
ATOM     16  C   UNL     1       7.521   4.248  11.953  0.00  0.00    +0.000 A 
ATOM     17  C   UNL     1       6.350   3.502  11.959  0.00  0.00    +0.000 A 
ATOM     18  C   UNL     1       5.536   3.499  13.095  0.00  0.00    +0.000 A 
ATOM     19  C   UNL     1       5.874   4.227  14.230  0.00  0.00    +0.000 A 
ATOM     20  N   UNL     1       5.058   4.199  15.307  0.00  0.00    +0.000 NA
ENDBRANCH   7  11
BRANCH   1  21
ATOM     21  S   UNL     1       1.830   7.819  19.709  0.00  0.00    +0.000 S 
BRANCH  21  23
ATOM     22  C   UNL     1      -0.072   8.655  21.493  0.00  0.00    +0.000 C 
ATOM     23  C   UNL     1       1.401   8.288  21.420  0.00  0.00    +0.000 C 
ENDBRANCH  21  23
ENDBRANCH   1  21
TORSDOF 3
ENDMDL
MODEL 2
REMARK VINA RESULT:      -7.8      1.452      2.710
REMARK  Name = 
REMARK  4 active torsions:
REMARK  status: ('A' for Active; 'I' for Inactive)
REMARK    1  A    between atoms: C_1  and  C_2
REMARK    2  A    between atoms: C_2  and  S_3
REMARK    3  A    between atoms: S_3  and  C_4
REMARK    4  A    between atoms: C_10  and  C_11
REMARK                            x       y       z     vdW  Elec       q    Type
REMARK                         _______ _______ _______ _____ _____    ______ ____
ROOT
ATOM      1  C   UNL     1       2.671   4.346  20.287  0.00  0.00    +0.000 A 
ATOM      2  C   UNL     1       1.843   5.187  21.048  0.00  0.00    +0.000 A 
ATOM      3  C   UNL     1       1.691   6.537  20.719  0.00  0.00    +0.000 A 
ATOM      4  C   UNL     1       2.345   7.095  19.615  0.00  0.00    +0.000 A 
ATOM      5  C   UNL     1       3.144   6.236  18.859  0.00  0.00    +0.000 A 
ATOM      6  N   UNL     1       3.894   6.436  17.728  0.00  0.00    +0.000 N 
ATOM      7  C   UNL     1       4.499   5.252  17.384  0.00  0.00    +0.000 A 
ATOM      8  N   UNL     1       4.158   4.300  18.232  0.00  0.00    +0.000 NA
ATOM      9  C   UNL     1       3.322   4.887  19.159  0.00  0.00    +0.000 A 
ATOM     10  H   UNL     1       4.008   7.299  17.215  0.00  0.00    +0.000 HD
ENDROOT
BRANCH   7  11
ATOM     11  C   UNL     1       5.396   5.127  16.245  0.00  0.00    +0.000 A 
ATOM     12  C   UNL     1       6.627   5.758  16.221  0.00  0.00    +0.000 A 
ATOM     13  N   UNL     1       7.467   5.678  15.162  0.00  0.00    +0.000 NA
ATOM     14  C   UNL     1       7.040   4.941  14.120  0.00  0.00    +0.000 A 
ATOM     15  C   UNL     1       7.850   4.818  13.000  0.00  0.00    +0.000 A 
ATOM     16  C   UNL     1       7.455   4.060  11.897  0.00  0.00    +0.000 A 
ATOM     17  C   UNL     1       6.226   3.416  11.916  0.00  0.00    +0.000 A 
ATOM     18  C   UNL     1       5.399   3.535  13.036  0.00  0.00    +0.000 A 
ATOM     19  C   UNL     1       5.780   4.286  14.142  0.00  0.00    +0.000 A 
ATOM     20  N   UNL     1       4.950   4.377  15.205  0.00  0.00    +0.000 NA
ENDBRANCH   7  11
BRANCH   1  21
ATOM     21  S   UNL     1       2.812   2.616  20.675  0.00  0.00    +0.000 S 
BRANCH  21  23
ATOM     22  C   UNL     1       0.690   2.477  18.949  0.00  0.00    +0.000 C 
ATOM     23  C   UNL     1       2.061   1.866  19.190  0.00  0.00    +0.000 C 
ENDBRANCH  21  23
ENDBRANCH   1  21
TORSDOF 3
ENDMDL
MODEL 3
REMARK VINA RESULT:      -7.7      1.182      1.192
REMARK  Name = 
REMARK  4 active torsions:
REMARK  status: ('A' for Active; 'I' for Inactive)
REMARK    1  A    between atoms: C_1  and  C_2
REMARK    2  A    between atoms: C_2  and  S_3
REMARK    3  A    between atoms: S_3  and  C_4
REMARK    4  A    between atoms: C_10  and  C_11
REMARK                            x       y       z     vdW  Elec       q    Type
REMARK                         _______ _______ _______ _____ _____    ______ ____
ROOT
ATOM      1  C   UNL     1       2.503   5.396  20.160  0.00  0.00    +0.000 A 
ATOM      2  C   UNL     1       2.030   4.549  21.175  0.00  0.00    +0.000 A 
ATOM      3  C   UNL     1       2.414   3.205  21.229  0.00  0.00    +0.000 A 
ATOM      4  C   UNL     1       3.292   2.662  20.284  0.00  0.00    +0.000 A 
ATOM      5  C   UNL     1       3.768   3.527  19.298  0.00  0.00    +0.000 A 
ATOM      6  N   UNL     1       4.637   3.341  18.253  0.00  0.00    +0.000 N 
ATOM      7  C   UNL     1       4.768   4.527  17.571  0.00  0.00    +0.000 A 
ATOM      8  N   UNL     1       4.038   5.466  18.142  0.00  0.00    +0.000 NA
ATOM      9  C   UNL     1       3.404   4.870  19.211  0.00  0.00    +0.000 A 
ATOM     10  H   UNL     1       5.111   2.486  17.998  0.00  0.00    +0.000 HD
ENDROOT
BRANCH   7  11
ATOM     11  C   UNL     1       5.596   4.665  16.383  0.00  0.00    +0.000 A 
ATOM     12  C   UNL     1       6.716   5.478  16.372  0.00  0.00    +0.000 A 
ATOM     13  N   UNL     1       7.487   5.643  15.270  0.00  0.00    +0.000 NA
ATOM     14  C   UNL     1       7.106   4.964  14.173  0.00  0.00    +0.000 A 
ATOM     15  C   UNL     1       7.849   5.088  13.007  0.00  0.00    +0.000 A 
ATOM     16  C   UNL     1       7.500   4.401  11.845  0.00  0.00    +0.000 A 
ATOM     17  C   UNL     1       6.383   3.575  11.850  0.00  0.00    +0.000 A 
ATOM     18  C   UNL     1       5.624   3.445  13.015  0.00  0.00    +0.000 A 
ATOM     19  C   UNL     1       5.962   4.123  14.180  0.00  0.00    +0.000 A 
ATOM     20  N   UNL     1       5.199   3.970  15.286  0.00  0.00    +0.000 NA
ENDBRANCH   7  11
BRANCH   1  21
ATOM     21  S   UNL     1       2.059   7.118  20.133  0.00  0.00    +0.000 S 
BRANCH  21  23
ATOM     22  C   UNL     1       1.723   8.898  18.079  0.00  0.00    +0.000 C 
ATOM     23  C   UNL     1       2.234   7.493  18.355  0.00  0.00    +0.000 C 
ENDBRANCH  21  23
ENDBRANCH   1  21
TORSDOF 3
ENDMDL
MODEL 4
REMARK VINA RESULT:      -7.6      3.029      8.216
REMARK  Name = 
REMARK  4 active torsions:
REMARK  status: ('A' for Active; 'I' for Inactive)
REMARK    1  A    between atoms: C_1  and  C_2
REMARK    2  A    between atoms: C_2  and  S_3
REMARK    3  A    between atoms: S_3  and  C_4
REMARK    4  A    between atoms: C_10  and  C_11
REMARK                            x       y       z     vdW  Elec       q    Type
REMARK                         _______ _______ _______ _____ _____    ______ ____
ROOT
ATOM      1  C   UNL     1       4.152   4.357  18.044  0.00  0.00    +0.000 A 
ATOM      2  C   UNL     1       5.100   4.091  17.042  0.00  0.00    +0.000 A 
ATOM      3  C   UNL     1       5.503   5.088  16.149  0.00  0.00    +0.000 A 
ATOM      4  C   UNL     1       4.989   6.387  16.228  0.00  0.00    +0.000 A 
ATOM      5  C   UNL     1       4.066   6.636  17.245  0.00  0.00    +0.000 A 
ATOM      6  N   UNL     1       3.393   7.772  17.618  0.00  0.00    +0.000 N 
ATOM      7  C   UNL     1       2.592   7.477  18.694  0.00  0.00    +0.000 A 
ATOM      8  N   UNL     1       2.733   6.211  19.038  0.00  0.00    +0.000 NA
ATOM      9  C   UNL     1       3.638   5.667  18.150  0.00  0.00    +0.000 A 
ATOM     10  H   UNL     1       3.452   8.685  17.189  0.00  0.00    +0.000 HD
ENDROOT
BRANCH   7  11
ATOM     11  C   UNL     1       1.716   8.459  19.317  0.00  0.00    +0.000 A 
ATOM     12  C   UNL     1       1.215   9.535  18.605  0.00  0.00    +0.000 A 
ATOM     13  N   UNL     1       0.420  10.475  19.169  0.00  0.00    +0.000 NA
ATOM     14  C   UNL     1       0.136  10.307  20.473  0.00  0.00    +0.000 A 
ATOM     15  C   UNL     1      -0.672  11.235  21.115  0.00  0.00    +0.000 A 
ATOM     16  C   UNL     1      -1.001  11.102  22.464  0.00  0.00    +0.000 A 
ATOM     17  C   UNL     1      -0.511  10.020  23.184  0.00  0.00    +0.000 A 
ATOM     18  C   UNL     1       0.306   9.082  22.550  0.00  0.00    +0.000 A 
ATOM     19  C   UNL     1       0.642   9.201  21.206  0.00  0.00    +0.000 A 
ATOM     20  N   UNL     1       1.437   8.271  20.632  0.00  0.00    +0.000 NA
ENDBRANCH   7  11
BRANCH   1  21
ATOM     21  S   UNL     1       3.689   3.102  19.214  0.00  0.00    +0.000 S 
BRANCH  21  23
ATOM     22  C   UNL     1       1.021   2.718  18.728  0.00  0.00    +0.000 C 
ATOM     23  C   UNL     1       2.388   2.223  18.284  0.00  0.00    +0.000 C 
ENDBRANCH  21  23
ENDBRANCH   1  21
TORSDOF 3
ENDMDL
MODEL 5
REMARK VINA RESULT:      -7.6      3.361      8.255
REMARK  Name = 
REMARK  4 active torsions:
REMARK  status: ('A' for Active; 'I' for Inactive)
REMARK    1  A    between atoms: C_1  and  C_2
REMARK    2  A    between atoms: C_2  and  S_3
REMARK    3  A    between atoms: S_3  and  C_4
REMARK    4  A    between atoms: C_10  and  C_11
REMARK                            x       y       z     vdW  Elec       q    Type
REMARK                         _______ _______ _______ _____ _____    ______ ____
ROOT
ATOM      1  C   UNL     1       3.465   3.949  19.179  0.00  0.00    +0.000 A 
ATOM      2  C   UNL     1       4.340   3.422  18.215  0.00  0.00    +0.000 A 
ATOM      3  C   UNL     1       4.806   4.208  17.157  0.00  0.00    +0.000 A 
ATOM      4  C   UNL     1       4.429   5.550  17.028  0.00  0.00    +0.000 A 
ATOM      5  C   UNL     1       3.578   6.060  18.009  0.00  0.00    +0.000 A 
ATOM      6  N   UNL     1       3.038   7.307  18.201  0.00  0.00    +0.000 N 
ATOM      7  C   UNL     1       2.255   7.282  19.329  0.00  0.00    +0.000 A 
ATOM      8  N   UNL     1       2.282   6.082  19.878  0.00  0.00    +0.000 NA
ATOM      9  C   UNL     1       3.091   5.305  19.074  0.00  0.00    +0.000 A 
ATOM     10  H   UNL     1       3.172   8.125  17.623  0.00  0.00    +0.000 HD
ENDROOT
BRANCH   7  11
ATOM     11  C   UNL     1       1.509   8.440  19.796  0.00  0.00    +0.000 A 
ATOM     12  C   UNL     1       1.372   9.575  19.016  0.00  0.00    +0.000 A 
ATOM     13  N   UNL     1       0.705  10.675  19.440  0.00  0.00    +0.000 NA
ATOM     14  C   UNL     1       0.172  10.606  20.674  0.00  0.00    +0.000 A 
ATOM     15  C   UNL     1      -0.523  11.699  21.173  0.00  0.00    +0.000 A 
ATOM     16  C   UNL     1      -1.099  11.676  22.443  0.00  0.00    +0.000 A 
ATOM     17  C   UNL     1      -0.975  10.539  23.229  0.00  0.00    +0.000 A 
ATOM     18  C   UNL     1      -0.274   9.433  22.740  0.00  0.00    +0.000 A 
ATOM     19  C   UNL     1       0.304   9.442  21.476  0.00  0.00    +0.000 A 
ATOM     20  N   UNL     1       0.976   8.353  21.042  0.00  0.00    +0.000 NA
ENDBRANCH   7  11
BRANCH   1  21
ATOM     21  S   UNL     1       2.925   2.961  20.554  0.00  0.00    +0.000 S 
BRANCH  21  23
ATOM     22  C   UNL     1       0.892   2.337  18.828  0.00  0.00    +0.000 C 
ATOM     23  C   UNL     1       1.131   2.869  20.232  0.00  0.00    +0.000 C 
ENDBRANCH  21  23
ENDBRANCH   1  21
TORSDOF 3
ENDMDL
MODEL 6
REMARK VINA RESULT:      -7.5      2.677      5.207
REMARK  Name = 
REMARK  4 active torsions:
REMARK  status: ('A' for Active; 'I' for Inactive)
REMARK    1  A    between atoms: C_1  and  C_2
REMARK    2  A    between atoms: C_2  and  S_3
REMARK    3  A    between atoms: S_3  and  C_4
REMARK    4  A    between atoms: C_10  and  C_11
REMARK                            x       y       z     vdW  Elec       q    Type
REMARK                         _______ _______ _______ _____ _____    ______ ____
ROOT
ATOM      1  C   UNL     1      -0.249  10.622  20.354  0.00  0.00    +0.000 A 
ATOM      2  C   UNL     1      -0.747  11.098  21.578  0.00  0.00    +0.000 A 
ATOM      3  C   UNL     1      -0.453  10.445  22.778  0.00  0.00    +0.000 A 
ATOM      4  C   UNL     1       0.357   9.304  22.806  0.00  0.00    +0.000 A 
ATOM      5  C   UNL     1       0.860   8.861  21.582  0.00  0.00    +0.000 A 
ATOM      6  N   UNL     1       1.682   7.814  21.250  0.00  0.00    +0.000 N 
ATOM      7  C   UNL     1       1.873   7.816  19.890  0.00  0.00    +0.000 A 
ATOM      8  N   UNL     1       1.226   8.825  19.338  0.00  0.00    +0.000 NA
ATOM      9  C   UNL     1       0.585   9.485  20.366  0.00  0.00    +0.000 A 
ATOM     10  H   UNL     1       2.090   7.135  21.878  0.00  0.00    +0.000 HD
ENDROOT
BRANCH   7  11
ATOM     11  C   UNL     1       2.672   6.811  19.205  0.00  0.00    +0.000 A 
ATOM     12  C   UNL     1       2.759   5.513  19.675  0.00  0.00    +0.000 A 
ATOM     13  N   UNL     1       3.517   4.567  19.071  0.00  0.00    +0.000 NA
ATOM     14  C   UNL     1       4.189   4.959  17.972  0.00  0.00    +0.000 A 
ATOM     15  C   UNL     1       4.987   4.041  17.304  0.00  0.00    +0.000 A 
ATOM     16  C   UNL     1       5.698   4.396  16.157  0.00  0.00    +0.000 A 
ATOM     17  C   UNL     1       5.610   5.694  15.673  0.00  0.00    +0.000 A 
ATOM     18  C   UNL     1       4.813   6.628  16.339  0.00  0.00    +0.000 A 
ATOM     19  C   UNL     1       4.098   6.288  17.482  0.00  0.00    +0.000 A 
ATOM     20  N   UNL     1       3.341   7.223  18.097  0.00  0.00    +0.000 NA
ENDBRANCH   7  11
BRANCH   1  21
ATOM     21  S   UNL     1      -0.576  11.493  18.839  0.00  0.00    +0.000 S 
BRANCH  21  23
ATOM     22  C   UNL     1      -2.404  11.079  16.842  0.00  0.00    +0.000 C 
ATOM     23  C   UNL     1      -1.831  10.407  18.079  0.00  0.00    +0.000 C 
ENDBRANCH  21  23
ENDBRANCH   1  21
TORSDOF 3
ENDMDL
MODEL 7
REMARK VINA RESULT:      -7.4      2.662      5.182
REMARK  Name = 
REMARK  4 active torsions:
REMARK  status: ('A' for Active; 'I' for Inactive)
REMARK    1  A    between atoms: C_1  and  C_2
REMARK    2  A    between atoms: C_2  and  S_3
REMARK    3  A    between atoms: S_3  and  C_4
REMARK    4  A    between atoms: C_10  and  C_11
REMARK                            x       y       z     vdW  Elec       q    Type
REMARK                         _______ _______ _______ _____ _____    ______ ____
ROOT
ATOM      1  C   UNL     1      -0.080  10.742  20.327  0.00  0.00    +0.000 A 
ATOM      2  C   UNL     1      -0.599  11.207  21.547  0.00  0.00    +0.000 A 
ATOM      3  C   UNL     1      -0.377  10.509  22.737  0.00  0.00    +0.000 A 
ATOM      4  C   UNL     1       0.381   9.332  22.760  0.00  0.00    +0.000 A 
ATOM      5  C   UNL     1       0.907   8.900  21.541  0.00  0.00    +0.000 A 
ATOM      6  N   UNL     1       1.693   7.827  21.208  0.00  0.00    +0.000 N 
ATOM      7  C   UNL     1       1.931   7.857  19.855  0.00  0.00    +0.000 A 
ATOM      8  N   UNL     1       1.349   8.908  19.311  0.00  0.00    +0.000 NA
ATOM      9  C   UNL     1       0.702   9.568  20.335  0.00  0.00    +0.000 A 
ATOM     10  H   UNL     1       2.048   7.114  21.830  0.00  0.00    +0.000 HD
ENDROOT
BRANCH   7  11
ATOM     11  C   UNL     1       2.709   6.836  19.170  0.00  0.00    +0.000 A 
ATOM     12  C   UNL     1       2.802   5.546  19.662  0.00  0.00    +0.000 A 
ATOM     13  N   UNL     1       3.541   4.586  19.056  0.00  0.00    +0.000 NA
ATOM     14  C   UNL     1       4.186   4.954  17.934  0.00  0.00    +0.000 A 
ATOM     15  C   UNL     1       4.964   4.020  17.263  0.00  0.00    +0.000 A 
ATOM     16  C   UNL     1       5.647   4.350  16.093  0.00  0.00    +0.000 A 
ATOM     17  C   UNL     1       5.552   5.639  15.586  0.00  0.00    +0.000 A 
ATOM     18  C   UNL     1       4.776   6.590  16.255  0.00  0.00    +0.000 A 
ATOM     19  C   UNL     1       4.089   6.274  17.421  0.00  0.00    +0.000 A 
ATOM     20  N   UNL     1       3.351   7.224  18.038  0.00  0.00    +0.000 NA
ENDBRANCH   7  11
BRANCH   1  21
ATOM     21  S   UNL     1      -0.315  11.666  18.827  0.00  0.00    +0.000 S 
BRANCH  21  23
ATOM     22  C   UNL     1       2.274  12.533  18.617  0.00  0.00    +0.000 C 
ATOM     23  C   UNL     1       0.899  13.011  19.055  0.00  0.00    +0.000 C 
ENDBRANCH  21  23
ENDBRANCH   1  21
TORSDOF 3
ENDMDL
MODEL 8
REMARK VINA RESULT:      -7.3      3.190      8.288
REMARK  Name = 
REMARK  4 active torsions:
REMARK  status: ('A' for Active; 'I' for Inactive)
REMARK    1  A    between atoms: C_1  and  C_2
REMARK    2  A    between atoms: C_2  and  S_3
REMARK    3  A    between atoms: S_3  and  C_4
REMARK    4  A    between atoms: C_10  and  C_11
REMARK                            x       y       z     vdW  Elec       q    Type
REMARK                         _______ _______ _______ _____ _____    ______ ____
ROOT
ATOM      1  C   UNL     1       4.343   4.544  18.327  0.00  0.00    +0.000 A 
ATOM      2  C   UNL     1       4.561   3.213  18.719  0.00  0.00    +0.000 A 
ATOM      3  C   UNL     1       3.929   2.681  19.847  0.00  0.00    +0.000 A 
ATOM      4  C   UNL     1       3.046   3.449  20.616  0.00  0.00    +0.000 A 
ATOM      5  C   UNL     1       2.826   4.761  20.195  0.00  0.00    +0.000 A 
ATOM      6  N   UNL     1       2.028   5.762  20.688  0.00  0.00    +0.000 N 
ATOM      7  C   UNL     1       2.178   6.876  19.899  0.00  0.00    +0.000 A 
ATOM      8  N   UNL     1       3.021   6.629  18.914  0.00  0.00    +0.000 NA
ATOM      9  C   UNL     1       3.441   5.325  19.080  0.00  0.00    +0.000 A 
ATOM     10  H   UNL     1       1.424   5.719  21.498  0.00  0.00    +0.000 HD
ENDROOT
BRANCH   7  11
ATOM     11  C   UNL     1       1.493   8.131  20.168  0.00  0.00    +0.000 A 
ATOM     12  C   UNL     1       1.496   9.168  19.251  0.00  0.00    +0.000 A 
ATOM     13  N   UNL     1       0.888  10.354  19.491  0.00  0.00    +0.000 NA
ATOM     14  C   UNL     1       0.269  10.474  20.680  0.00  0.00    +0.000 A 
ATOM     15  C   UNL     1      -0.373  11.665  20.992  0.00  0.00    +0.000 A 
ATOM     16  C   UNL     1      -1.033  11.837  22.208  0.00  0.00    +0.000 A 
ATOM     17  C   UNL     1      -1.049  10.799  23.130  0.00  0.00    +0.000 A 
ATOM     18  C   UNL     1      -0.404   9.598  22.830  0.00  0.00    +0.000 A 
ATOM     19  C   UNL     1       0.257   9.412  21.621  0.00  0.00    +0.000 A 
ATOM     20  N   UNL     1       0.872   8.234  21.371  0.00  0.00    +0.000 NA
ENDBRANCH   7  11
BRANCH   1  21
ATOM     21  S   UNL     1       5.102   5.196  16.858  0.00  0.00    +0.000 S 
BRANCH  21  23
ATOM     22  C   UNL     1       7.432   5.994  18.056  0.00  0.00    +0.000 C 
ATOM     23  C   UNL     1       6.864   4.870  17.205  0.00  0.00    +0.000 C 
ENDBRANCH  21  23
ENDBRANCH   1  21
TORSDOF 3
ENDMDL
MODEL 9
REMARK VINA RESULT:      -7.3      2.592      8.447
REMARK  Name = 
REMARK  4 active torsions:
REMARK  status: ('A' for Active; 'I' for Inactive)
REMARK    1  A    between atoms: C_1  and  C_2
REMARK    2  A    between atoms: C_2  and  S_3
REMARK    3  A    between atoms: S_3  and  C_4
REMARK    4  A    between atoms: C_10  and  C_11
REMARK                            x       y       z     vdW  Elec       q    Type
REMARK                         _______ _______ _______ _____ _____    ______ ____
ROOT
ATOM      1  C   UNL     1       4.392   4.828  18.006  0.00  0.00    +0.000 A 
ATOM      2  C   UNL     1       4.696   3.502  18.357  0.00  0.00    +0.000 A 
ATOM      3  C   UNL     1       4.153   2.918  19.505  0.00  0.00    +0.000 A 
ATOM      4  C   UNL     1       3.278   3.627  20.337  0.00  0.00    +0.000 A 
ATOM      5  C   UNL     1       2.972   4.935  19.957  0.00  0.00    +0.000 A 
ATOM      6  N   UNL     1       2.155   5.886  20.514  0.00  0.00    +0.000 N 
ATOM      7  C   UNL     1       2.208   7.021  19.741  0.00  0.00    +0.000 A 
ATOM      8  N   UNL     1       3.007   6.834  18.708  0.00  0.00    +0.000 NA
ATOM      9  C   UNL     1       3.497   5.550  18.823  0.00  0.00    +0.000 A 
ATOM     10  H   UNL     1       1.599   5.799  21.354  0.00  0.00    +0.000 HD
ENDROOT
BRANCH   7  11
ATOM     11  C   UNL     1       1.479   8.235  20.074  0.00  0.00    +0.000 A 
ATOM     12  C   UNL     1       1.404   9.298  19.191  0.00  0.00    +0.000 A 
ATOM     13  N   UNL     1       0.754  10.449  19.489  0.00  0.00    +0.000 NA
ATOM     14  C   UNL     1       0.174  10.505  20.702  0.00  0.00    +0.000 A 
ATOM     15  C   UNL     1      -0.507  11.656  21.073  0.00  0.00    +0.000 A 
ATOM     16  C   UNL     1      -1.131  11.762  22.316  0.00  0.00    +0.000 A 
ATOM     17  C   UNL     1      -1.070  10.697  23.205  0.00  0.00    +0.000 A 
ATOM     18  C   UNL     1      -0.383   9.535  22.844  0.00  0.00    +0.000 A 
ATOM     19  C   UNL     1       0.242   9.415  21.608  0.00  0.00    +0.000 A 
ATOM     20  N   UNL     1       0.897   8.274  21.300  0.00  0.00    +0.000 NA
ENDBRANCH   7  11
BRANCH   1  21
ATOM     21  S   UNL     1       5.038   5.543  16.512  0.00  0.00    +0.000 S 
BRANCH  21  23
ATOM     22  C   UNL     1       6.459   4.479  14.426  0.00  0.00    +0.000 C 
ATOM     23  C   UNL     1       5.703   4.062  15.678  0.00  0.00    +0.000 C 
ENDBRANCH  21  23
ENDBRANCH   1  21
TORSDOF 3
ENDMDL
