MODEL 1
REMARK VINA RESULT:      -7.6      0.000      0.000
REMARK  Name = 
REMARK  6 active torsions:
REMARK  status: ('A' for Active; 'I' for Inactive)
REMARK    1  A    between atoms: C_1  and  C_2
REMARK    2  A    between atoms: C_2  and  O_3
REMARK    3  A    between atoms: O_3  and  C_4
REMARK    4  A    between atoms: C_7  and  C_8
REMARK    5  A    between atoms: C_12  and  N_13
REMARK    6  A    between atoms: C_14  and  C_16
REMARK                            x       y       z     vdW  Elec       q    Type
REMARK                         _______ _______ _______ _____ _____    ______ ____
ROOT
ATOM      1  C   UNL     1       3.259   6.247  18.718  0.00  0.00    +0.000 A 
ATOM      2  C   UNL     1       3.437   5.318  19.757  0.00  0.00    +0.000 A 
ATOM      3  C   UNL     1       4.195   4.165  19.566  0.00  0.00    +0.000 A 
ATOM      4  C   UNL     1       4.785   3.907  18.330  0.00  0.00    +0.000 A 
ATOM      5  C   UNL     1       4.635   4.803  17.271  0.00  0.00    +0.000 A 
ATOM      6  C   UNL     1       3.892   5.973  17.484  0.00  0.00    +0.000 A 
ENDROOT
BRANCH   1  10
ATOM      7  C   UNL     1       0.938   9.677  19.429  0.00  0.00    +0.000 A 
ATOM      8  C   UNL     1       1.406   9.505  18.144  0.00  0.00    +0.000 A 
ATOM      9  C   UNL     1       2.161   8.367  17.865  0.00  0.00    +0.000 A 
ATOM     10  C   UNL     1       2.435   7.460  18.886  0.00  0.00    +0.000 A 
ATOM     11  N   UNL     1       1.960   7.683  20.135  0.00  0.00    +0.000 NA
ATOM     12  N   UNL     1       1.209   8.793  20.410  0.00  0.00    +0.000 NA
BRANCH   7  13
ATOM     13  O   UNL     1       0.215  10.818  19.703  0.00  0.00    +0.000 OA
BRANCH  13  15
ATOM     14  C   UNL     1      -0.693  12.042  21.546  0.00  0.00    +0.000 C 
ATOM     15  C   UNL     1       0.540  11.360  20.986  0.00  0.00    +0.000 C 
ENDBRANCH  13  15
ENDBRANCH   7  13
ENDBRANCH   1  10
BRANCH   5  16
ATOM     16  N   UNL     1       5.192   4.597  15.994  0.00  0.00    +0.000 N 
ATOM     17  C   UNL     1       6.369   5.137  15.500  0.00  0.00    +0.000 C 
ATOM     18  O   UNL     1       7.130   5.864  16.135  0.00  0.00    +0.000 OA
ATOM     19  H   UNL     1       4.730   3.934  15.378  0.00  0.00    +0.000 HD
BRANCH  17  20
ATOM     20  C   UNL     1       6.675   4.744  14.138  0.00  0.00    +0.000 A 
ATOM     21  C   UNL     1       6.142   3.732  13.361  0.00  0.00    +0.000 A 
ATOM     22  C   UNL     1       6.799   3.783  12.113  0.00  0.00    +0.000 A 
ATOM     23  C   UNL     1       7.697   4.821  12.199  0.00  0.00    +0.000 A 
ATOM     24  O   UNL     1       7.629   5.418  13.419  0.00  0.00    +0.000 OA
ENDBRANCH  17  20
ENDBRANCH   5  16
TORSDOF 5
ENDMDL
MODEL 2
REMARK VINA RESULT:      -7.5      1.078      1.297
REMARK  Name = 
REMARK  6 active torsions:
REMARK  status: ('A' for Active; 'I' for Inactive)
REMARK    1  A    between atoms: C_1  and  C_2
REMARK    2  A    between atoms: C_2  and  O_3
REMARK    3  A    between atoms: O_3  and  C_4
REMARK    4  A    between atoms: C_7  and  C_8
REMARK    5  A    between atoms: C_12  and  N_13
REMARK    6  A    between atoms: C_14  and  C_16
REMARK                            x       y       z     vdW  Elec       q    Type
REMARK                         _______ _______ _______ _____ _____    ______ ____
ROOT
ATOM      1  C   UNL     1       3.092   6.128  18.879  0.00  0.00    +0.000 A 
ATOM      2  C   UNL     1       3.122   5.049  19.778  0.00  0.00    +0.000 A 
ATOM      3  C   UNL     1       3.808   3.876  19.469  0.00  0.00    +0.000 A 
ATOM      4  C   UNL     1       4.471   3.749  18.251  0.00  0.00    +0.000 A 
ATOM      5  C   UNL     1       4.469   4.797  17.328  0.00  0.00    +0.000 A 
ATOM      6  C   UNL     1       3.798   5.982  17.663  0.00  0.00    +0.000 A 
ENDROOT
BRANCH   1  10
ATOM      7  C   UNL     1       0.949   9.692  19.478  0.00  0.00    +0.000 A 
ATOM      8  C   UNL     1       1.081   8.861  20.570  0.00  0.00    +0.000 A 
ATOM      9  C   UNL     1       1.804   7.680  20.416  0.00  0.00    +0.000 A 
ATOM     10  C   UNL     1       2.347   7.368  19.171  0.00  0.00    +0.000 A 
ATOM     11  N   UNL     1       2.178   8.215  18.127  0.00  0.00    +0.000 NA
ATOM     12  N   UNL     1       1.478   9.381  18.279  0.00  0.00    +0.000 NA
BRANCH   7  13
ATOM     13  O   UNL     1       0.209  10.845  19.633  0.00  0.00    +0.000 OA
BRANCH  13  15
ATOM     14  C   UNL     1       0.866  13.008  18.850  0.00  0.00    +0.000 C 
ATOM     15  C   UNL     1       1.035  11.971  19.944  0.00  0.00    +0.000 C 
ENDBRANCH  13  15
ENDBRANCH   7  13
ENDBRANCH   1  10
BRANCH   5  16
ATOM     16  N   UNL     1       5.106   4.730  16.074  0.00  0.00    +0.000 N 
ATOM     17  C   UNL     1       6.470   4.759  15.830  0.00  0.00    +0.000 C 
ATOM     18  O   UNL     1       7.339   4.815  16.698  0.00  0.00    +0.000 OA
ATOM     19  H   UNL     1       4.525   4.578  15.256  0.00  0.00    +0.000 HD
BRANCH  17  20
ATOM     20  C   UNL     1       6.822   4.681  14.425  0.00  0.00    +0.000 A 
ATOM     21  C   UNL     1       6.326   3.863  13.426  0.00  0.00    +0.000 A 
ATOM     22  C   UNL     1       7.018   4.194  12.242  0.00  0.00    +0.000 A 
ATOM     23  C   UNL     1       7.899   5.194  12.585  0.00  0.00    +0.000 A 
ATOM     24  O   UNL     1       7.786   5.504  13.904  0.00  0.00    +0.000 OA
ENDBRANCH  17  20
ENDBRANCH   5  16
TORSDOF 5
ENDMDL
MODEL 3
REMARK VINA RESULT:      -7.4      1.045      1.196
REMARK  Name = 
REMARK  6 active torsions:
REMARK  status: ('A' for Active; 'I' for Inactive)
REMARK    1  A    between atoms: C_1  and  C_2
REMARK    2  A    between atoms: C_2  and  O_3
REMARK    3  A    between atoms: O_3  and  C_4
REMARK    4  A    between atoms: C_7  and  C_8
REMARK    5  A    between atoms: C_12  and  N_13
REMARK    6  A    between atoms: C_14  and  C_16
REMARK                            x       y       z     vdW  Elec       q    Type
REMARK                         _______ _______ _______ _____ _____    ______ ____
ROOT
ATOM      1  C   UNL     1       3.252   6.313  18.575  0.00  0.00    +0.000 A 
ATOM      2  C   UNL     1       3.390   5.414  19.645  0.00  0.00    +0.000 A 
ATOM      3  C   UNL     1       4.091   4.219  19.493  0.00  0.00    +0.000 A 
ATOM      4  C   UNL     1       4.660   3.889  18.265  0.00  0.00    +0.000 A 
ATOM      5  C   UNL     1       4.549   4.754  17.175  0.00  0.00    +0.000 A 
ATOM      6  C   UNL     1       3.865   5.965  17.349  0.00  0.00    +0.000 A 
ENDROOT
BRANCH   1  10
ATOM      7  C   UNL     1       1.082   9.861  19.172  0.00  0.00    +0.000 A 
ATOM      8  C   UNL     1       1.661   9.694  17.932  0.00  0.00    +0.000 A 
ATOM      9  C   UNL     1       2.370   8.519  17.690  0.00  0.00    +0.000 A 
ATOM     10  C   UNL     1       2.489   7.570  18.703  0.00  0.00    +0.000 A 
ATOM     11  N   UNL     1       1.910   7.790  19.907  0.00  0.00    +0.000 NA
ATOM     12  N   UNL     1       1.203   8.937  20.145  0.00  0.00    +0.000 NA
BRANCH   7  13
ATOM     13  O   UNL     1       0.404  11.038  19.412  0.00  0.00    +0.000 OA
BRANCH  13  15
ATOM     14  C   UNL     1      -1.725  11.184  18.332  0.00  0.00    +0.000 C 
ATOM     15  C   UNL     1      -0.995  10.817  19.609  0.00  0.00    +0.000 C 
ENDBRANCH  13  15
ENDBRANCH   7  13
ENDBRANCH   1  10
BRANCH   5  16
ATOM     16  N   UNL     1       5.087   4.475  15.904  0.00  0.00    +0.000 N 
ATOM     17  C   UNL     1       6.183   5.083  15.312  0.00  0.00    +0.000 C 
ATOM     18  O   UNL     1       6.877   5.950  15.839  0.00  0.00    +0.000 OA
ATOM     19  H   UNL     1       4.684   3.706  15.378  0.00  0.00    +0.000 HD
BRANCH  17  20
ATOM     20  C   UNL     1       6.492   4.585  13.985  0.00  0.00    +0.000 A 
ATOM     21  C   UNL     1       7.500   4.945  13.110  0.00  0.00    +0.000 A 
ATOM     22  C   UNL     1       7.342   4.152  11.953  0.00  0.00    +0.000 A 
ATOM     23  C   UNL     1       6.246   3.355  12.186  0.00  0.00    +0.000 A 
ATOM     24  O   UNL     1       5.724   3.601  13.417  0.00  0.00    +0.000 OA
ENDBRANCH  17  20
ENDBRANCH   5  16
TORSDOF 5
ENDMDL
MODEL 4
REMARK VINA RESULT:      -7.3      1.320      1.630
REMARK  Name = 
REMARK  6 active torsions:
REMARK  status: ('A' for Active; 'I' for Inactive)
REMARK    1  A    between atoms: C_1  and  C_2
REMARK    2  A    between atoms: C_2  and  O_3
REMARK    3  A    between atoms: O_3  and  C_4
REMARK    4  A    between atoms: C_7  and  C_8
REMARK    5  A    between atoms: C_12  and  N_13
REMARK    6  A    between atoms: C_14  and  C_16
REMARK                            x       y       z     vdW  Elec       q    Type
REMARK                         _______ _______ _______ _____ _____    ______ ____
ROOT
ATOM      1  C   UNL     1       3.209   5.853  18.740  0.00  0.00    +0.000 A 
ATOM      2  C   UNL     1       3.298   4.822  19.690  0.00  0.00    +0.000 A 
ATOM      3  C   UNL     1       3.965   3.633  19.398  0.00  0.00    +0.000 A 
ATOM      4  C   UNL     1       4.548   3.442  18.147  0.00  0.00    +0.000 A 
ATOM      5  C   UNL     1       4.484   4.441  17.174  0.00  0.00    +0.000 A 
ATOM      6  C   UNL     1       3.834   5.643  17.489  0.00  0.00    +0.000 A 
ENDROOT
BRANCH   1  10
ATOM      7  C   UNL     1       1.115   9.454  19.290  0.00  0.00    +0.000 A 
ATOM      8  C   UNL     1       1.255   8.647  20.399  0.00  0.00    +0.000 A 
ATOM      9  C   UNL     1       1.963   7.455  20.260  0.00  0.00    +0.000 A 
ATOM     10  C   UNL     1       2.483   7.108  19.014  0.00  0.00    +0.000 A 
ATOM     11  N   UNL     1       2.306   7.933  17.954  0.00  0.00    +0.000 NA
ATOM     12  N   UNL     1       1.621   9.110  18.090  0.00  0.00    +0.000 NA
BRANCH   7  13
ATOM     13  O   UNL     1       0.391  10.619  19.431  0.00  0.00    +0.000 OA
BRANCH  13  15
ATOM     14  C   UNL     1      -1.668  10.419  18.228  0.00  0.00    +0.000 C 
ATOM     15  C   UNL     1      -1.007  10.361  19.592  0.00  0.00    +0.000 C 
ENDBRANCH  13  15
ENDBRANCH   7  13
ENDBRANCH   1  10
BRANCH   5  16
ATOM     16  N   UNL     1       5.038   4.307  15.886  0.00  0.00    +0.000 N 
ATOM     17  C   UNL     1       6.350   4.555  15.514  0.00  0.00    +0.000 C 
ATOM     18  O   UNL     1       7.245   4.904  16.280  0.00  0.00    +0.000 OA
ATOM     19  H   UNL     1       4.446   3.929  15.153  0.00  0.00    +0.000 HD
BRANCH  17  20
ATOM     20  C   UNL     1       6.617   4.335  14.105  0.00  0.00    +0.000 A 
ATOM     21  C   UNL     1       7.580   4.892  13.283  0.00  0.00    +0.000 A 
ATOM     22  C   UNL     1       7.396   4.335  11.999  0.00  0.00    +0.000 A 
ATOM     23  C   UNL     1       6.330   3.471  12.109  0.00  0.00    +0.000 A 
ATOM     24  O   UNL     1       5.852   3.456  13.383  0.00  0.00    +0.000 OA
ENDBRANCH  17  20
ENDBRANCH   5  16
TORSDOF 5
ENDMDL
MODEL 5
REMARK VINA RESULT:      -7.2      1.680      8.431
REMARK  Name = 
REMARK  6 active torsions:
REMARK  status: ('A' for Active; 'I' for Inactive)
REMARK    1  A    between atoms: C_1  and  C_2
REMARK    2  A    between atoms: C_2  and  O_3
REMARK    3  A    between atoms: O_3  and  C_4
REMARK    4  A    between atoms: C_7  and  C_8
REMARK    5  A    between atoms: C_12  and  N_13
REMARK    6  A    between atoms: C_14  and  C_16
REMARK                            x       y       z     vdW  Elec       q    Type
REMARK                         _______ _______ _______ _____ _____    ______ ____
ROOT
ATOM      1  C   UNL     1       3.850   4.676  19.033  0.00  0.00    +0.000 A 
ATOM      2  C   UNL     1       3.612   3.413  19.600  0.00  0.00    +0.000 A 
ATOM      3  C   UNL     1       2.703   3.255  20.645  0.00  0.00    +0.000 A 
ATOM      4  C   UNL     1       2.019   4.356  21.154  0.00  0.00    +0.000 A 
ATOM      5  C   UNL     1       2.223   5.629  20.619  0.00  0.00    +0.000 A 
ATOM      6  C   UNL     1       3.120   5.770  19.550  0.00  0.00    +0.000 A 
ENDROOT
BRANCH   1  10
ATOM      7  C   UNL     1       6.787   5.099  16.059  0.00  0.00    +0.000 A 
ATOM      8  C   UNL     1       5.507   5.479  15.718  0.00  0.00    +0.000 A 
ATOM      9  C   UNL     1       4.510   5.374  16.686  0.00  0.00    +0.000 A 
ATOM     10  C   UNL     1       4.830   4.873  17.947  0.00  0.00    +0.000 A 
ATOM     11  N   UNL     1       6.102   4.502  18.225  0.00  0.00    +0.000 NA
ATOM     12  N   UNL     1       7.086   4.615  17.280  0.00  0.00    +0.000 NA
BRANCH   7  13
ATOM     13  O   UNL     1       7.762   5.181  15.087  0.00  0.00    +0.000 OA
BRANCH  13  15
ATOM     14  C   UNL     1       8.137   5.512  12.747  0.00  0.00    +0.000 C 
ATOM     15  C   UNL     1       7.250   4.860  13.790  0.00  0.00    +0.000 C 
ENDBRANCH  13  15
ENDBRANCH   7  13
ENDBRANCH   1  10
BRANCH   5  16
ATOM     16  N   UNL     1       1.576   6.786  21.096  0.00  0.00    +0.000 N 
ATOM     17  C   UNL     1       1.460   8.004  20.445  0.00  0.00    +0.000 C 
ATOM     18  O   UNL     1       1.889   8.243  19.318  0.00  0.00    +0.000 OA
ATOM     19  H   UNL     1       1.079   6.720  21.979  0.00  0.00    +0.000 HD
BRANCH  17  20
ATOM     20  C   UNL     1       0.741   9.013  21.200  0.00  0.00    +0.000 A 
ATOM     21  C   UNL     1      -0.106   8.878  22.285  0.00  0.00    +0.000 A 
ATOM     22  C   UNL     1      -0.540  10.176  22.629  0.00  0.00    +0.000 A 
ATOM     23  C   UNL     1       0.063  11.029  21.735  0.00  0.00    +0.000 A 
ATOM     24  O   UNL     1       0.849  10.338  20.866  0.00  0.00    +0.000 OA
ENDBRANCH  17  20
ENDBRANCH   5  16
TORSDOF 5
ENDMDL
MODEL 6
REMARK VINA RESULT:      -7.2      1.751      8.432
REMARK  Name = 
REMARK  6 active torsions:
REMARK  status: ('A' for Active; 'I' for Inactive)
REMARK    1  A    between atoms: C_1  and  C_2
REMARK    2  A    between atoms: C_2  and  O_3
REMARK    3  A    between atoms: O_3  and  C_4
REMARK    4  A    between atoms: C_7  and  C_8
REMARK    5  A    between atoms: C_12  and  N_13
REMARK    6  A    between atoms: C_14  and  C_16
REMARK                            x       y       z     vdW  Elec       q    Type
REMARK                         _______ _______ _______ _____ _____    ______ ____
ROOT
ATOM      1  C   UNL     1       3.864   4.218  19.230  0.00  0.00    +0.000 A 
ATOM      2  C   UNL     1       3.492   2.973  19.764  0.00  0.00    +0.000 A 
ATOM      3  C   UNL     1       2.486   2.875  20.724  0.00  0.00    +0.000 A 
ATOM      4  C   UNL     1       1.836   4.020  21.181  0.00  0.00    +0.000 A 
ATOM      5  C   UNL     1       2.174   5.277  20.677  0.00  0.00    +0.000 A 
ATOM      6  C   UNL     1       3.168   5.358  19.692  0.00  0.00    +0.000 A 
ENDROOT
BRANCH   1  10
ATOM      7  C   UNL     1       6.782   4.578  16.229  0.00  0.00    +0.000 A 
ATOM      8  C   UNL     1       7.163   4.936  17.504  0.00  0.00    +0.000 A 
ATOM      9  C   UNL     1       6.228   4.809  18.530  0.00  0.00    +0.000 A 
ATOM     10  C   UNL     1       4.946   4.350  18.235  0.00  0.00    +0.000 A 
ATOM     11  N   UNL     1       4.621   4.023  16.962  0.00  0.00    +0.000 NA
ATOM     12  N   UNL     1       5.540   4.135  15.954  0.00  0.00    +0.000 NA
BRANCH   7  13
ATOM     13  O   UNL     1       7.705   4.733  15.216  0.00  0.00    +0.000 OA
BRANCH  13  15
ATOM     14  C   UNL     1       8.031   5.422  12.948  0.00  0.00    +0.000 C 
ATOM     15  C   UNL     1       7.083   4.756  13.928  0.00  0.00    +0.000 C 
ENDBRANCH  13  15
ENDBRANCH   7  13
ENDBRANCH   1  10
BRANCH   5  16
ATOM     16  N   UNL     1       1.568   6.474  21.106  0.00  0.00    +0.000 N 
ATOM     17  C   UNL     1       1.586   7.697  20.453  0.00  0.00    +0.000 C 
ATOM     18  O   UNL     1       2.117   7.906  19.365  0.00  0.00    +0.000 OA
ATOM     19  H   UNL     1       0.999   6.442  21.946  0.00  0.00    +0.000 HD
BRANCH  17  20
ATOM     20  C   UNL     1       0.876   8.751  21.153  0.00  0.00    +0.000 A 
ATOM     21  C   UNL     1      -0.022   8.677  22.202  0.00  0.00    +0.000 A 
ATOM     22  C   UNL     1      -0.417   9.999  22.498  0.00  0.00    +0.000 A 
ATOM     23  C   UNL     1       0.259  10.805  21.612  0.00  0.00    +0.000 A 
ATOM     24  O   UNL     1       1.053  10.062  20.794  0.00  0.00    +0.000 OA
ENDBRANCH  17  20
ENDBRANCH   5  16
TORSDOF 5
ENDMDL
MODEL 7
REMARK VINA RESULT:      -7.1      4.496      6.253
REMARK  Name = 
REMARK  6 active torsions:
REMARK  status: ('A' for Active; 'I' for Inactive)
REMARK    1  A    between atoms: C_1  and  C_2
REMARK    2  A    between atoms: C_2  and  O_3
REMARK    3  A    between atoms: O_3  and  C_4
REMARK    4  A    between atoms: C_7  and  C_8
REMARK    5  A    between atoms: C_12  and  N_13
REMARK    6  A    between atoms: C_14  and  C_16
REMARK                            x       y       z     vdW  Elec       q    Type
REMARK                         _______ _______ _______ _____ _____    ______ ____
ROOT
ATOM      1  C   UNL     1       5.198   4.456  16.660  0.00  0.00    +0.000 A 
ATOM      2  C   UNL     1       5.693   3.849  15.494  0.00  0.00    +0.000 A 
ATOM      3  C   UNL     1       6.748   4.416  14.782  0.00  0.00    +0.000 A 
ATOM      4  C   UNL     1       7.327   5.608  15.212  0.00  0.00    +0.000 A 
ATOM      5  C   UNL     1       6.868   6.244  16.366  0.00  0.00    +0.000 A 
ATOM      6  C   UNL     1       5.824   5.649  17.089  0.00  0.00    +0.000 A 
ENDROOT
BRANCH   1  10
ATOM      7  C   UNL     1       1.874   3.063  18.819  0.00  0.00    +0.000 A 
ATOM      8  C   UNL     1       2.634   2.110  18.176  0.00  0.00    +0.000 A 
ATOM      9  C   UNL     1       3.758   2.532  17.467  0.00  0.00    +0.000 A 
ATOM     10  C   UNL     1       4.063   3.890  17.414  0.00  0.00    +0.000 A 
ATOM     11  N   UNL     1       3.275   4.787  18.055  0.00  0.00    +0.000 NA
ATOM     12  N   UNL     1       2.177   4.374  18.762  0.00  0.00    +0.000 NA
BRANCH   7  13
ATOM     13  O   UNL     1       0.749   2.639  19.495  0.00  0.00    +0.000 OA
BRANCH  13  15
ATOM     14  C   UNL     1       1.714   2.556  21.682  0.00  0.00    +0.000 C 
ATOM     15  C   UNL     1       0.666   3.211  20.803  0.00  0.00    +0.000 C 
ENDBRANCH  13  15
ENDBRANCH   7  13
ENDBRANCH   1  10
BRANCH   5  16
ATOM     16  N   UNL     1       7.397   7.457  16.848  0.00  0.00    +0.000 N 
ATOM     17  C   UNL     1       8.029   7.666  18.064  0.00  0.00    +0.000 C 
ATOM     18  O   UNL     1       8.251   6.793  18.900  0.00  0.00    +0.000 OA
ATOM     19  H   UNL     1       7.382   8.260  16.226  0.00  0.00    +0.000 HD
BRANCH  17  20
ATOM     20  C   UNL     1       8.459   9.035  18.280  0.00  0.00    +0.000 A 
ATOM     21  C   UNL     1       8.236  10.169  17.521  0.00  0.00    +0.000 A 
ATOM     22  C   UNL     1       8.882  11.237  18.181  0.00  0.00    +0.000 A 
ATOM     23  C   UNL     1       9.464  10.694  19.303  0.00  0.00    +0.000 A 
ATOM     24  O   UNL     1       9.210   9.360  19.380  0.00  0.00    +0.000 OA
ENDBRANCH  17  20
ENDBRANCH   5  16
TORSDOF 5
ENDMDL
MODEL 8
REMARK VINA RESULT:      -7.0      1.456      1.874
REMARK  Name = 
REMARK  6 active torsions:
REMARK  status: ('A' for Active; 'I' for Inactive)
REMARK    1  A    between atoms: C_1  and  C_2
REMARK    2  A    between atoms: C_2  and  O_3
REMARK    3  A    between atoms: O_3  and  C_4
REMARK    4  A    between atoms: C_7  and  C_8
REMARK    5  A    between atoms: C_12  and  N_13
REMARK    6  A    between atoms: C_14  and  C_16
REMARK                            x       y       z     vdW  Elec       q    Type
REMARK                         _______ _______ _______ _____ _____    ______ ____
ROOT
ATOM      1  C   UNL     1       2.299   6.526  19.740  0.00  0.00    +0.000 A 
ATOM      2  C   UNL     1       2.051   5.451  20.609  0.00  0.00    +0.000 A 
ATOM      3  C   UNL     1       2.549   4.178  20.337  0.00  0.00    +0.000 A 
ATOM      4  C   UNL     1       3.298   3.947  19.186  0.00  0.00    +0.000 A 
ATOM      5  C   UNL     1       3.571   4.986  18.295  0.00  0.00    +0.000 A 
ATOM      6  C   UNL     1       3.087   6.268  18.594  0.00  0.00    +0.000 A 
ENDROOT
BRANCH   1  10
ATOM      7  C   UNL     1       0.739  10.397  20.220  0.00  0.00    +0.000 A 
ATOM      8  C   UNL     1       0.734   9.588  21.336  0.00  0.00    +0.000 A 
ATOM      9  C   UNL     1       1.264   8.304  21.220  0.00  0.00    +0.000 A 
ATOM     10  C   UNL     1       1.757   7.875  19.990  0.00  0.00    +0.000 A 
ATOM     11  N   UNL     1       1.727   8.707  18.922  0.00  0.00    +0.000 NA
ATOM     12  N   UNL     1       1.218   9.973  19.034  0.00  0.00    +0.000 NA
BRANCH   7  13
ATOM     13  O   UNL     1       0.188  11.656  20.336  0.00  0.00    +0.000 OA
BRANCH  13  15
ATOM     14  C   UNL     1       1.991  13.210  20.573  0.00  0.00    +0.000 C 
ATOM     15  C   UNL     1       0.951  12.639  19.630  0.00  0.00    +0.000 C 
ENDBRANCH  13  15
ENDBRANCH   7  13
ENDBRANCH   1  10
BRANCH   5  16
ATOM     16  N   UNL     1       4.308   4.818  17.107  0.00  0.00    +0.000 N 
ATOM     17  C   UNL     1       5.630   5.175  16.889  0.00  0.00    +0.000 C 
ATOM     18  O   UNL     1       6.373   5.671  17.733  0.00  0.00    +0.000 OA
ATOM     19  H   UNL     1       3.862   4.327  16.338  0.00  0.00    +0.000 HD
BRANCH  17  20
ATOM     20  C   UNL     1       6.109   4.883  15.551  0.00  0.00    +0.000 A 
ATOM     21  C   UNL     1       5.548   4.106  14.554  0.00  0.00    +0.000 A 
ATOM     22  C   UNL     1       6.429   4.154  13.452  0.00  0.00    +0.000 A 
ATOM     23  C   UNL     1       7.479   4.955  13.840  0.00  0.00    +0.000 A 
ATOM     24  O   UNL     1       7.295   5.409  15.109  0.00  0.00    +0.000 OA
ENDBRANCH  17  20
ENDBRANCH   5  16
TORSDOF 5
ENDMDL
MODEL 9
REMARK VINA RESULT:      -7.0      1.190      1.479
REMARK  Name = 
REMARK  6 active torsions:
REMARK  status: ('A' for Active; 'I' for Inactive)
REMARK    1  A    between atoms: C_1  and  C_2
REMARK    2  A    between atoms: C_2  and  O_3
REMARK    3  A    between atoms: O_3  and  C_4
REMARK    4  A    between atoms: C_7  and  C_8
REMARK    5  A    between atoms: C_12  and  N_13
REMARK    6  A    between atoms: C_14  and  C_16
REMARK                            x       y       z     vdW  Elec       q    Type
REMARK                         _______ _______ _______ _____ _____    ______ ____
ROOT
ATOM      1  C   UNL     1       3.116   6.167  18.869  0.00  0.00    +0.000 A 
ATOM      2  C   UNL     1       3.208   5.222  19.904  0.00  0.00    +0.000 A 
ATOM      3  C   UNL     1       3.871   4.011  19.714  0.00  0.00    +0.000 A 
ATOM      4  C   UNL     1       4.450   3.711  18.483  0.00  0.00    +0.000 A 
ATOM      5  C   UNL     1       4.384   4.622  17.427  0.00  0.00    +0.000 A 
ATOM      6  C   UNL     1       3.737   5.847  17.639  0.00  0.00    +0.000 A 
ENDROOT
BRANCH   1  10
ATOM      7  C   UNL     1       1.056   9.820  19.111  0.00  0.00    +0.000 A 
ATOM      8  C   UNL     1       1.058   9.037  20.245  0.00  0.00    +0.000 A 
ATOM      9  C   UNL     1       1.750   7.828  20.210  0.00  0.00    +0.000 A 
ATOM     10  C   UNL     1       2.393   7.442  19.036  0.00  0.00    +0.000 A 
ATOM     11  N   UNL     1       2.350   8.244  17.945  0.00  0.00    +0.000 NA
ATOM     12  N   UNL     1       1.681   9.438  17.980  0.00  0.00    +0.000 NA
BRANCH   7  13
ATOM     13  O   UNL     1       0.347  11.002  19.147  0.00  0.00    +0.000 OA
BRANCH  13  15
ATOM     14  C   UNL     1       1.811  12.727  19.924  0.00  0.00    +0.000 C 
ATOM     15  C   UNL     1       0.679  11.789  20.295  0.00  0.00    +0.000 C 
ENDBRANCH  13  15
ENDBRANCH   7  13
ENDBRANCH   1  10
BRANCH   5  16
ATOM     16  N   UNL     1       4.933   4.376  16.154  0.00  0.00    +0.000 N 
ATOM     17  C   UNL     1       5.896   5.130  15.502  0.00  0.00    +0.000 C 
ATOM     18  O   UNL     1       6.445   6.126  15.969  0.00  0.00    +0.000 OA
ATOM     19  H   UNL     1       4.654   3.525  15.674  0.00  0.00    +0.000 HD
BRANCH  17  20
ATOM     20  C   UNL     1       6.255   4.626  14.190  0.00  0.00    +0.000 A 
ATOM     21  C   UNL     1       7.364   4.890  13.407  0.00  0.00    +0.000 A 
ATOM     22  C   UNL     1       7.215   4.142  12.219  0.00  0.00    +0.000 A 
ATOM     23  C   UNL     1       6.023   3.466  12.343  0.00  0.00    +0.000 A 
ATOM     24  O   UNL     1       5.433   3.745  13.537  0.00  0.00    +0.000 OA
ENDBRANCH  17  20
ENDBRANCH   5  16
TORSDOF 5
ENDMDL
