MODEL 1
REMARK VINA RESULT:      -6.9      0.000      0.000
REMARK  Name = 
REMARK  9 active torsions:
REMARK  status: ('A' for Active; 'I' for Inactive)
REMARK    1  A    between atoms: C_1  and  O_2
REMARK    2  A    between atoms: O_2  and  C_3
REMARK    3  A    between atoms: C_7  and  C_8
REMARK    4  A    between atoms: C_8  and  N_9
REMARK    5  A    between atoms: N_9  and  C_10
REMARK    6  A    between atoms: C_11  and  C_13
REMARK    7  A    between atoms: C_16  and  C_17
REMARK    8  A    between atoms: C_21  and  O_22
REMARK    9  A    between atoms: O_22  and  C_23
REMARK                            x       y       z     vdW  Elec       q    Type
REMARK                         _______ _______ _______ _____ _____    ______ ____
ROOT
ATOM      1  N   UNL     1      -0.781  11.127  18.800  0.00  0.00    +0.000 N 
ATOM      2  C   UNL     1      -1.664  10.029  18.418  0.00  0.00    +0.000 C 
ATOM      3  C   UNL     1       0.493  10.991  19.392  0.00  0.00    +0.000 C 
ATOM      4  O   UNL     1       1.059  11.976  19.869  0.00  0.00    +0.000 OA
ENDROOT
BRANCH   3   5
ATOM      5  C   UNL     1       1.117   9.670  19.435  0.00  0.00    +0.000 A 
ATOM      6  C   UNL     1       1.123   8.720  20.436  0.00  0.00    +0.000 A 
ATOM      7  C   UNL     1       1.962   7.617  20.128  0.00  0.00    +0.000 A 
ATOM      8  C   UNL     1       2.379   7.607  18.808  0.00  0.00    +0.000 A 
ATOM      9  S   UNL     1       1.911   9.065  18.030  0.00  0.00    +0.000 S 
BRANCH   8  10
ATOM     10  C   UNL     1       3.068   6.506  18.105  0.00  0.00    +0.000 A 
ATOM     11  C   UNL     1       4.268   6.658  17.403  0.00  0.00    +0.000 A 
ATOM     12  C   UNL     1       4.856   5.559  16.764  0.00  0.00    +0.000 A 
ATOM     13  C   UNL     1       4.256   4.300  16.825  0.00  0.00    +0.000 A 
ATOM     14  C   UNL     1       3.060   4.124  17.516  0.00  0.00    +0.000 A 
ATOM     15  C   UNL     1       2.476   5.227  18.139  0.00  0.00    +0.000 A 
BRANCH  14  16
ATOM     16  O   UNL     1       2.550   2.854  17.511  0.00  0.00    +0.000 OA
ATOM     17  C   UNL     1       3.397   1.824  18.010  0.00  0.00    +0.000 C 
ENDBRANCH  14  16
ENDBRANCH   8  10
ENDBRANCH   3   5
BRANCH   1  18
ATOM     18  C   UNL     1      -1.419  12.441  18.866  0.00  0.00    +0.000 C 
BRANCH  18  23
ATOM     19  C   UNL     1      -4.740  12.656  20.745  0.00  0.00    +0.000 A 
ATOM     20  C   UNL     1      -4.301  12.729  22.067  0.00  0.00    +0.000 A 
ATOM     21  C   UNL     1      -2.936  12.718  22.354  0.00  0.00    +0.000 A 
ATOM     22  C   UNL     1      -2.005  12.635  21.319  0.00  0.00    +0.000 A 
ATOM     23  C   UNL     1      -2.429  12.541  19.982  0.00  0.00    +0.000 A 
ATOM     24  C   UNL     1      -3.809  12.527  19.711  0.00  0.00    +0.000 A 
BRANCH  19  26
ATOM     25  C   UNL     1      -6.785  13.615  21.423  0.00  0.00    +0.000 C 
ATOM     26  O   UNL     1      -6.098  12.700  20.575  0.00  0.00    +0.000 OA
ENDBRANCH  19  26
ENDBRANCH  18  23
ENDBRANCH   1  18
TORSDOF 6
ENDMDL
MODEL 2
REMARK VINA RESULT:      -6.9      2.845     10.099
REMARK  Name = 
REMARK  9 active torsions:
REMARK  status: ('A' for Active; 'I' for Inactive)
REMARK    1  A    between atoms: C_1  and  O_2
REMARK    2  A    between atoms: O_2  and  C_3
REMARK    3  A    between atoms: C_7  and  C_8
REMARK    4  A    between atoms: C_8  and  N_9
REMARK    5  A    between atoms: N_9  and  C_10
REMARK    6  A    between atoms: C_11  and  C_13
REMARK    7  A    between atoms: C_16  and  C_17
REMARK    8  A    between atoms: C_21  and  O_22
REMARK    9  A    between atoms: O_22  and  C_23
REMARK                            x       y       z     vdW  Elec       q    Type
REMARK                         _______ _______ _______ _____ _____    ______ ____
ROOT
ATOM      1  N   UNL     1       2.414   6.234  19.261  0.00  0.00    +0.000 N 
ATOM      2  C   UNL     1       1.845   5.415  20.328  0.00  0.00    +0.000 C 
ATOM      3  C   UNL     1       2.220   7.622  19.096  0.00  0.00    +0.000 C 
ATOM      4  O   UNL     1       2.567   8.173  18.049  0.00  0.00    +0.000 OA
ENDROOT
BRANCH   3   5
ATOM      5  C   UNL     1       1.599   8.385  20.177  0.00  0.00    +0.000 A 
ATOM      6  C   UNL     1       1.617   8.173  21.541  0.00  0.00    +0.000 A 
ATOM      7  C   UNL     1       0.774   9.076  22.238  0.00  0.00    +0.000 A 
ATOM      8  C   UNL     1       0.327  10.120  21.446  0.00  0.00    +0.000 A 
ATOM      9  S   UNL     1       0.775   9.853  19.810  0.00  0.00    +0.000 S 
BRANCH   8  10
ATOM     10  C   UNL     1      -0.375  11.338  21.898  0.00  0.00    +0.000 A 
ATOM     11  C   UNL     1       0.017  12.637  21.559  0.00  0.00    +0.000 A 
ATOM     12  C   UNL     1      -0.708  13.739  22.030  0.00  0.00    +0.000 A 
ATOM     13  C   UNL     1      -1.832  13.555  22.837  0.00  0.00    +0.000 A 
ATOM     14  C   UNL     1      -2.240  12.271  23.192  0.00  0.00    +0.000 A 
ATOM     15  C   UNL     1      -1.505  11.181  22.727  0.00  0.00    +0.000 A 
BRANCH  14  16
ATOM     16  O   UNL     1      -3.349  12.198  23.991  0.00  0.00    +0.000 OA
ATOM     17  C   UNL     1      -4.430  13.066  23.665  0.00  0.00    +0.000 C 
ENDBRANCH  14  16
ENDBRANCH   8  10
ENDBRANCH   3   5
BRANCH   1  18
ATOM     18  C   UNL     1       2.944   5.486  18.122  0.00  0.00    +0.000 C 
BRANCH  18  23
ATOM     19  C   UNL     1       6.511   5.690  16.766  0.00  0.00    +0.000 A 
ATOM     20  C   UNL     1       7.256   5.574  17.941  0.00  0.00    +0.000 A 
ATOM     21  C   UNL     1       6.610   5.422  19.167  0.00  0.00    +0.000 A 
ATOM     22  C   UNL     1       5.218   5.384  19.225  0.00  0.00    +0.000 A 
ATOM     23  C   UNL     1       4.451   5.517  18.055  0.00  0.00    +0.000 A 
ATOM     24  C   UNL     1       5.115   5.696  16.829  0.00  0.00    +0.000 A 
BRANCH  19  26
ATOM     25  C   UNL     1       6.990   4.813  14.631  0.00  0.00    +0.000 C 
ATOM     26  O   UNL     1       7.244   5.809  15.616  0.00  0.00    +0.000 OA
ENDBRANCH  19  26
ENDBRANCH  18  23
ENDBRANCH   1  18
TORSDOF 6
ENDMDL
MODEL 3
REMARK VINA RESULT:      -6.9      1.402      2.018
REMARK  Name = 
REMARK  9 active torsions:
REMARK  status: ('A' for Active; 'I' for Inactive)
REMARK    1  A    between atoms: C_1  and  O_2
REMARK    2  A    between atoms: O_2  and  C_3
REMARK    3  A    between atoms: C_7  and  C_8
REMARK    4  A    between atoms: C_8  and  N_9
REMARK    5  A    between atoms: N_9  and  C_10
REMARK    6  A    between atoms: C_11  and  C_13
REMARK    7  A    between atoms: C_16  and  C_17
REMARK    8  A    between atoms: C_21  and  O_22
REMARK    9  A    between atoms: O_22  and  C_23
REMARK                            x       y       z     vdW  Elec       q    Type
REMARK                         _______ _______ _______ _____ _____    ______ ____
ROOT
ATOM      1  N   UNL     1      -0.529  11.601  19.009  0.00  0.00    +0.000 N 
ATOM      2  C   UNL     1      -1.517  10.635  18.537  0.00  0.00    +0.000 C 
ATOM      3  C   UNL     1       0.813  11.314  19.336  0.00  0.00    +0.000 C 
ATOM      4  O   UNL     1       1.497  12.153  19.925  0.00  0.00    +0.000 OA
ENDROOT
BRANCH   3   5
ATOM      5  C   UNL     1       1.368  10.012  18.972  0.00  0.00    +0.000 A 
ATOM      6  C   UNL     1       2.062   9.622  17.845  0.00  0.00    +0.000 A 
ATOM      7  C   UNL     1       2.313   8.226  17.821  0.00  0.00    +0.000 A 
ATOM      8  C   UNL     1       2.044   7.607  19.030  0.00  0.00    +0.000 A 
ATOM      9  S   UNL     1       1.286   8.713  20.103  0.00  0.00    +0.000 S 
BRANCH   8  10
ATOM     10  C   UNL     1       2.396   6.227  19.416  0.00  0.00    +0.000 A 
ATOM     11  C   UNL     1       1.935   5.598  20.577  0.00  0.00    +0.000 A 
ATOM     12  C   UNL     1       2.317   4.283  20.868  0.00  0.00    +0.000 A 
ATOM     13  C   UNL     1       3.156   3.581  20.002  0.00  0.00    +0.000 A 
ATOM     14  C   UNL     1       3.632   4.185  18.841  0.00  0.00    +0.000 A 
ATOM     15  C   UNL     1       3.255   5.499  18.565  0.00  0.00    +0.000 A 
BRANCH  14  16
ATOM     16  O   UNL     1       4.453   3.416  18.061  0.00  0.00    +0.000 OA
ATOM     17  C   UNL     1       4.984   4.032  16.892  0.00  0.00    +0.000 C 
ENDBRANCH  14  16
ENDBRANCH   8  10
ENDBRANCH   3   5
BRANCH   1  18
ATOM     18  C   UNL     1      -1.082  12.872  19.477  0.00  0.00    +0.000 C 
BRANCH  18  23
ATOM     19  C   UNL     1      -4.065  12.846  21.866  0.00  0.00    +0.000 A 
ATOM     20  C   UNL     1      -3.460  12.431  23.053  0.00  0.00    +0.000 A 
ATOM     21  C   UNL     1      -2.091  12.168  23.086  0.00  0.00    +0.000 A 
ATOM     22  C   UNL     1      -1.321  12.320  21.934  0.00  0.00    +0.000 A 
ATOM     23  C   UNL     1      -1.916  12.719  20.725  0.00  0.00    +0.000 A 
ATOM     24  C   UNL     1      -3.301  12.955  20.700  0.00  0.00    +0.000 A 
BRANCH  19  26
ATOM     25  C   UNL     1      -6.229  12.296  21.111  0.00  0.00    +0.000 C 
ATOM     26  O   UNL     1      -5.407  13.101  21.949  0.00  0.00    +0.000 OA
ENDBRANCH  19  26
ENDBRANCH  18  23
ENDBRANCH   1  18
TORSDOF 6
ENDMDL
MODEL 4
REMARK VINA RESULT:      -6.8      1.146      1.771
REMARK  Name = 
REMARK  9 active torsions:
REMARK  status: ('A' for Active; 'I' for Inactive)
REMARK    1  A    between atoms: C_1  and  O_2
REMARK    2  A    between atoms: O_2  and  C_3
REMARK    3  A    between atoms: C_7  and  C_8
REMARK    4  A    between atoms: C_8  and  N_9
REMARK    5  A    between atoms: N_9  and  C_10
REMARK    6  A    between atoms: C_11  and  C_13
REMARK    7  A    between atoms: C_16  and  C_17
REMARK    8  A    between atoms: C_21  and  O_22
REMARK    9  A    between atoms: O_22  and  C_23
REMARK                            x       y       z     vdW  Elec       q    Type
REMARK                         _______ _______ _______ _____ _____    ______ ____
ROOT
ATOM      1  N   UNL     1      -0.616  11.171  19.279  0.00  0.00    +0.000 N 
ATOM      2  C   UNL     1      -1.552  10.173  18.768  0.00  0.00    +0.000 C 
ATOM      3  C   UNL     1       0.619  10.897  19.904  0.00  0.00    +0.000 C 
ATOM      4  O   UNL     1       1.227  11.798  20.487  0.00  0.00    +0.000 OA
ENDROOT
BRANCH   3   5
ATOM      5  C   UNL     1       1.153   9.538  19.855  0.00  0.00    +0.000 A 
ATOM      6  C   UNL     1       1.116   8.532  20.799  0.00  0.00    +0.000 A 
ATOM      7  C   UNL     1       1.871   7.396  20.407  0.00  0.00    +0.000 A 
ATOM      8  C   UNL     1       2.258   7.436  19.078  0.00  0.00    +0.000 A 
ATOM      9  S   UNL     1       1.873   8.965  18.397  0.00  0.00    +0.000 S 
BRANCH   8  10
ATOM     10  C   UNL     1       2.854   6.336  18.295  0.00  0.00    +0.000 A 
ATOM     11  C   UNL     1       2.305   5.053  18.207  0.00  0.00    +0.000 A 
ATOM     12  C   UNL     1       2.935   4.066  17.439  0.00  0.00    +0.000 A 
ATOM     13  C   UNL     1       4.114   4.351  16.748  0.00  0.00    +0.000 A 
ATOM     14  C   UNL     1       4.683   5.620  16.822  0.00  0.00    +0.000 A 
ATOM     15  C   UNL     1       4.053   6.593  17.599  0.00  0.00    +0.000 A 
BRANCH  14  16
ATOM     16  O   UNL     1       5.841   5.797  16.115  0.00  0.00    +0.000 OA
ATOM     17  C   UNL     1       7.058   5.693  16.846  0.00  0.00    +0.000 C 
ENDBRANCH  14  16
ENDBRANCH   8  10
ENDBRANCH   3   5
BRANCH   1  18
ATOM     18  C   UNL     1      -1.169  12.516  19.435  0.00  0.00    +0.000 C 
BRANCH  18  23
ATOM     19  C   UNL     1      -4.556  12.919  21.159  0.00  0.00    +0.000 A 
ATOM     20  C   UNL     1      -4.208  12.715  22.495  0.00  0.00    +0.000 A 
ATOM     21  C   UNL     1      -2.882  12.457  22.842  0.00  0.00    +0.000 A 
ATOM     22  C   UNL     1      -1.899  12.402  21.854  0.00  0.00    +0.000 A 
ATOM     23  C   UNL     1      -2.234  12.586  20.502  0.00  0.00    +0.000 A 
ATOM     24  C   UNL     1      -3.579  12.819  20.165  0.00  0.00    +0.000 A 
BRANCH  19  26
ATOM     25  C   UNL     1      -6.774  12.122  21.225  0.00  0.00    +0.000 C 
ATOM     26  O   UNL     1      -5.879  13.190  20.933  0.00  0.00    +0.000 OA
ENDBRANCH  19  26
ENDBRANCH  18  23
ENDBRANCH   1  18
TORSDOF 6
ENDMDL
MODEL 5
REMARK VINA RESULT:      -6.8      2.586     10.113
REMARK  Name = 
REMARK  9 active torsions:
REMARK  status: ('A' for Active; 'I' for Inactive)
REMARK    1  A    between atoms: C_1  and  O_2
REMARK    2  A    between atoms: O_2  and  C_3
REMARK    3  A    between atoms: C_7  and  C_8
REMARK    4  A    between atoms: C_8  and  N_9
REMARK    5  A    between atoms: N_9  and  C_10
REMARK    6  A    between atoms: C_11  and  C_13
REMARK    7  A    between atoms: C_16  and  C_17
REMARK    8  A    between atoms: C_21  and  O_22
REMARK    9  A    between atoms: O_22  and  C_23
REMARK                            x       y       z     vdW  Elec       q    Type
REMARK                         _______ _______ _______ _____ _____    ______ ____
ROOT
ATOM      1  N   UNL     1       1.960   7.891  19.300  0.00  0.00    +0.000 N 
ATOM      2  C   UNL     1       1.770   6.867  20.323  0.00  0.00    +0.000 C 
ATOM      3  C   UNL     1       1.412   9.191  19.324  0.00  0.00    +0.000 C 
ATOM      4  O   UNL     1       1.457   9.898  18.315  0.00  0.00    +0.000 OA
ENDROOT
BRANCH   3   5
ATOM      5  C   UNL     1       0.790   9.675  20.555  0.00  0.00    +0.000 A 
ATOM      6  C   UNL     1       0.948   9.252  21.859  0.00  0.00    +0.000 A 
ATOM      7  C   UNL     1       0.056   9.904  22.749  0.00  0.00    +0.000 A 
ATOM      8  C   UNL     1      -0.585  10.988  22.176  0.00  0.00    +0.000 A 
ATOM      9  S   UNL     1      -0.244  11.053  20.494  0.00  0.00    +0.000 S 
BRANCH   8  10
ATOM     10  C   UNL     1      -1.398  12.007  22.870  0.00  0.00    +0.000 A 
ATOM     11  C   UNL     1      -0.998  13.334  23.053  0.00  0.00    +0.000 A 
ATOM     12  C   UNL     1      -1.832  14.237  23.724  0.00  0.00    +0.000 A 
ATOM     13  C   UNL     1      -3.075  13.827  24.210  0.00  0.00    +0.000 A 
ATOM     14  C   UNL     1      -3.495  12.510  24.042  0.00  0.00    +0.000 A 
ATOM     15  C   UNL     1      -2.652  11.615  23.384  0.00  0.00    +0.000 A 
BRANCH  14  16
ATOM     16  O   UNL     1      -4.725  12.206  24.560  0.00  0.00    +0.000 OA
ATOM     17  C   UNL     1      -5.842  12.883  23.993  0.00  0.00    +0.000 C 
ENDBRANCH  14  16
ENDBRANCH   8  10
ENDBRANCH   3   5
BRANCH   1  18
ATOM     18  C   UNL     1       2.482   7.402  18.025  0.00  0.00    +0.000 C 
BRANCH  18  23
ATOM     19  C   UNL     1       4.985   4.564  18.561  0.00  0.00    +0.000 A 
ATOM     20  C   UNL     1       4.183   3.446  18.331  0.00  0.00    +0.000 A 
ATOM     21  C   UNL     1       2.839   3.605  17.994  0.00  0.00    +0.000 A 
ATOM     22  C   UNL     1       2.292   4.883  17.886  0.00  0.00    +0.000 A 
ATOM     23  C   UNL     1       3.080   6.021  18.133  0.00  0.00    +0.000 A 
ATOM     24  C   UNL     1       4.426   5.843  18.496  0.00  0.00    +0.000 A 
BRANCH  19  26
ATOM     25  C   UNL     1       7.234   4.688  17.864  0.00  0.00    +0.000 C 
ATOM     26  O   UNL     1       6.294   4.295  18.859  0.00  0.00    +0.000 OA
ENDBRANCH  19  26
ENDBRANCH  18  23
ENDBRANCH   1  18
TORSDOF 6
ENDMDL
MODEL 6
REMARK VINA RESULT:      -6.8      1.571      2.333
REMARK  Name = 
REMARK  9 active torsions:
REMARK  status: ('A' for Active; 'I' for Inactive)
REMARK    1  A    between atoms: C_1  and  O_2
REMARK    2  A    between atoms: O_2  and  C_3
REMARK    3  A    between atoms: C_7  and  C_8
REMARK    4  A    between atoms: C_8  and  N_9
REMARK    5  A    between atoms: N_9  and  C_10
REMARK    6  A    between atoms: C_11  and  C_13
REMARK    7  A    between atoms: C_16  and  C_17
REMARK    8  A    between atoms: C_21  and  O_22
REMARK    9  A    between atoms: O_22  and  C_23
REMARK                            x       y       z     vdW  Elec       q    Type
REMARK                         _______ _______ _______ _____ _____    ______ ____
ROOT
ATOM      1  N   UNL     1      -0.229  11.093  19.674  0.00  0.00    +0.000 N 
ATOM      2  C   UNL     1      -1.169  10.272  18.915  0.00  0.00    +0.000 C 
ATOM      3  C   UNL     1       0.843  10.610  20.453  0.00  0.00    +0.000 C 
ATOM      4  O   UNL     1       1.439  11.369  21.220  0.00  0.00    +0.000 OA
ENDROOT
BRANCH   3   5
ATOM      5  C   UNL     1       1.225   9.204  20.339  0.00  0.00    +0.000 A 
ATOM      6  C   UNL     1       1.065   8.163  21.231  0.00  0.00    +0.000 A 
ATOM      7  C   UNL     1       1.696   6.972  20.789  0.00  0.00    +0.000 A 
ATOM      8  C   UNL     1       2.102   7.034  19.467  0.00  0.00    +0.000 A 
ATOM      9  S   UNL     1       1.897   8.627  18.861  0.00  0.00    +0.000 S 
BRANCH   8  10
ATOM     10  C   UNL     1       2.585   5.914  18.634  0.00  0.00    +0.000 A 
ATOM     11  C   UNL     1       1.876   4.725  18.437  0.00  0.00    +0.000 A 
ATOM     12  C   UNL     1       2.406   3.712  17.629  0.00  0.00    +0.000 A 
ATOM     13  C   UNL     1       3.644   3.878  17.005  0.00  0.00    +0.000 A 
ATOM     14  C   UNL     1       4.371   5.052  17.188  0.00  0.00    +0.000 A 
ATOM     15  C   UNL     1       3.839   6.050  18.004  0.00  0.00    +0.000 A 
BRANCH  14  16
ATOM     16  O   UNL     1       5.574   5.115  16.540  0.00  0.00    +0.000 OA
ATOM     17  C   UNL     1       5.572   5.703  15.243  0.00  0.00    +0.000 C 
ENDBRANCH  14  16
ENDBRANCH   8  10
ENDBRANCH   3   5
BRANCH   1  18
ATOM     18  C   UNL     1      -0.650  12.477  19.888  0.00  0.00    +0.000 C 
BRANCH  18  23
ATOM     19  C   UNL     1      -3.251  12.244  22.679  0.00  0.00    +0.000 A 
ATOM     20  C   UNL     1      -4.377  12.773  22.047  0.00  0.00    +0.000 A 
ATOM     21  C   UNL     1      -4.301  13.197  20.721  0.00  0.00    +0.000 A 
ATOM     22  C   UNL     1      -3.100  13.093  20.020  0.00  0.00    +0.000 A 
ATOM     23  C   UNL     1      -1.951  12.579  20.646  0.00  0.00    +0.000 A 
ATOM     24  C   UNL     1      -2.036  12.180  21.991  0.00  0.00    +0.000 A 
BRANCH  19  26
ATOM     25  C   UNL     1      -4.414  12.574  24.702  0.00  0.00    +0.000 C 
ATOM     26  O   UNL     1      -3.441  11.835  23.971  0.00  0.00    +0.000 OA
ENDBRANCH  19  26
ENDBRANCH  18  23
ENDBRANCH   1  18
TORSDOF 6
ENDMDL
MODEL 7
REMARK VINA RESULT:      -6.7      2.259      9.278
REMARK  Name = 
REMARK  9 active torsions:
REMARK  status: ('A' for Active; 'I' for Inactive)
REMARK    1  A    between atoms: C_1  and  O_2
REMARK    2  A    between atoms: O_2  and  C_3
REMARK    3  A    between atoms: C_7  and  C_8
REMARK    4  A    between atoms: C_8  and  N_9
REMARK    5  A    between atoms: N_9  and  C_10
REMARK    6  A    between atoms: C_11  and  C_13
REMARK    7  A    between atoms: C_16  and  C_17
REMARK    8  A    between atoms: C_21  and  O_22
REMARK    9  A    between atoms: O_22  and  C_23
REMARK                            x       y       z     vdW  Elec       q    Type
REMARK                         _______ _______ _______ _____ _____    ______ ____
ROOT
ATOM      1  N   UNL     1       1.887   8.367  19.553  0.00  0.00    +0.000 N 
ATOM      2  C   UNL     1       1.161   8.248  20.814  0.00  0.00    +0.000 C 
ATOM      3  C   UNL     1       1.503   9.163  18.453  0.00  0.00    +0.000 C 
ATOM      4  O   UNL     1       2.067   9.026  17.365  0.00  0.00    +0.000 OA
ENDROOT
BRANCH   3   5
ATOM      5  C   UNL     1       0.428  10.139  18.626  0.00  0.00    +0.000 A 
ATOM      6  C   UNL     1       0.470  11.435  19.097  0.00  0.00    +0.000 A 
ATOM      7  C   UNL     1      -0.824  12.002  19.231  0.00  0.00    +0.000 A 
ATOM      8  C   UNL     1      -1.812  11.245  18.625  0.00  0.00    +0.000 A 
ATOM      9  S   UNL     1      -1.163   9.746  18.093  0.00  0.00    +0.000 S 
BRANCH   8  10
ATOM     10  C   UNL     1      -3.213  11.644  18.385  0.00  0.00    +0.000 A 
ATOM     11  C   UNL     1      -3.877  11.471  17.166  0.00  0.00    +0.000 A 
ATOM     12  C   UNL     1      -5.209  11.877  17.024  0.00  0.00    +0.000 A 
ATOM     13  C   UNL     1      -5.893  12.452  18.096  0.00  0.00    +0.000 A 
ATOM     14  C   UNL     1      -5.253  12.638  19.319  0.00  0.00    +0.000 A 
ATOM     15  C   UNL     1      -3.922  12.241  19.448  0.00  0.00    +0.000 A 
BRANCH  14  16
ATOM     16  O   UNL     1      -6.007  13.216  20.304  0.00  0.00    +0.000 OA
ATOM     17  C   UNL     1      -5.311  14.019  21.253  0.00  0.00    +0.000 C 
ENDBRANCH  14  16
ENDBRANCH   8  10
ENDBRANCH   3   5
BRANCH   1  18
ATOM     18  C   UNL     1       2.893   7.332  19.318  0.00  0.00    +0.000 C 
BRANCH  18  23
ATOM     19  C   UNL     1       1.333   3.922  20.055  0.00  0.00    +0.000 A 
ATOM     20  C   UNL     1       1.159   3.417  18.766  0.00  0.00    +0.000 A 
ATOM     21  C   UNL     1       1.552   4.170  17.661  0.00  0.00    +0.000 A 
ATOM     22  C   UNL     1       2.122   5.431  17.839  0.00  0.00    +0.000 A 
ATOM     23  C   UNL     1       2.287   5.963  19.129  0.00  0.00    +0.000 A 
ATOM     24  C   UNL     1       1.862   5.203  20.233  0.00  0.00    +0.000 A 
BRANCH  19  26
ATOM     25  C   UNL     1       1.995   2.509  21.822  0.00  0.00    +0.000 C 
ATOM     26  O   UNL     1       0.936   3.092  21.069  0.00  0.00    +0.000 OA
ENDBRANCH  19  26
ENDBRANCH  18  23
ENDBRANCH   1  18
TORSDOF 6
ENDMDL
MODEL 8
REMARK VINA RESULT:      -6.7      3.282     10.674
REMARK  Name = 
REMARK  9 active torsions:
REMARK  status: ('A' for Active; 'I' for Inactive)
REMARK    1  A    between atoms: C_1  and  O_2
REMARK    2  A    between atoms: O_2  and  C_3
REMARK    3  A    between atoms: C_7  and  C_8
REMARK    4  A    between atoms: C_8  and  N_9
REMARK    5  A    between atoms: N_9  and  C_10
REMARK    6  A    between atoms: C_11  and  C_13
REMARK    7  A    between atoms: C_16  and  C_17
REMARK    8  A    between atoms: C_21  and  O_22
REMARK    9  A    between atoms: O_22  and  C_23
REMARK                            x       y       z     vdW  Elec       q    Type
REMARK                         _______ _______ _______ _____ _____    ______ ____
ROOT
ATOM      1  N   UNL     1       4.884   5.716  17.483  0.00  0.00    +0.000 N 
ATOM      2  C   UNL     1       5.755   6.851  17.779  0.00  0.00    +0.000 C 
ATOM      3  C   UNL     1       3.513   5.625  17.803  0.00  0.00    +0.000 C 
ATOM      4  O   UNL     1       2.927   4.545  17.701  0.00  0.00    +0.000 OA
ENDROOT
BRANCH   3   5
ATOM      5  C   UNL     1       2.810   6.822  18.260  0.00  0.00    +0.000 A 
ATOM      6  C   UNL     1       2.429   7.951  17.564  0.00  0.00    +0.000 A 
ATOM      7  C   UNL     1       1.880   8.947  18.412  0.00  0.00    +0.000 A 
ATOM      8  C   UNL     1       1.608   8.482  19.687  0.00  0.00    +0.000 A 
ATOM      9  S   UNL     1       2.233   6.895  19.882  0.00  0.00    +0.000 S 
BRANCH   8  10
ATOM     10  C   UNL     1       0.842   9.179  20.740  0.00  0.00    +0.000 A 
ATOM     11  C   UNL     1       0.834   8.794  22.085  0.00  0.00    +0.000 A 
ATOM     12  C   UNL     1       0.079   9.512  23.020  0.00  0.00    +0.000 A 
ATOM     13  C   UNL     1      -0.668  10.623  22.625  0.00  0.00    +0.000 A 
ATOM     14  C   UNL     1      -0.680  11.024  21.291  0.00  0.00    +0.000 A 
ATOM     15  C   UNL     1       0.066  10.296  20.365  0.00  0.00    +0.000 A 
BRANCH  14  16
ATOM     16  O   UNL     1      -1.448  12.120  21.004  0.00  0.00    +0.000 OA
ATOM     17  C   UNL     1      -2.141  12.105  19.761  0.00  0.00    +0.000 C 
ENDBRANCH  14  16
ENDBRANCH   8  10
ENDBRANCH   3   5
BRANCH   1  18
ATOM     18  C   UNL     1       5.579   4.479  17.127  0.00  0.00    +0.000 C 
BRANCH  18  23
ATOM     19  C   UNL     1       7.475   5.017  13.853  0.00  0.00    +0.000 A 
ATOM     20  C   UNL     1       6.668   4.321  12.953  0.00  0.00    +0.000 A 
ATOM     21  C   UNL     1       5.509   3.687  13.398  0.00  0.00    +0.000 A 
ATOM     22  C   UNL     1       5.152   3.746  14.745  0.00  0.00    +0.000 A 
ATOM     23  C   UNL     1       5.963   4.426  15.669  0.00  0.00    +0.000 A 
ATOM     24  C   UNL     1       7.142   5.039  15.210  0.00  0.00    +0.000 A 
BRANCH  19  26
ATOM     25  C   UNL     1       8.369   6.208  12.025  0.00  0.00    +0.000 C 
ATOM     26  O   UNL     1       8.575   5.624  13.307  0.00  0.00    +0.000 OA
ENDBRANCH  19  26
ENDBRANCH  18  23
ENDBRANCH   1  18
TORSDOF 6
ENDMDL
MODEL 9
REMARK VINA RESULT:      -6.7      3.148      9.750
REMARK  Name = 
REMARK  9 active torsions:
REMARK  status: ('A' for Active; 'I' for Inactive)
REMARK    1  A    between atoms: C_1  and  O_2
REMARK    2  A    between atoms: O_2  and  C_3
REMARK    3  A    between atoms: C_7  and  C_8
REMARK    4  A    between atoms: C_8  and  N_9
REMARK    5  A    between atoms: N_9  and  C_10
REMARK    6  A    between atoms: C_11  and  C_13
REMARK    7  A    between atoms: C_16  and  C_17
REMARK    8  A    between atoms: C_21  and  O_22
REMARK    9  A    between atoms: O_22  and  C_23
REMARK                            x       y       z     vdW  Elec       q    Type
REMARK                         _______ _______ _______ _____ _____    ______ ____
ROOT
ATOM      1  N   UNL     1       3.028   4.801  18.513  0.00  0.00    +0.000 N 
ATOM      2  C   UNL     1       1.838   4.799  17.667  0.00  0.00    +0.000 C 
ATOM      3  C   UNL     1       3.425   5.846  19.374  0.00  0.00    +0.000 C 
ATOM      4  O   UNL     1       4.551   5.837  19.876  0.00  0.00    +0.000 OA
ENDROOT
BRANCH   3   5
ATOM      5  C   UNL     1       2.487   6.933  19.649  0.00  0.00    +0.000 A 
ATOM      6  C   UNL     1       1.717   7.183  20.766  0.00  0.00    +0.000 A 
ATOM      7  C   UNL     1       0.836   8.278  20.580  0.00  0.00    +0.000 A 
ATOM      8  C   UNL     1       1.116   9.010  19.438  0.00  0.00    +0.000 A 
ATOM      9  S   UNL     1       2.316   8.211  18.505  0.00  0.00    +0.000 S 
BRANCH   8  10
ATOM     10  C   UNL     1       0.547  10.320  19.063  0.00  0.00    +0.000 A 
ATOM     11  C   UNL     1       1.281  11.510  19.030  0.00  0.00    +0.000 A 
ATOM     12  C   UNL     1       0.663  12.711  18.660  0.00  0.00    +0.000 A 
ATOM     13  C   UNL     1      -0.689  12.734  18.313  0.00  0.00    +0.000 A 
ATOM     14  C   UNL     1      -1.443  11.563  18.341  0.00  0.00    +0.000 A 
ATOM     15  C   UNL     1      -0.821  10.374  18.722  0.00  0.00    +0.000 A 
BRANCH  14  16
ATOM     16  O   UNL     1      -2.759  11.692  17.991  0.00  0.00    +0.000 OA
ATOM     17  C   UNL     1      -3.168  11.041  16.793  0.00  0.00    +0.000 C 
ENDBRANCH  14  16
ENDBRANCH   8  10
ENDBRANCH   3   5
BRANCH   1  18
ATOM     18  C   UNL     1       4.026   3.785  18.179  0.00  0.00    +0.000 C 
BRANCH  18  23
ATOM     19  C   UNL     1       6.795   5.618  16.287  0.00  0.00    +0.000 A 
ATOM     20  C   UNL     1       6.690   5.039  15.022  0.00  0.00    +0.000 A 
ATOM     21  C   UNL     1       5.723   4.065  14.776  0.00  0.00    +0.000 A 
ATOM     22  C   UNL     1       4.856   3.667  15.792  0.00  0.00    +0.000 A 
ATOM     23  C   UNL     1       4.959   4.226  17.078  0.00  0.00    +0.000 A 
ATOM     24  C   UNL     1       5.956   5.187  17.318  0.00  0.00    +0.000 A 
BRANCH  19  26
ATOM     25  C   UNL     1       7.581   7.477  17.506  0.00  0.00    +0.000 C 
ATOM     26  O   UNL     1       7.760   6.581  16.414  0.00  0.00    +0.000 OA
ENDBRANCH  19  26
ENDBRANCH  18  23
ENDBRANCH   1  18
TORSDOF 6
ENDMDL
