MODEL 1
REMARK VINA RESULT:      -7.6      0.000      0.000
REMARK  Name = 
REMARK  8 active torsions:
REMARK  status: ('A' for Active; 'I' for Inactive)
REMARK    1  A    between atoms: C_1  and  C_2
REMARK    2  A    between atoms: C_2  and  C_3
REMARK    3  A    between atoms: C_2  and  O_4
REMARK    4  A    between atoms: O_4  and  C_5
REMARK    5  A    between atoms: C_10  and  N_11
REMARK    6  A    between atoms: C_12  and  C_14
REMARK    7  A    between atoms: N_20  and  C_21
REMARK    8  A    between atoms: N_24  and  C_25
REMARK                            x       y       z     vdW  Elec       q    Type
REMARK                         _______ _______ _______ _____ _____    ______ ____
ROOT
ATOM      1  C   UNL     1       2.615   5.278  18.368  0.00  0.00    +0.000 A 
ATOM      2  C   UNL     1       3.389   4.626  17.389  0.00  0.00    +0.000 A 
ATOM      3  C   UNL     1       4.602   5.167  17.043  0.00  0.00    +0.000 A 
ATOM      4  C   UNL     1       5.034   6.379  17.551  0.00  0.00    +0.000 A 
ATOM      5  C   UNL     1       4.272   7.083  18.458  0.00  0.00    +0.000 A 
ATOM      6  C   UNL     1       3.043   6.545  18.896  0.00  0.00    +0.000 A 
ATOM      7  N   UNL     1       6.286   6.654  16.988  0.00  0.00    +0.000 N 
ATOM      8  C   UNL     1       7.078   7.835  17.176  0.00  0.00    +0.000 C 
ATOM      9  C   UNL     1       6.661   5.581  16.150  0.00  0.00    +0.000 A 
ATOM     10  O   UNL     1       7.702   5.468  15.526  0.00  0.00    +0.000 OA
ATOM     11  N   UNL     1       5.590   4.662  16.194  0.00  0.00    +0.000 N 
ATOM     12  C   UNL     1       5.572   3.361  15.595  0.00  0.00    +0.000 C 
ENDROOT
BRANCH   6  13
ATOM     13  N   UNL     1       2.235   7.248  19.858  0.00  0.00    +0.000 N 
ATOM     14  C   UNL     1       1.565   8.445  19.635  0.00  0.00    +0.000 C 
ATOM     15  O   UNL     1       1.596   9.094  18.586  0.00  0.00    +0.000 OA
ATOM     16  H   UNL     1       2.167   6.800  20.767  0.00  0.00    +0.000 HD
BRANCH  14  17
ATOM     17  C   UNL     1       0.696   9.013  20.753  0.00  0.00    +0.000 C 
ATOM     18  C   UNL     1       0.199  10.435  20.517  0.00  0.00    +0.000 C 
ATOM     19  C   UNL     1      -0.729  10.843  21.656  0.00  0.00    +0.000 C 
ATOM     20  O   UNL     1      -0.053  10.722  22.909  0.00  0.00    +0.000 OA
ATOM     21  C   UNL     1       0.333   9.376  23.189  0.00  0.00    +0.000 C 
ATOM     22  C   UNL     1       1.320   8.874  22.139  0.00  0.00    +0.000 C 
ENDBRANCH  14  17
ENDBRANCH   6  13
BRANCH   1  23
ATOM     23  O   UNL     1       1.444   4.713  18.838  0.00  0.00    +0.000 OA
BRANCH  23  25
ATOM     24  C   UNL     1       1.229   3.551  20.947  0.00  0.00    +0.000 C 
ATOM     25  C   UNL     1       1.556   3.410  19.467  0.00  0.00    +0.000 C 
ATOM     26  C   UNL     1       0.620   2.400  18.798  0.00  0.00    +0.000 C 
ENDBRANCH  23  25
ENDBRANCH   1  23
TORSDOF 4
ENDMDL
MODEL 2
REMARK VINA RESULT:      -7.0      1.860      7.245
REMARK  Name = 
REMARK  8 active torsions:
REMARK  status: ('A' for Active; 'I' for Inactive)
REMARK    1  A    between atoms: C_1  and  C_2
REMARK    2  A    between atoms: C_2  and  C_3
REMARK    3  A    between atoms: C_2  and  O_4
REMARK    4  A    between atoms: O_4  and  C_5
REMARK    5  A    between atoms: C_10  and  N_11
REMARK    6  A    between atoms: C_12  and  C_14
REMARK    7  A    between atoms: N_20  and  C_21
REMARK    8  A    between atoms: N_24  and  C_25
REMARK                            x       y       z     vdW  Elec       q    Type
REMARK                         _______ _______ _______ _____ _____    ______ ____
ROOT
ATOM      1  C   UNL     1       2.102   6.545  20.024  0.00  0.00    +0.000 A 
ATOM      2  C   UNL     1       1.374   7.249  21.002  0.00  0.00    +0.000 A 
ATOM      3  C   UNL     1       0.997   8.542  20.736  0.00  0.00    +0.000 A 
ATOM      4  C   UNL     1       1.396   9.199  19.585  0.00  0.00    +0.000 A 
ATOM      5  C   UNL     1       2.170   8.565  18.637  0.00  0.00    +0.000 A 
ATOM      6  C   UNL     1       2.537   7.216  18.829  0.00  0.00    +0.000 A 
ATOM      7  N   UNL     1       0.866  10.493  19.629  0.00  0.00    +0.000 N 
ATOM      8  C   UNL     1       1.078  11.548  18.680  0.00  0.00    +0.000 C 
ATOM      9  C   UNL     1       0.090  10.636  20.800  0.00  0.00    +0.000 A 
ATOM     10  O   UNL     1      -0.544  11.618  21.144  0.00  0.00    +0.000 OA
ATOM     11  N   UNL     1       0.189   9.403  21.483  0.00  0.00    +0.000 N 
ATOM     12  C   UNL     1      -0.533   9.035  22.664  0.00  0.00    +0.000 C 
ENDROOT
BRANCH   6  13
ATOM     13  N   UNL     1       3.327   6.523  17.846  0.00  0.00    +0.000 N 
ATOM     14  C   UNL     1       4.614   6.036  18.036  0.00  0.00    +0.000 C 
ATOM     15  O   UNL     1       5.278   6.160  19.069  0.00  0.00    +0.000 OA
ATOM     16  H   UNL     1       2.871   6.391  16.948  0.00  0.00    +0.000 HD
BRANCH  14  17
ATOM     17  C   UNL     1       5.276   5.262  16.899  0.00  0.00    +0.000 C 
ATOM     18  C   UNL     1       6.721   4.851  17.162  0.00  0.00    +0.000 C 
ATOM     19  C   UNL     1       7.228   4.009  15.996  0.00  0.00    +0.000 C 
ATOM     20  O   UNL     1       7.100   4.735  14.772  0.00  0.00    +0.000 OA
ATOM     21  C   UNL     1       5.740   5.044  14.463  0.00  0.00    +0.000 C 
ATOM     22  C   UNL     1       5.138   5.942  15.540  0.00  0.00    +0.000 C 
ENDBRANCH  14  17
ENDBRANCH   6  13
BRANCH   1  23
ATOM     23  O   UNL     1       2.403   5.206  20.192  0.00  0.00    +0.000 OA
BRANCH  23  25
ATOM     24  C   UNL     1       1.337   3.654  18.675  0.00  0.00    +0.000 C 
ATOM     25  C   UNL     1       1.300   4.270  20.067  0.00  0.00    +0.000 C 
ATOM     26  C   UNL     1       1.383   3.185  21.143  0.00  0.00    +0.000 C 
ENDBRANCH  23  25
ENDBRANCH   1  23
TORSDOF 4
ENDMDL
MODEL 3
REMARK VINA RESULT:      -6.7      3.855      5.932
REMARK  Name = 
REMARK  8 active torsions:
REMARK  status: ('A' for Active; 'I' for Inactive)
REMARK    1  A    between atoms: C_1  and  C_2
REMARK    2  A    between atoms: C_2  and  C_3
REMARK    3  A    between atoms: C_2  and  O_4
REMARK    4  A    between atoms: O_4  and  C_5
REMARK    5  A    between atoms: C_10  and  N_11
REMARK    6  A    between atoms: C_12  and  C_14
REMARK    7  A    between atoms: N_20  and  C_21
REMARK    8  A    between atoms: N_24  and  C_25
REMARK                            x       y       z     vdW  Elec       q    Type
REMARK                         _______ _______ _______ _____ _____    ______ ____
ROOT
ATOM      1  C   UNL     1       6.265   5.527  16.571  0.00  0.00    +0.000 A 
ATOM      2  C   UNL     1       7.221   5.640  15.543  0.00  0.00    +0.000 A 
ATOM      3  C   UNL     1       6.982   5.004  14.350  0.00  0.00    +0.000 A 
ATOM      4  C   UNL     1       5.885   4.180  14.168  0.00  0.00    +0.000 A 
ATOM      5  C   UNL     1       4.964   3.988  15.176  0.00  0.00    +0.000 A 
ATOM      6  C   UNL     1       5.128   4.664  16.403  0.00  0.00    +0.000 A 
ATOM      7  N   UNL     1       5.945   3.676  12.863  0.00  0.00    +0.000 N 
ATOM      8  C   UNL     1       5.052   2.728  12.261  0.00  0.00    +0.000 C 
ATOM      9  C   UNL     1       7.068   4.224  12.207  0.00  0.00    +0.000 A 
ATOM     10  O   UNL     1       7.408   4.032  11.054  0.00  0.00    +0.000 OA
ATOM     11  N   UNL     1       7.707   5.050  13.158  0.00  0.00    +0.000 N 
ATOM     12  C   UNL     1       8.825   5.911  12.909  0.00  0.00    +0.000 C 
ENDROOT
BRANCH   6  13
ATOM     13  N   UNL     1       4.171   4.498  17.466  0.00  0.00    +0.000 N 
ATOM     14  C   UNL     1       4.415   3.886  18.689  0.00  0.00    +0.000 C 
ATOM     15  O   UNL     1       5.482   3.364  19.025  0.00  0.00    +0.000 OA
ATOM     16  H   UNL     1       3.249   4.878  17.273  0.00  0.00    +0.000 HD
BRANCH  14  17
ATOM     17  C   UNL     1       3.297   3.860  19.727  0.00  0.00    +0.000 C 
ATOM     18  C   UNL     1       3.284   2.627  20.623  0.00  0.00    +0.000 C 
ATOM     19  C   UNL     1       2.185   2.772  21.671  0.00  0.00    +0.000 C 
ATOM     20  O   UNL     1       0.922   2.974  21.033  0.00  0.00    +0.000 OA
ATOM     21  C   UNL     1       0.888   4.180  20.267  0.00  0.00    +0.000 C 
ATOM     22  C   UNL     1       1.914   4.124  19.139  0.00  0.00    +0.000 C 
ENDBRANCH  14  17
ENDBRANCH   6  13
BRANCH   1  23
ATOM     23  O   UNL     1       6.400   6.243  17.746  0.00  0.00    +0.000 OA
BRANCH  23  25
ATOM     24  C   UNL     1       8.080   7.903  18.259  0.00  0.00    +0.000 C 
ATOM     25  C   UNL     1       7.749   6.417  18.252  0.00  0.00    +0.000 C 
ATOM     26  C   UNL     1       7.885   5.824  19.657  0.00  0.00    +0.000 C 
ENDBRANCH  23  25
ENDBRANCH   1  23
TORSDOF 4
ENDMDL
MODEL 4
REMARK VINA RESULT:      -6.6      1.827      7.175
REMARK  Name = 
REMARK  8 active torsions:
REMARK  status: ('A' for Active; 'I' for Inactive)
REMARK    1  A    between atoms: C_1  and  C_2
REMARK    2  A    between atoms: C_2  and  C_3
REMARK    3  A    between atoms: C_2  and  O_4
REMARK    4  A    between atoms: O_4  and  C_5
REMARK    5  A    between atoms: C_10  and  N_11
REMARK    6  A    between atoms: C_12  and  C_14
REMARK    7  A    between atoms: N_20  and  C_21
REMARK    8  A    between atoms: N_24  and  C_25
REMARK                            x       y       z     vdW  Elec       q    Type
REMARK                         _______ _______ _______ _____ _____    ______ ____
ROOT
ATOM      1  C   UNL     1       2.492   6.199  20.159  0.00  0.00    +0.000 A 
ATOM      2  C   UNL     1       1.558   6.898  20.947  0.00  0.00    +0.000 A 
ATOM      3  C   UNL     1       1.125   8.128  20.517  0.00  0.00    +0.000 A 
ATOM      4  C   UNL     1       1.653   8.737  19.392  0.00  0.00    +0.000 A 
ATOM      5  C   UNL     1       2.621   8.114  18.634  0.00  0.00    +0.000 A 
ATOM      6  C   UNL     1       3.060   6.823  18.995  0.00  0.00    +0.000 A 
ATOM      7  N   UNL     1       1.018   9.976  19.242  0.00  0.00    +0.000 N 
ATOM      8  C   UNL     1       1.297  10.976  18.252  0.00  0.00    +0.000 C 
ATOM      9  C   UNL     1       0.051  10.126  20.261  0.00  0.00    +0.000 A 
ATOM     10  O   UNL     1      -0.708  11.065  20.416  0.00  0.00    +0.000 OA
ATOM     11  N   UNL     1       0.138   8.959  21.052  0.00  0.00    +0.000 N 
ATOM     12  C   UNL     1      -0.735   8.608  22.131  0.00  0.00    +0.000 C 
ENDROOT
BRANCH   6  13
ATOM     13  N   UNL     1       4.055   6.140  18.210  0.00  0.00    +0.000 N 
ATOM     14  C   UNL     1       3.824   5.055  17.374  0.00  0.00    +0.000 C 
ATOM     15  O   UNL     1       2.735   4.499  17.212  0.00  0.00    +0.000 OA
ATOM     16  H   UNL     1       4.995   6.513  18.295  0.00  0.00    +0.000 HD
BRANCH  14  17
ATOM     17  C   UNL     1       4.991   4.499  16.562  0.00  0.00    +0.000 C 
ATOM     18  C   UNL     1       6.367   4.983  17.006  0.00  0.00    +0.000 C 
ATOM     19  C   UNL     1       7.441   4.283  16.181  0.00  0.00    +0.000 C 
ATOM     20  O   UNL     1       7.223   4.518  14.789  0.00  0.00    +0.000 OA
ATOM     21  C   UNL     1       5.978   3.982  14.336  0.00  0.00    +0.000 C 
ATOM     22  C   UNL     1       4.814   4.658  15.055  0.00  0.00    +0.000 C 
ENDBRANCH  14  17
ENDBRANCH   6  13
BRANCH   1  23
ATOM     23  O   UNL     1       2.869   4.909  20.484  0.00  0.00    +0.000 OA
BRANCH  23  25
ATOM     24  C   UNL     1       0.882   3.652  19.927  0.00  0.00    +0.000 C 
ATOM     25  C   UNL     1       1.840   4.050  21.041  0.00  0.00    +0.000 C 
ATOM     26  C   UNL     1       2.460   2.811  21.693  0.00  0.00    +0.000 C 
ENDBRANCH  23  25
ENDBRANCH   1  23
TORSDOF 4
ENDMDL
MODEL 5
REMARK VINA RESULT:      -6.4      3.732      5.783
REMARK  Name = 
REMARK  8 active torsions:
REMARK  status: ('A' for Active; 'I' for Inactive)
REMARK    1  A    between atoms: C_1  and  C_2
REMARK    2  A    between atoms: C_2  and  C_3
REMARK    3  A    between atoms: C_2  and  O_4
REMARK    4  A    between atoms: O_4  and  C_5
REMARK    5  A    between atoms: C_10  and  N_11
REMARK    6  A    between atoms: C_12  and  C_14
REMARK    7  A    between atoms: N_20  and  C_21
REMARK    8  A    between atoms: N_24  and  C_25
REMARK                            x       y       z     vdW  Elec       q    Type
REMARK                         _______ _______ _______ _____ _____    ______ ____
ROOT
ATOM      1  C   UNL     1       6.264   5.216  16.519  0.00  0.00    +0.000 A 
ATOM      2  C   UNL     1       7.207   5.455  15.501  0.00  0.00    +0.000 A 
ATOM      3  C   UNL     1       6.996   4.895  14.265  0.00  0.00    +0.000 A 
ATOM      4  C   UNL     1       5.945   4.026  14.026  0.00  0.00    +0.000 A 
ATOM      5  C   UNL     1       5.042   3.711  15.019  0.00  0.00    +0.000 A 
ATOM      6  C   UNL     1       5.175   4.305  16.292  0.00  0.00    +0.000 A 
ATOM      7  N   UNL     1       6.025   3.622  12.688  0.00  0.00    +0.000 N 
ATOM      8  C   UNL     1       5.183   2.672  12.020  0.00  0.00    +0.000 C 
ATOM      9  C   UNL     1       7.113   4.277  12.071  0.00  0.00    +0.000 A 
ATOM     10  O   UNL     1       7.456   4.188  10.906  0.00  0.00    +0.000 OA
ATOM     11  N   UNL     1       7.711   5.067  13.078  0.00  0.00    +0.000 N 
ATOM     12  C   UNL     1       8.778   6.004  12.890  0.00  0.00    +0.000 C 
ENDROOT
BRANCH   6  13
ATOM     13  N   UNL     1       4.235   4.011  17.341  0.00  0.00    +0.000 N 
ATOM     14  C   UNL     1       3.284   4.887  17.848  0.00  0.00    +0.000 C 
ATOM     15  O   UNL     1       3.133   6.059  17.492  0.00  0.00    +0.000 OA
ATOM     16  H   UNL     1       4.297   3.070  17.717  0.00  0.00    +0.000 HD
BRANCH  14  17
ATOM     17  C   UNL     1       2.321   4.379  18.917  0.00  0.00    +0.000 C 
ATOM     18  C   UNL     1       2.891   4.354  20.331  0.00  0.00    +0.000 C 
ATOM     19  C   UNL     1       1.803   3.921  21.308  0.00  0.00    +0.000 C 
ATOM     20  O   UNL     1       1.279   2.647  20.928  0.00  0.00    +0.000 OA
ATOM     21  C   UNL     1       0.654   2.679  19.644  0.00  0.00    +0.000 C 
ATOM     22  C   UNL     1       1.669   3.045  18.565  0.00  0.00    +0.000 C 
ENDBRANCH  14  17
ENDBRANCH   6  13
BRANCH   1  23
ATOM     23  O   UNL     1       6.366   5.851  17.743  0.00  0.00    +0.000 OA
BRANCH  23  25
ATOM     24  C   UNL     1       7.874   7.712  18.067  0.00  0.00    +0.000 C 
ATOM     25  C   UNL     1       7.703   6.204  18.185  0.00  0.00    +0.000 C 
ATOM     26  C   UNL     1       7.940   5.742  19.625  0.00  0.00    +0.000 C 
ENDBRANCH  23  25
ENDBRANCH   1  23
TORSDOF 4
ENDMDL
MODEL 6
REMARK VINA RESULT:      -6.4      3.846      5.903
REMARK  Name = 
REMARK  8 active torsions:
REMARK  status: ('A' for Active; 'I' for Inactive)
REMARK    1  A    between atoms: C_1  and  C_2
REMARK    2  A    between atoms: C_2  and  C_3
REMARK    3  A    between atoms: C_2  and  O_4
REMARK    4  A    between atoms: O_4  and  C_5
REMARK    5  A    between atoms: C_10  and  N_11
REMARK    6  A    between atoms: C_12  and  C_14
REMARK    7  A    between atoms: N_20  and  C_21
REMARK    8  A    between atoms: N_24  and  C_25
REMARK                            x       y       z     vdW  Elec       q    Type
REMARK                         _______ _______ _______ _____ _____    ______ ____
ROOT
ATOM      1  C   UNL     1       6.223   5.307  16.614  0.00  0.00    +0.000 A 
ATOM      2  C   UNL     1       7.189   5.464  15.603  0.00  0.00    +0.000 A 
ATOM      3  C   UNL     1       6.946   4.912  14.370  0.00  0.00    +0.000 A 
ATOM      4  C   UNL     1       5.832   4.126  14.127  0.00  0.00    +0.000 A 
ATOM      5  C   UNL     1       4.899   3.891  15.114  0.00  0.00    +0.000 A 
ATOM      6  C   UNL     1       5.067   4.483  16.384  0.00  0.00    +0.000 A 
ATOM      7  N   UNL     1       5.892   3.706  12.793  0.00  0.00    +0.000 N 
ATOM      8  C   UNL     1       4.983   2.819  12.125  0.00  0.00    +0.000 C 
ATOM      9  C   UNL     1       7.033   4.269  12.181  0.00  0.00    +0.000 A 
ATOM     10  O   UNL     1       7.378   4.144  11.020  0.00  0.00    +0.000 OA
ATOM     11  N   UNL     1       7.682   5.018  13.188  0.00  0.00    +0.000 N 
ATOM     12  C   UNL     1       8.821   5.867  13.003  0.00  0.00    +0.000 C 
ENDROOT
BRANCH   6  13
ATOM     13  N   UNL     1       4.098   4.271  17.427  0.00  0.00    +0.000 N 
ATOM     14  C   UNL     1       3.690   3.036  17.916  0.00  0.00    +0.000 C 
ATOM     15  O   UNL     1       4.077   1.941  17.500  0.00  0.00    +0.000 OA
ATOM     16  H   UNL     1       3.703   5.119  17.820  0.00  0.00    +0.000 HD
BRANCH  14  17
ATOM     17  C   UNL     1       2.699   3.003  19.076  0.00  0.00    +0.000 C 
ATOM     18  C   UNL     1       1.810   4.237  19.193  0.00  0.00    +0.000 C 
ATOM     19  C   UNL     1       0.809   4.034  20.326  0.00  0.00    +0.000 C 
ATOM     20  O   UNL     1       1.497   3.763  21.547  0.00  0.00    +0.000 OA
ATOM     21  C   UNL     1       2.259   2.556  21.485  0.00  0.00    +0.000 C 
ATOM     22  C   UNL     1       3.343   2.664  20.417  0.00  0.00    +0.000 C 
ENDBRANCH  14  17
ENDBRANCH   6  13
BRANCH   1  23
ATOM     23  O   UNL     1       6.363   5.943  17.834  0.00  0.00    +0.000 OA
BRANCH  23  25
ATOM     24  C   UNL     1       7.938   7.748  18.157  0.00  0.00    +0.000 C 
ATOM     25  C   UNL     1       7.718   6.245  18.259  0.00  0.00    +0.000 C 
ATOM     26  C   UNL     1       7.962   5.757  19.689  0.00  0.00    +0.000 C 
ENDBRANCH  23  25
ENDBRANCH   1  23
TORSDOF 4
ENDMDL
MODEL 7
REMARK VINA RESULT:      -6.3      4.335      8.304
REMARK  Name = 
REMARK  8 active torsions:
REMARK  status: ('A' for Active; 'I' for Inactive)
REMARK    1  A    between atoms: C_1  and  C_2
REMARK    2  A    between atoms: C_2  and  C_3
REMARK    3  A    between atoms: C_2  and  O_4
REMARK    4  A    between atoms: O_4  and  C_5
REMARK    5  A    between atoms: C_10  and  N_11
REMARK    6  A    between atoms: C_12  and  C_14
REMARK    7  A    between atoms: N_20  and  C_21
REMARK    8  A    between atoms: N_24  and  C_25
REMARK                            x       y       z     vdW  Elec       q    Type
REMARK                         _______ _______ _______ _____ _____    ______ ____
ROOT
ATOM      1  C   UNL     1      -0.389  11.998  18.908  0.00  0.00    +0.000 A 
ATOM      2  C   UNL     1      -0.613  13.387  18.862  0.00  0.00    +0.000 A 
ATOM      3  C   UNL     1       0.466  14.231  18.956  0.00  0.00    +0.000 A 
ATOM      4  C   UNL     1       1.745  13.758  19.193  0.00  0.00    +0.000 A 
ATOM      5  C   UNL     1       1.993  12.407  19.315  0.00  0.00    +0.000 A 
ATOM      6  C   UNL     1       0.930  11.491  19.168  0.00  0.00    +0.000 A 
ATOM      7  N   UNL     1       2.602  14.863  19.253  0.00  0.00    +0.000 N 
ATOM      8  C   UNL     1       4.006  14.854  19.548  0.00  0.00    +0.000 C 
ATOM      9  C   UNL     1       1.858  16.038  19.008  0.00  0.00    +0.000 A 
ATOM     10  O   UNL     1       2.287  17.177  18.951  0.00  0.00    +0.000 OA
ATOM     11  N   UNL     1       0.521  15.620  18.829  0.00  0.00    +0.000 N 
ATOM     12  C   UNL     1      -0.575  16.453  18.434  0.00  0.00    +0.000 C 
ENDROOT
BRANCH   6  13
ATOM     13  N   UNL     1       1.163  10.074  19.270  0.00  0.00    +0.000 N 
ATOM     14  C   UNL     1       1.770   9.280  18.304  0.00  0.00    +0.000 C 
ATOM     15  O   UNL     1       2.164   9.673  17.203  0.00  0.00    +0.000 OA
ATOM     16  H   UNL     1       0.850   9.652  20.139  0.00  0.00    +0.000 HD
BRANCH  14  17
ATOM     17  C   UNL     1       1.998   7.803  18.613  0.00  0.00    +0.000 C 
ATOM     18  C   UNL     1       2.010   7.455  20.097  0.00  0.00    +0.000 C 
ATOM     19  C   UNL     1       2.149   5.945  20.262  0.00  0.00    +0.000 C 
ATOM     20  O   UNL     1       3.330   5.485  19.603  0.00  0.00    +0.000 OA
ATOM     21  C   UNL     1       3.290   5.717  18.194  0.00  0.00    +0.000 C 
ATOM     22  C   UNL     1       3.212   7.213  17.902  0.00  0.00    +0.000 C 
ENDBRANCH  14  17
ENDBRANCH   6  13
BRANCH   1  23
ATOM     23  O   UNL     1      -1.425  11.106  18.699  0.00  0.00    +0.000 OA
BRANCH  23  25
ATOM     24  C   UNL     1      -2.253  10.229  16.605  0.00  0.00    +0.000 C 
ATOM     25  C   UNL     1      -2.315  11.389  17.588  0.00  0.00    +0.000 C 
ATOM     26  C   UNL     1      -3.748  11.608  18.080  0.00  0.00    +0.000 C 
ENDBRANCH  23  25
ENDBRANCH   1  23
TORSDOF 4
ENDMDL
MODEL 8
REMARK VINA RESULT:      -6.1      4.579      8.307
REMARK  Name = 
REMARK  8 active torsions:
REMARK  status: ('A' for Active; 'I' for Inactive)
REMARK    1  A    between atoms: C_1  and  C_2
REMARK    2  A    between atoms: C_2  and  C_3
REMARK    3  A    between atoms: C_2  and  O_4
REMARK    4  A    between atoms: O_4  and  C_5
REMARK    5  A    between atoms: C_10  and  N_11
REMARK    6  A    between atoms: C_12  and  C_14
REMARK    7  A    between atoms: N_20  and  C_21
REMARK    8  A    between atoms: N_24  and  C_25
REMARK                            x       y       z     vdW  Elec       q    Type
REMARK                         _______ _______ _______ _____ _____    ______ ____
ROOT
ATOM      1  C   UNL     1      -0.200  12.324  18.843  0.00  0.00    +0.000 A 
ATOM      2  C   UNL     1      -0.403  13.716  18.913  0.00  0.00    +0.000 A 
ATOM      3  C   UNL     1       0.668  14.548  18.702  0.00  0.00    +0.000 A 
ATOM      4  C   UNL     1       1.950  14.058  18.524  0.00  0.00    +0.000 A 
ATOM      5  C   UNL     1       2.200  12.703  18.520  0.00  0.00    +0.000 A 
ATOM      6  C   UNL     1       1.127  11.799  18.672  0.00  0.00    +0.000 A 
ATOM      7  N   UNL     1       2.804  15.155  18.356  0.00  0.00    +0.000 N 
ATOM      8  C   UNL     1       4.231  15.125  18.210  0.00  0.00    +0.000 C 
ATOM      9  C   UNL     1       2.042  16.343  18.388  0.00  0.00    +0.000 A 
ATOM     10  O   UNL     1       2.453  17.480  18.241  0.00  0.00    +0.000 OA
ATOM     11  N   UNL     1       0.706  15.941  18.610  0.00  0.00    +0.000 N 
ATOM     12  C   UNL     1      -0.444  16.795  18.595  0.00  0.00    +0.000 C 
ENDROOT
BRANCH   6  13
ATOM     13  N   UNL     1       1.355  10.378  18.652  0.00  0.00    +0.000 N 
ATOM     14  C   UNL     1       1.281   9.528  19.749  0.00  0.00    +0.000 C 
ATOM     15  O   UNL     1       1.042   9.879  20.908  0.00  0.00    +0.000 OA
ATOM     16  H   UNL     1       1.583   9.996  17.739  0.00  0.00    +0.000 HD
BRANCH  14  17
ATOM     17  C   UNL     1       1.488   8.033  19.528  0.00  0.00    +0.000 C 
ATOM     18  C   UNL     1       1.741   7.228  20.798  0.00  0.00    +0.000 C 
ATOM     19  C   UNL     1       1.833   5.746  20.449  0.00  0.00    +0.000 C 
ATOM     20  O   UNL     1       2.858   5.533  19.476  0.00  0.00    +0.000 OA
ATOM     21  C   UNL     1       2.585   6.204  18.245  0.00  0.00    +0.000 C 
ATOM     22  C   UNL     1       2.530   7.713  18.460  0.00  0.00    +0.000 C 
ENDBRANCH  14  17
ENDBRANCH   6  13
BRANCH   1  23
ATOM     23  O   UNL     1      -1.266  11.447  18.929  0.00  0.00    +0.000 OA
BRANCH  23  25
ATOM     24  C   UNL     1      -1.903  10.006  17.096  0.00  0.00    +0.000 C 
ATOM     25  C   UNL     1      -2.129  11.354  17.766  0.00  0.00    +0.000 C 
ATOM     26  C   UNL     1      -3.598  11.524  18.162  0.00  0.00    +0.000 C 
ENDBRANCH  23  25
ENDBRANCH   1  23
TORSDOF 4
ENDMDL
MODEL 9
REMARK VINA RESULT:      -6.0      1.982      7.250
REMARK  Name = 
REMARK  8 active torsions:
REMARK  status: ('A' for Active; 'I' for Inactive)
REMARK    1  A    between atoms: C_1  and  C_2
REMARK    2  A    between atoms: C_2  and  C_3
REMARK    3  A    between atoms: C_2  and  O_4
REMARK    4  A    between atoms: O_4  and  C_5
REMARK    5  A    between atoms: C_10  and  N_11
REMARK    6  A    between atoms: C_12  and  C_14
REMARK    7  A    between atoms: N_20  and  C_21
REMARK    8  A    between atoms: N_24  and  C_25
REMARK                            x       y       z     vdW  Elec       q    Type
REMARK                         _______ _______ _______ _____ _____    ______ ____
ROOT
ATOM      1  C   UNL     1       2.160   6.588  19.272  0.00  0.00    +0.000 A 
ATOM      2  C   UNL     1       1.474   7.170  20.354  0.00  0.00    +0.000 A 
ATOM      3  C   UNL     1       1.203   8.515  20.313  0.00  0.00    +0.000 A 
ATOM      4  C   UNL     1       1.671   9.325  19.293  0.00  0.00    +0.000 A 
ATOM      5  C   UNL     1       2.407   8.803  18.251  0.00  0.00    +0.000 A 
ATOM      6  C   UNL     1       2.664   7.416  18.210  0.00  0.00    +0.000 A 
ATOM      7  N   UNL     1       1.242  10.631  19.557  0.00  0.00    +0.000 N 
ATOM      8  C   UNL     1       1.551  11.812  18.802  0.00  0.00    +0.000 C 
ATOM      9  C   UNL     1       0.461  10.633  20.734  0.00  0.00    +0.000 A 
ATOM     10  O   UNL     1      -0.099  11.589  21.239  0.00  0.00    +0.000 OA
ATOM     11  N   UNL     1       0.453   9.298  21.195  0.00  0.00    +0.000 N 
ATOM     12  C   UNL     1      -0.313   8.792  22.294  0.00  0.00    +0.000 C 
ENDROOT
BRANCH   6  13
ATOM     13  N   UNL     1       3.413   6.840  17.124  0.00  0.00    +0.000 N 
ATOM     14  C   UNL     1       4.745   6.448  17.175  0.00  0.00    +0.000 C 
ATOM     15  O   UNL     1       5.488   6.572  18.153  0.00  0.00    +0.000 OA
ATOM     16  H   UNL     1       2.890   6.719  16.263  0.00  0.00    +0.000 HD
BRANCH  14  17
ATOM     17  C   UNL     1       5.359   5.790  15.943  0.00  0.00    +0.000 C 
ATOM     18  C   UNL     1       4.701   4.481  15.522  0.00  0.00    +0.000 C 
ATOM     19  C   UNL     1       5.343   3.983  14.232  0.00  0.00    +0.000 C 
ATOM     20  O   UNL     1       6.752   3.831  14.410  0.00  0.00    +0.000 OA
ATOM     21  C   UNL     1       7.398   5.070  14.709  0.00  0.00    +0.000 C 
ATOM     22  C   UNL     1       6.876   5.640  16.025  0.00  0.00    +0.000 C 
ENDBRANCH  14  17
ENDBRANCH   6  13
BRANCH   1  23
ATOM     23  O   UNL     1       2.352   5.220  19.208  0.00  0.00    +0.000 OA
BRANCH  23  25
ATOM     24  C   UNL     1       2.255   3.872  21.212  0.00  0.00    +0.000 C 
ATOM     25  C   UNL     1       3.165   4.627  20.253  0.00  0.00    +0.000 C 
ATOM     26  C   UNL     1       4.221   3.692  19.658  0.00  0.00    +0.000 C 
ENDBRANCH  23  25
ENDBRANCH   1  23
TORSDOF 4
ENDMDL
