MODEL 1
REMARK VINA RESULT:      -7.7      0.000      0.000
REMARK  Name = 
REMARK  8 active torsions:
REMARK  status: ('A' for Active; 'I' for Inactive)
REMARK    1  A    between atoms: C_1  and  O_2
REMARK    2  A    between atoms: O_2  and  C_3
REMARK    3  A    between atoms: C_5  and  C_6
REMARK    4  A    between atoms: C_11  and  C_12
REMARK    5  A    between atoms: C_16  and  C_17
REMARK    6  A    between atoms: C_20  and  O_21
REMARK    7  A    between atoms: C_24  and  C_25
REMARK    8  A    between atoms: C_28  and  O_29
REMARK                            x       y       z     vdW  Elec       q    Type
REMARK                         _______ _______ _______ _____ _____    ______ ____
ROOT
ATOM      1  C   UNL     1       2.158   6.118  18.812  0.00  0.00    +0.000 C 
ATOM      2  C   UNL     1       2.246   4.877  19.704  0.00  0.00    +0.000 A 
ATOM      3  C   UNL     1       1.258   4.654  20.688  0.00  0.00    +0.000 A 
ATOM      4  C   UNL     1       1.335   3.566  21.552  0.00  0.00    +0.000 A 
ATOM      5  C   UNL     1       2.391   2.675  21.435  0.00  0.00    +0.000 A 
ATOM      6  C   UNL     1       3.363   2.857  20.438  0.00  0.00    +0.000 A 
ATOM      7  C   UNL     1       3.281   3.936  19.530  0.00  0.00    +0.000 A 
ATOM      8  N   UNL     1       4.276   4.157  18.567  0.00  0.00    +0.000 N 
ATOM      9  C   UNL     1       3.927   5.019  17.436  0.00  0.00    +0.000 C 
ATOM     10  C   UNL     1       3.450   6.375  17.988  0.00  0.00    +0.000 C 
ATOM     11  C   UNL     1       3.203   7.403  16.873  0.00  0.00    +0.000 C 
ATOM     12  H   UNL     1       4.808   3.333  18.291  0.00  0.00    +0.000 HD
ENDROOT
BRANCH   1  15
ATOM     13  C   UNL     1       1.080   9.722  19.635  0.00  0.00    +0.000 A 
ATOM     14  C   UNL     1       1.400   8.556  18.930  0.00  0.00    +0.000 A 
ATOM     15  C   UNL     1       1.760   7.369  19.592  0.00  0.00    +0.000 A 
ATOM     16  C   UNL     1       1.780   7.360  20.991  0.00  0.00    +0.000 A 
ATOM     17  C   UNL     1       1.462   8.513  21.706  0.00  0.00    +0.000 A 
ATOM     18  C   UNL     1       1.118   9.690  21.032  0.00  0.00    +0.000 A 
BRANCH  13  20
ATOM     19  C   UNL     1      -0.600  11.055  18.578  0.00  0.00    +0.000 C 
ATOM     20  O   UNL     1       0.770  10.771  18.813  0.00  0.00    +0.000 OA
ENDBRANCH  13  20
BRANCH  18  21
ATOM     21  O   UNL     1       0.833  10.798  21.783  0.00  0.00    +0.000 OA
ATOM     22  H   UNL     1      -0.090  10.751  22.081  0.00  0.00    +0.000 HD
ENDBRANCH  18  21
ENDBRANCH   1  15
BRANCH   9  23
ATOM     23  C   UNL     1       5.145   5.104  16.530  0.00  0.00    +0.000 A 
ATOM     24  C   UNL     1       6.278   5.831  16.933  0.00  0.00    +0.000 A 
ATOM     25  C   UNL     1       7.371   5.981  16.074  0.00  0.00    +0.000 A 
ATOM     26  C   UNL     1       7.334   5.395  14.812  0.00  0.00    +0.000 A 
ATOM     27  C   UNL     1       6.239   4.642  14.409  0.00  0.00    +0.000 A 
ATOM     28  C   UNL     1       5.149   4.494  15.265  0.00  0.00    +0.000 A 
BRANCH  26  29
ATOM     29  O   UNL     1       8.359   5.550  13.928  0.00  0.00    +0.000 OA
ATOM     30  H   UNL     1       9.194   5.363  14.386  0.00  0.00    +0.000 HD
ENDBRANCH  26  29
ENDBRANCH   9  23
BRANCH   6  31
ATOM     31  C   UNL     1       4.429   1.898  20.358  0.00  0.00    +0.000 C 
ATOM     32  N   UNL     1       5.281   1.113  20.323  0.00  0.00    +0.000 NA
ENDBRANCH   6  31
TORSDOF 6
ENDMDL
MODEL 2
REMARK VINA RESULT:      -7.7      5.143     10.218
REMARK  Name = 
REMARK  8 active torsions:
REMARK  status: ('A' for Active; 'I' for Inactive)
REMARK    1  A    between atoms: C_1  and  O_2
REMARK    2  A    between atoms: O_2  and  C_3
REMARK    3  A    between atoms: C_5  and  C_6
REMARK    4  A    between atoms: C_11  and  C_12
REMARK    5  A    between atoms: C_16  and  C_17
REMARK    6  A    between atoms: C_20  and  O_21
REMARK    7  A    between atoms: C_24  and  C_25
REMARK    8  A    between atoms: C_28  and  O_29
REMARK                            x       y       z     vdW  Elec       q    Type
REMARK                         _______ _______ _______ _____ _____    ______ ____
ROOT
ATOM      1  C   UNL     1      -0.141  10.903  18.200  0.00  0.00    +0.000 C 
ATOM      2  C   UNL     1       0.467  12.247  18.608  0.00  0.00    +0.000 A 
ATOM      3  C   UNL     1       1.866  12.432  18.533  0.00  0.00    +0.000 A 
ATOM      4  C   UNL     1       2.459  13.620  18.946  0.00  0.00    +0.000 A 
ATOM      5  C   UNL     1       1.662  14.650  19.425  0.00  0.00    +0.000 A 
ATOM      6  C   UNL     1       0.266  14.502  19.471  0.00  0.00    +0.000 A 
ATOM      7  C   UNL     1      -0.354  13.315  19.023  0.00  0.00    +0.000 A 
ATOM      8  N   UNL     1      -1.742  13.137  19.116  0.00  0.00    +0.000 N 
ATOM      9  C   UNL     1      -2.336  12.089  18.283  0.00  0.00    +0.000 C 
ATOM     10  C   UNL     1      -1.634  10.757  18.604  0.00  0.00    +0.000 C 
ATOM     11  C   UNL     1      -2.291   9.566  17.889  0.00  0.00    +0.000 C 
ATOM     12  H   UNL     1      -2.293  13.994  19.132  0.00  0.00    +0.000 HD
ENDROOT
BRANCH   1  15
ATOM     13  C   UNL     1       1.494   8.341  20.563  0.00  0.00    +0.000 A 
ATOM     14  C   UNL     1       0.713   9.396  20.079  0.00  0.00    +0.000 A 
ATOM     15  C   UNL     1       0.673   9.717  18.710  0.00  0.00    +0.000 A 
ATOM     16  C   UNL     1       1.426   8.945  17.818  0.00  0.00    +0.000 A 
ATOM     17  C   UNL     1       2.206   7.891  18.286  0.00  0.00    +0.000 A 
ATOM     18  C   UNL     1       2.245   7.592  19.652  0.00  0.00    +0.000 A 
BRANCH  13  20
ATOM     19  C   UNL     1       0.831   9.256  22.670  0.00  0.00    +0.000 C 
ATOM     20  O   UNL     1       1.409   8.197  21.922  0.00  0.00    +0.000 OA
ENDBRANCH  13  20
BRANCH  18  21
ATOM     21  O   UNL     1       3.043   6.557  20.059  0.00  0.00    +0.000 OA
ATOM     22  H   UNL     1       3.833   6.525  19.497  0.00  0.00    +0.000 HD
ENDBRANCH  18  21
ENDBRANCH   1  15
BRANCH   9  23
ATOM     23  C   UNL     1      -3.834  12.088  18.544  0.00  0.00    +0.000 A 
ATOM     24  C   UNL     1      -4.328  12.333  19.837  0.00  0.00    +0.000 A 
ATOM     25  C   UNL     1      -5.698  12.255  20.102  0.00  0.00    +0.000 A 
ATOM     26  C   UNL     1      -6.577  11.941  19.070  0.00  0.00    +0.000 A 
ATOM     27  C   UNL     1      -6.114  11.733  17.778  0.00  0.00    +0.000 A 
ATOM     28  C   UNL     1      -4.747  11.809  17.514  0.00  0.00    +0.000 A 
BRANCH  26  29
ATOM     29  O   UNL     1      -7.917  11.815  19.293  0.00  0.00    +0.000 OA
ATOM     30  H   UNL     1      -8.244  11.054  18.787  0.00  0.00    +0.000 HD
ENDBRANCH  26  29
ENDBRANCH   9  23
BRANCH   6  31
ATOM     31  C   UNL     1      -0.508  15.604  19.967  0.00  0.00    +0.000 C 
ATOM     32  N   UNL     1      -1.106  16.511  20.373  0.00  0.00    +0.000 NA
ENDBRANCH   6  31
TORSDOF 6
ENDMDL
MODEL 3
REMARK VINA RESULT:      -7.7      4.754     10.102
REMARK  Name = 
REMARK  8 active torsions:
REMARK  status: ('A' for Active; 'I' for Inactive)
REMARK    1  A    between atoms: C_1  and  O_2
REMARK    2  A    between atoms: O_2  and  C_3
REMARK    3  A    between atoms: C_5  and  C_6
REMARK    4  A    between atoms: C_11  and  C_12
REMARK    5  A    between atoms: C_16  and  C_17
REMARK    6  A    between atoms: C_20  and  O_21
REMARK    7  A    between atoms: C_24  and  C_25
REMARK    8  A    between atoms: C_28  and  O_29
REMARK                            x       y       z     vdW  Elec       q    Type
REMARK                         _______ _______ _______ _____ _____    ______ ____
ROOT
ATOM      1  C   UNL     1       0.057  10.818  18.256  0.00  0.00    +0.000 C 
ATOM      2  C   UNL     1       0.659  12.166  18.663  0.00  0.00    +0.000 A 
ATOM      3  C   UNL     1       2.059  12.344  18.628  0.00  0.00    +0.000 A 
ATOM      4  C   UNL     1       2.645  13.536  19.040  0.00  0.00    +0.000 A 
ATOM      5  C   UNL     1       1.838  14.576  19.478  0.00  0.00    +0.000 A 
ATOM      6  C   UNL     1       0.441  14.435  19.484  0.00  0.00    +0.000 A 
ATOM      7  C   UNL     1      -0.171  13.243  19.035  0.00  0.00    +0.000 A 
ATOM      8  N   UNL     1      -1.562  13.072  19.088  0.00  0.00    +0.000 N 
ATOM      9  C   UNL     1      -2.134  12.014  18.254  0.00  0.00    +0.000 C 
ATOM     10  C   UNL     1      -1.448  10.684  18.617  0.00  0.00    +0.000 C 
ATOM     11  C   UNL     1      -2.088   9.485  17.900  0.00  0.00    +0.000 C 
ATOM     12  H   UNL     1      -2.109  13.932  19.073  0.00  0.00    +0.000 HD
ENDROOT
BRANCH   1  15
ATOM     13  C   UNL     1       2.301   7.694  18.452  0.00  0.00    +0.000 A 
ATOM     14  C   UNL     1       1.608   8.808  17.963  0.00  0.00    +0.000 A 
ATOM     15  C   UNL     1       0.850   9.636  18.810  0.00  0.00    +0.000 A 
ATOM     16  C   UNL     1       0.806   9.338  20.176  0.00  0.00    +0.000 A 
ATOM     17  C   UNL     1       1.492   8.235  20.677  0.00  0.00    +0.000 A 
ATOM     18  C   UNL     1       2.232   7.413  19.820  0.00  0.00    +0.000 A 
BRANCH  13  20
ATOM     19  C   UNL     1       4.383   7.085  17.449  0.00  0.00    +0.000 C 
ATOM     20  O   UNL     1       2.966   7.010  17.472  0.00  0.00    +0.000 OA
ENDBRANCH  13  20
BRANCH  18  21
ATOM     21  O   UNL     1       2.870   6.331  20.363  0.00  0.00    +0.000 OA
ATOM     22  H   UNL     1       3.498   6.637  21.037  0.00  0.00    +0.000 HD
ENDBRANCH  18  21
ENDBRANCH   1  15
BRANCH   9  23
ATOM     23  C   UNL     1      -3.639  12.023  18.468  0.00  0.00    +0.000 A 
ATOM     24  C   UNL     1      -4.173  12.335  19.731  0.00  0.00    +0.000 A 
ATOM     25  C   UNL     1      -5.550  12.269  19.957  0.00  0.00    +0.000 A 
ATOM     26  C   UNL     1      -6.397  11.897  18.917  0.00  0.00    +0.000 A 
ATOM     27  C   UNL     1      -5.894  11.621  17.653  0.00  0.00    +0.000 A 
ATOM     28  C   UNL     1      -4.520  11.686  17.427  0.00  0.00    +0.000 A 
BRANCH  26  29
ATOM     29  O   UNL     1      -7.743  11.780  19.105  0.00  0.00    +0.000 OA
ATOM     30  H   UNL     1      -7.977  12.215  19.941  0.00  0.00    +0.000 HD
ENDBRANCH  26  29
ENDBRANCH   9  23
BRANCH   6  31
ATOM     31  C   UNL     1      -0.343  15.547  19.939  0.00  0.00    +0.000 C 
ATOM     32  N   UNL     1      -1.002  16.428  20.305  0.00  0.00    +0.000 NA
ENDBRANCH   6  31
TORSDOF 6
ENDMDL
MODEL 4
REMARK VINA RESULT:      -7.5      5.994     11.422
REMARK  Name = 
REMARK  8 active torsions:
REMARK  status: ('A' for Active; 'I' for Inactive)
REMARK    1  A    between atoms: C_1  and  O_2
REMARK    2  A    between atoms: O_2  and  C_3
REMARK    3  A    between atoms: C_5  and  C_6
REMARK    4  A    between atoms: C_11  and  C_12
REMARK    5  A    between atoms: C_16  and  C_17
REMARK    6  A    between atoms: C_20  and  O_21
REMARK    7  A    between atoms: C_24  and  C_25
REMARK    8  A    between atoms: C_28  and  O_29
REMARK                            x       y       z     vdW  Elec       q    Type
REMARK                         _______ _______ _______ _____ _____    ______ ____
ROOT
ATOM      1  C   UNL     1      -1.654  11.630  19.465  0.00  0.00    +0.000 C 
ATOM      2  C   UNL     1      -2.648  11.392  18.326  0.00  0.00    +0.000 A 
ATOM      3  C   UNL     1      -2.264  10.604  17.218  0.00  0.00    +0.000 A 
ATOM      4  C   UNL     1      -3.122  10.410  16.141  0.00  0.00    +0.000 A 
ATOM      5  C   UNL     1      -4.383  10.985  16.160  0.00  0.00    +0.000 A 
ATOM      6  C   UNL     1      -4.800  11.739  17.270  0.00  0.00    +0.000 A 
ATOM      7  C   UNL     1      -3.954  11.917  18.387  0.00  0.00    +0.000 A 
ATOM      8  N   UNL     1      -4.340  12.713  19.475  0.00  0.00    +0.000 N 
ATOM      9  C   UNL     1      -3.611  12.523  20.730  0.00  0.00    +0.000 C 
ATOM     10  C   UNL     1      -2.111  12.735  20.458  0.00  0.00    +0.000 C 
ATOM     11  C   UNL     1      -1.276  12.704  21.747  0.00  0.00    +0.000 C 
ATOM     12  H   UNL     1      -5.346  12.813  19.609  0.00  0.00    +0.000 HD
ENDROOT
BRANCH   1  15
ATOM     13  C   UNL     1       1.980  11.125  18.295  0.00  0.00    +0.000 A 
ATOM     14  C   UNL     1       0.670  10.873  18.716  0.00  0.00    +0.000 A 
ATOM     15  C   UNL     1      -0.243  11.916  18.956  0.00  0.00    +0.000 A 
ATOM     16  C   UNL     1       0.177  13.234  18.751  0.00  0.00    +0.000 A 
ATOM     17  C   UNL     1       1.478  13.500  18.330  0.00  0.00    +0.000 A 
ATOM     18  C   UNL     1       2.378  12.452  18.107  0.00  0.00    +0.000 A 
BRANCH  13  20
ATOM     19  C   UNL     1       2.024   8.789  17.791  0.00  0.00    +0.000 C 
ATOM     20  O   UNL     1       2.714   9.982  18.130  0.00  0.00    +0.000 OA
ENDBRANCH  13  20
BRANCH  18  21
ATOM     21  O   UNL     1       3.649  12.771  17.713  0.00  0.00    +0.000 OA
ATOM     22  H   UNL     1       3.664  13.691  17.404  0.00  0.00    +0.000 HD
ENDBRANCH  18  21
ENDBRANCH   1  15
BRANCH   9  23
ATOM     23  C   UNL     1      -4.204  13.477  21.756  0.00  0.00    +0.000 A 
ATOM     24  C   UNL     1      -4.257  14.856  21.491  0.00  0.00    +0.000 A 
ATOM     25  C   UNL     1      -4.727  15.749  22.459  0.00  0.00    +0.000 A 
ATOM     26  C   UNL     1      -5.152  15.260  23.691  0.00  0.00    +0.000 A 
ATOM     27  C   UNL     1      -5.143  13.898  23.958  0.00  0.00    +0.000 A 
ATOM     28  C   UNL     1      -4.673  13.008  22.994  0.00  0.00    +0.000 A 
BRANCH  26  29
ATOM     29  O   UNL     1      -5.579  16.099  24.678  0.00  0.00    +0.000 OA
ATOM     30  H   UNL     1      -6.462  15.815  24.963  0.00  0.00    +0.000 HD
ENDBRANCH  26  29
ENDBRANCH   9  23
BRANCH   6  31
ATOM     31  C   UNL     1      -6.119  12.303  17.238  0.00  0.00    +0.000 C 
ATOM     32  N   UNL     1      -7.174  12.785  17.227  0.00  0.00    +0.000 NA
ENDBRANCH   6  31
TORSDOF 6
ENDMDL
MODEL 5
REMARK VINA RESULT:      -7.4      7.267     11.413
REMARK  Name = 
REMARK  8 active torsions:
REMARK  status: ('A' for Active; 'I' for Inactive)
REMARK    1  A    between atoms: C_1  and  O_2
REMARK    2  A    between atoms: O_2  and  C_3
REMARK    3  A    between atoms: C_5  and  C_6
REMARK    4  A    between atoms: C_11  and  C_12
REMARK    5  A    between atoms: C_16  and  C_17
REMARK    6  A    between atoms: C_20  and  O_21
REMARK    7  A    between atoms: C_24  and  C_25
REMARK    8  A    between atoms: C_28  and  O_29
REMARK                            x       y       z     vdW  Elec       q    Type
REMARK                         _______ _______ _______ _____ _____    ______ ____
ROOT
ATOM      1  C   UNL     1      -1.487  11.721  19.569  0.00  0.00    +0.000 C 
ATOM      2  C   UNL     1      -2.426  11.435  18.395  0.00  0.00    +0.000 A 
ATOM      3  C   UNL     1      -1.965  10.664  17.304  0.00  0.00    +0.000 A 
ATOM      4  C   UNL     1      -2.773  10.429  16.197  0.00  0.00    +0.000 A 
ATOM      5  C   UNL     1      -4.060  10.946  16.168  0.00  0.00    +0.000 A 
ATOM      6  C   UNL     1      -4.551  11.682  17.258  0.00  0.00    +0.000 A 
ATOM      7  C   UNL     1      -3.757  11.900  18.406  0.00  0.00    +0.000 A 
ATOM      8  N   UNL     1      -4.219  12.680  19.476  0.00  0.00    +0.000 N 
ATOM      9  C   UNL     1      -3.529  12.525  20.757  0.00  0.00    +0.000 C 
ATOM     10  C   UNL     1      -2.031  12.805  20.540  0.00  0.00    +0.000 C 
ATOM     11  C   UNL     1      -1.243  12.816  21.860  0.00  0.00    +0.000 C 
ATOM     12  H   UNL     1      -5.232  12.734  19.572  0.00  0.00    +0.000 HD
ENDROOT
BRANCH   1  15
ATOM     13  C   UNL     1       1.600  13.736  18.455  0.00  0.00    +0.000 A 
ATOM     14  C   UNL     1       0.322  13.406  18.921  0.00  0.00    +0.000 A 
ATOM     15  C   UNL     1      -0.072  12.070  19.111  0.00  0.00    +0.000 A 
ATOM     16  C   UNL     1       0.849  11.053  18.839  0.00  0.00    +0.000 A 
ATOM     17  C   UNL     1       2.125  11.366  18.377  0.00  0.00    +0.000 A 
ATOM     18  C   UNL     1       2.499  12.700  18.181  0.00  0.00    +0.000 A 
BRANCH  13  20
ATOM     19  C   UNL     1       0.915  15.951  19.034  0.00  0.00    +0.000 C 
ATOM     20  O   UNL     1       1.786  15.086  18.324  0.00  0.00    +0.000 OA
ENDBRANCH  13  20
BRANCH  18  21
ATOM     21  O   UNL     1       3.758  12.950  17.707  0.00  0.00    +0.000 OA
ATOM     22  H   UNL     1       4.365  12.273  18.046  0.00  0.00    +0.000 HD
ENDBRANCH  18  21
ENDBRANCH   1  15
BRANCH   9  23
ATOM     23  C   UNL     1      -4.202  13.453  21.757  0.00  0.00    +0.000 A 
ATOM     24  C   UNL     1      -4.255  14.836  21.514  0.00  0.00    +0.000 A 
ATOM     25  C   UNL     1      -4.801  15.705  22.463  0.00  0.00    +0.000 A 
ATOM     26  C   UNL     1      -5.303  15.189  23.654  0.00  0.00    +0.000 A 
ATOM     27  C   UNL     1      -5.294  13.822  23.898  0.00  0.00    +0.000 A 
ATOM     28  C   UNL     1      -4.748  12.955  22.951  0.00  0.00    +0.000 A 
BRANCH  26  29
ATOM     29  O   UNL     1      -5.806  16.003  24.624  0.00  0.00    +0.000 OA
ATOM     30  H   UNL     1      -5.664  16.926  24.358  0.00  0.00    +0.000 HD
ENDBRANCH  26  29
ENDBRANCH   9  23
BRANCH   6  31
ATOM     31  C   UNL     1      -5.893  12.184  17.176  0.00  0.00    +0.000 C 
ATOM     32  N   UNL     1      -6.979  12.590  17.142  0.00  0.00    +0.000 NA
ENDBRANCH   6  31
TORSDOF 6
ENDMDL
MODEL 6
REMARK VINA RESULT:      -7.0      4.449      8.159
REMARK  Name = 
REMARK  8 active torsions:
REMARK  status: ('A' for Active; 'I' for Inactive)
REMARK    1  A    between atoms: C_1  and  O_2
REMARK    2  A    between atoms: O_2  and  C_3
REMARK    3  A    between atoms: C_5  and  C_6
REMARK    4  A    between atoms: C_11  and  C_12
REMARK    5  A    between atoms: C_16  and  C_17
REMARK    6  A    between atoms: C_20  and  O_21
REMARK    7  A    between atoms: C_24  and  C_25
REMARK    8  A    between atoms: C_28  and  O_29
REMARK                            x       y       z     vdW  Elec       q    Type
REMARK                         _______ _______ _______ _____ _____    ______ ____
ROOT
ATOM      1  C   UNL     1      -1.425  11.635  19.464  0.00  0.00    +0.000 C 
ATOM      2  C   UNL     1      -0.575  12.895  19.276  0.00  0.00    +0.000 A 
ATOM      3  C   UNL     1      -1.173  14.167  19.415  0.00  0.00    +0.000 A 
ATOM      4  C   UNL     1      -0.445  15.333  19.199  0.00  0.00    +0.000 A 
ATOM      5  C   UNL     1       0.896  15.246  18.859  0.00  0.00    +0.000 A 
ATOM      6  C   UNL     1       1.520  13.993  18.754  0.00  0.00    +0.000 A 
ATOM      7  C   UNL     1       0.805  12.801  19.004  0.00  0.00    +0.000 A 
ATOM      8  N   UNL     1       1.405  11.543  18.849  0.00  0.00    +0.000 N 
ATOM      9  C   UNL     1       0.748  10.408  19.500  0.00  0.00    +0.000 C 
ATOM     10  C   UNL     1      -0.707  10.337  19.003  0.00  0.00    +0.000 C 
ATOM     11  C   UNL     1      -1.437   9.086  19.516  0.00  0.00    +0.000 C 
ATOM     12  H   UNL     1       2.419  11.527  18.947  0.00  0.00    +0.000 HD
ENDROOT
BRANCH   1  15
ATOM     13  C   UNL     1      -4.231  11.552  16.828  0.00  0.00    +0.000 A 
ATOM     14  C   UNL     1      -2.990  11.401  17.457  0.00  0.00    +0.000 A 
ATOM     15  C   UNL     1      -2.797  11.755  18.804  0.00  0.00    +0.000 A 
ATOM     16  C   UNL     1      -3.883  12.257  19.528  0.00  0.00    +0.000 A 
ATOM     17  C   UNL     1      -5.125  12.411  18.916  0.00  0.00    +0.000 A 
ATOM     18  C   UNL     1      -5.298  12.065  17.572  0.00  0.00    +0.000 A 
BRANCH  13  20
ATOM     19  C   UNL     1      -3.063  10.483  15.037  0.00  0.00    +0.000 C 
ATOM     20  O   UNL     1      -4.212  11.165  15.516  0.00  0.00    +0.000 OA
ENDBRANCH  13  20
BRANCH  18  21
ATOM     21  O   UNL     1      -6.534  12.254  17.015  0.00  0.00    +0.000 OA
ATOM     22  H   UNL     1      -7.082  12.771  17.627  0.00  0.00    +0.000 HD
ENDBRANCH  18  21
ENDBRANCH   1  15
BRANCH   9  23
ATOM     23  C   UNL     1       1.574   9.166  19.203  0.00  0.00    +0.000 A 
ATOM     24  C   UNL     1       2.195   9.012  17.952  0.00  0.00    +0.000 A 
ATOM     25  C   UNL     1       2.890   7.839  17.642  0.00  0.00    +0.000 A 
ATOM     26  C   UNL     1       2.971   6.822  18.589  0.00  0.00    +0.000 A 
ATOM     27  C   UNL     1       2.397   6.970  19.844  0.00  0.00    +0.000 A 
ATOM     28  C   UNL     1       1.703   8.139  20.153  0.00  0.00    +0.000 A 
BRANCH  26  29
ATOM     29  O   UNL     1       3.604   5.646  18.314  0.00  0.00    +0.000 OA
ATOM     30  H   UNL     1       4.518   5.704  18.634  0.00  0.00    +0.000 HD
ENDBRANCH  26  29
ENDBRANCH   9  23
BRANCH   6  31
ATOM     31  C   UNL     1       2.913  13.965  18.408  0.00  0.00    +0.000 C 
ATOM     32  N   UNL     1       4.030  13.931  18.099  0.00  0.00    +0.000 NA
ENDBRANCH   6  31
TORSDOF 6
ENDMDL
MODEL 7
REMARK VINA RESULT:      -7.0      8.844     10.885
REMARK  Name = 
REMARK  8 active torsions:
REMARK  status: ('A' for Active; 'I' for Inactive)
REMARK    1  A    between atoms: C_1  and  O_2
REMARK    2  A    between atoms: O_2  and  C_3
REMARK    3  A    between atoms: C_5  and  C_6
REMARK    4  A    between atoms: C_11  and  C_12
REMARK    5  A    between atoms: C_16  and  C_17
REMARK    6  A    between atoms: C_20  and  O_21
REMARK    7  A    between atoms: C_24  and  C_25
REMARK    8  A    between atoms: C_28  and  O_29
REMARK                            x       y       z     vdW  Elec       q    Type
REMARK                         _______ _______ _______ _____ _____    ______ ____
ROOT
ATOM      1  C   UNL     1       8.099  15.174  22.200  0.00  0.00    +0.000 C 
ATOM      2  C   UNL     1       6.672  15.418  21.704  0.00  0.00    +0.000 A 
ATOM      3  C   UNL     1       5.674  15.822  22.618  0.00  0.00    +0.000 A 
ATOM      4  C   UNL     1       4.356  16.002  22.213  0.00  0.00    +0.000 A 
ATOM      5  C   UNL     1       4.016  15.797  20.884  0.00  0.00    +0.000 A 
ATOM      6  C   UNL     1       5.000  15.434  19.951  0.00  0.00    +0.000 A 
ATOM      7  C   UNL     1       6.350  15.281  20.338  0.00  0.00    +0.000 A 
ATOM      8  N   UNL     1       7.329  14.865  19.425  0.00  0.00    +0.000 N 
ATOM      9  C   UNL     1       8.725  15.119  19.785  0.00  0.00    +0.000 C 
ATOM     10  C   UNL     1       9.001  14.467  21.151  0.00  0.00    +0.000 C 
ATOM     11  C   UNL     1      10.483  14.549  21.547  0.00  0.00    +0.000 C 
ATOM     12  H   UNL     1       7.127  15.064  18.446  0.00  0.00    +0.000 HD
ENDROOT
BRANCH   1  15
ATOM     13  C   UNL     1       7.592  12.447  24.872  0.00  0.00    +0.000 A 
ATOM     14  C   UNL     1       7.611  13.124  23.647  0.00  0.00    +0.000 A 
ATOM     15  C   UNL     1       8.132  14.425  23.531  0.00  0.00    +0.000 A 
ATOM     16  C   UNL     1       8.654  15.043  24.672  0.00  0.00    +0.000 A 
ATOM     17  C   UNL     1       8.644  14.380  25.897  0.00  0.00    +0.000 A 
ATOM     18  C   UNL     1       8.111  13.090  25.999  0.00  0.00    +0.000 A 
BRANCH  13  20
ATOM     19  C   UNL     1       5.692  11.036  25.206  0.00  0.00    +0.000 C 
ATOM     20  O   UNL     1       7.035  11.200  24.780  0.00  0.00    +0.000 OA
ENDBRANCH  13  20
BRANCH  18  21
ATOM     21  O   UNL     1       8.109  12.493  27.230  0.00  0.00    +0.000 OA
ATOM     22  H   UNL     1       8.414  11.576  27.140  0.00  0.00    +0.000 HD
ENDBRANCH  18  21
ENDBRANCH   1  15
BRANCH   9  23
ATOM     23  C   UNL     1       9.594  14.595  18.653  0.00  0.00    +0.000 A 
ATOM     24  C   UNL     1       9.569  13.232  18.313  0.00  0.00    +0.000 A 
ATOM     25  C   UNL     1      10.423  12.728  17.328  0.00  0.00    +0.000 A 
ATOM     26  C   UNL     1      11.297  13.591  16.674  0.00  0.00    +0.000 A 
ATOM     27  C   UNL     1      11.311  14.947  16.968  0.00  0.00    +0.000 A 
ATOM     28  C   UNL     1      10.461  15.450  17.952  0.00  0.00    +0.000 A 
BRANCH  26  29
ATOM     29  O   UNL     1      12.175  13.135  15.736  0.00  0.00    +0.000 OA
ATOM     30  H   UNL     1      12.764  12.485  16.153  0.00  0.00    +0.000 HD
ENDBRANCH  26  29
ENDBRANCH   9  23
BRANCH   6  31
ATOM     31  C   UNL     1       4.592  15.244  18.588  0.00  0.00    +0.000 C 
ATOM     32  N   UNL     1       4.280  15.116  17.478  0.00  0.00    +0.000 NA
ENDBRANCH   6  31
TORSDOF 6
ENDMDL
MODEL 8
REMARK VINA RESULT:      -7.0      7.890     11.416
REMARK  Name = 
REMARK  8 active torsions:
REMARK  status: ('A' for Active; 'I' for Inactive)
REMARK    1  A    between atoms: C_1  and  O_2
REMARK    2  A    between atoms: O_2  and  C_3
REMARK    3  A    between atoms: C_5  and  C_6
REMARK    4  A    between atoms: C_11  and  C_12
REMARK    5  A    between atoms: C_16  and  C_17
REMARK    6  A    between atoms: C_20  and  O_21
REMARK    7  A    between atoms: C_24  and  C_25
REMARK    8  A    between atoms: C_28  and  O_29
REMARK                            x       y       z     vdW  Elec       q    Type
REMARK                         _______ _______ _______ _____ _____    ______ ____
ROOT
ATOM      1  C   UNL     1       7.906  15.132  19.554  0.00  0.00    +0.000 C 
ATOM      2  C   UNL     1       8.030  14.958  21.070  0.00  0.00    +0.000 A 
ATOM      3  C   UNL     1       9.306  14.994  21.674  0.00  0.00    +0.000 A 
ATOM      4  C   UNL     1       9.462  14.787  23.041  0.00  0.00    +0.000 A 
ATOM      5  C   UNL     1       8.343  14.556  23.828  0.00  0.00    +0.000 A 
ATOM      6  C   UNL     1       7.062  14.555  23.253  0.00  0.00    +0.000 A 
ATOM      7  C   UNL     1       6.883  14.798  21.873  0.00  0.00    +0.000 A 
ATOM      8  N   UNL     1       5.613  14.745  21.281  0.00  0.00    +0.000 N 
ATOM      9  C   UNL     1       5.460  15.390  19.976  0.00  0.00    +0.000 C 
ATOM     10  C   UNL     1       6.493  14.784  19.010  0.00  0.00    +0.000 C 
ATOM     11  C   UNL     1       6.311  15.291  17.571  0.00  0.00    +0.000 C 
ATOM     12  H   UNL     1       4.830  14.922  21.909  0.00  0.00    +0.000 HD
ENDROOT
BRANCH   1  15
ATOM     13  C   UNL     1       9.966  12.239  18.063  0.00  0.00    +0.000 A 
ATOM     14  C   UNL     1       8.960  12.958  18.719  0.00  0.00    +0.000 A 
ATOM     15  C   UNL     1       8.982  14.362  18.790  0.00  0.00    +0.000 A 
ATOM     16  C   UNL     1      10.033  15.049  18.173  0.00  0.00    +0.000 A 
ATOM     17  C   UNL     1      11.040  14.347  17.515  0.00  0.00    +0.000 A 
ATOM     18  C   UNL     1      11.010  12.949  17.463  0.00  0.00    +0.000 A 
BRANCH  13  20
ATOM     19  C   UNL     1       9.293  10.327  19.329  0.00  0.00    +0.000 C 
ATOM     20  O   UNL     1       9.772  10.886  18.116  0.00  0.00    +0.000 OA
ENDBRANCH  13  20
BRANCH  18  21
ATOM     21  O   UNL     1      12.035  12.310  16.820  0.00  0.00    +0.000 OA
ATOM     22  H   UNL     1      11.708  11.950  15.980  0.00  0.00    +0.000 HD
ENDBRANCH  18  21
ENDBRANCH   1  15
BRANCH   9  23
ATOM     23  C   UNL     1       4.014  15.212  19.542  0.00  0.00    +0.000 A 
ATOM     24  C   UNL     1       3.248  16.326  19.156  0.00  0.00    +0.000 A 
ATOM     25  C   UNL     1       1.897  16.182  18.831  0.00  0.00    +0.000 A 
ATOM     26  C   UNL     1       1.310  14.921  18.885  0.00  0.00    +0.000 A 
ATOM     27  C   UNL     1       2.058  13.803  19.228  0.00  0.00    +0.000 A 
ATOM     28  C   UNL     1       3.406  13.946  19.552  0.00  0.00    +0.000 A 
BRANCH  26  29
ATOM     29  O   UNL     1      -0.014  14.742  18.616  0.00  0.00    +0.000 OA
ATOM     30  H   UNL     1      -0.099  14.094  17.899  0.00  0.00    +0.000 HD
ENDBRANCH  26  29
ENDBRANCH   9  23
BRANCH   6  31
ATOM     31  C   UNL     1       5.941  14.319  24.118  0.00  0.00    +0.000 C 
ATOM     32  N   UNL     1       5.031  14.100  24.803  0.00  0.00    +0.000 NA
ENDBRANCH   6  31
TORSDOF 6
ENDMDL
MODEL 9
REMARK VINA RESULT:      -7.0      4.487      8.326
REMARK  Name = 
REMARK  8 active torsions:
REMARK  status: ('A' for Active; 'I' for Inactive)
REMARK    1  A    between atoms: C_1  and  O_2
REMARK    2  A    between atoms: O_2  and  C_3
REMARK    3  A    between atoms: C_5  and  C_6
REMARK    4  A    between atoms: C_11  and  C_12
REMARK    5  A    between atoms: C_16  and  C_17
REMARK    6  A    between atoms: C_20  and  O_21
REMARK    7  A    between atoms: C_24  and  C_25
REMARK    8  A    between atoms: C_28  and  O_29
REMARK                            x       y       z     vdW  Elec       q    Type
REMARK                         _______ _______ _______ _____ _____    ______ ____
ROOT
ATOM      1  C   UNL     1      -1.451  11.726  19.483  0.00  0.00    +0.000 C 
ATOM      2  C   UNL     1      -0.594  12.981  19.300  0.00  0.00    +0.000 A 
ATOM      3  C   UNL     1      -1.180  14.256  19.458  0.00  0.00    +0.000 A 
ATOM      4  C   UNL     1      -0.446  15.418  19.248  0.00  0.00    +0.000 A 
ATOM      5  C   UNL     1       0.892  15.325  18.892  0.00  0.00    +0.000 A 
ATOM      6  C   UNL     1       1.505  14.068  18.768  0.00  0.00    +0.000 A 
ATOM      7  C   UNL     1       0.782  12.879  19.012  0.00  0.00    +0.000 A 
ATOM      8  N   UNL     1       1.371  11.618  18.837  0.00  0.00    +0.000 N 
ATOM      9  C   UNL     1       0.712  10.481  19.483  0.00  0.00    +0.000 C 
ATOM     10  C   UNL     1      -0.748  10.427  19.000  0.00  0.00    +0.000 C 
ATOM     11  C   UNL     1      -1.482   9.176  19.507  0.00  0.00    +0.000 C 
ATOM     12  H   UNL     1       2.386  11.593  18.924  0.00  0.00    +0.000 HD
ENDROOT
BRANCH   1  15
ATOM     13  C   UNL     1      -5.220  12.365  19.019  0.00  0.00    +0.000 A 
ATOM     14  C   UNL     1      -3.943  12.281  19.587  0.00  0.00    +0.000 A 
ATOM     15  C   UNL     1      -2.829  11.863  18.839  0.00  0.00    +0.000 A 
ATOM     16  C   UNL     1      -3.009  11.540  17.490  0.00  0.00    +0.000 A 
ATOM     17  C   UNL     1      -4.274  11.621  16.911  0.00  0.00    +0.000 A 
ATOM     18  C   UNL     1      -5.375  12.026  17.672  0.00  0.00    +0.000 A 
BRANCH  13  20
ATOM     19  C   UNL     1      -6.761  11.802  20.759  0.00  0.00    +0.000 C 
ATOM     20  O   UNL     1      -6.172  12.777  19.912  0.00  0.00    +0.000 OA
ENDBRANCH  13  20
BRANCH  18  21
ATOM     21  O   UNL     1      -6.597  12.069  17.058  0.00  0.00    +0.000 OA
ATOM     22  H   UNL     1      -6.598  11.455  16.306  0.00  0.00    +0.000 HD
ENDBRANCH  18  21
ENDBRANCH   1  15
BRANCH   9  23
ATOM     23  C   UNL     1       1.526   9.236  19.164  0.00  0.00    +0.000 A 
ATOM     24  C   UNL     1       2.113   9.080  17.897  0.00  0.00    +0.000 A 
ATOM     25  C   UNL     1       2.795   7.905  17.568  0.00  0.00    +0.000 A 
ATOM     26  C   UNL     1       2.897   6.887  18.512  0.00  0.00    +0.000 A 
ATOM     27  C   UNL     1       2.357   7.037  19.782  0.00  0.00    +0.000 A 
ATOM     28  C   UNL     1       1.675   8.208  20.109  0.00  0.00    +0.000 A 
BRANCH  26  29
ATOM     29  O   UNL     1       3.518   5.709  18.220  0.00  0.00    +0.000 OA
ATOM     30  H   UNL     1       3.289   5.456  17.311  0.00  0.00    +0.000 HD
ENDBRANCH  26  29
ENDBRANCH   9  23
BRANCH   6  31
ATOM     31  C   UNL     1       2.894  14.033  18.406  0.00  0.00    +0.000 C 
ATOM     32  N   UNL     1       4.023  14.013  18.144  0.00  0.00    +0.000 NA
ENDBRANCH   6  31
TORSDOF 6
ENDMDL
