MODEL 1
REMARK VINA RESULT:      -9.0      0.000      0.000
REMARK  Name = 
REMARK  6 active torsions:
REMARK  status: ('A' for Active; 'I' for Inactive)
REMARK    1  A    between atoms: C_1  and  C_2
REMARK    2  A    between atoms: C_4  and  C_5
REMARK    3  A    between atoms: C_8  and  C_9
REMARK    4  A    between atoms: C_9  and  C_10
REMARK    5  A    between atoms: C_10  and  C_11
REMARK    6  A    between atoms: C_13  and  O_14
REMARK                            x       y       z     vdW  Elec       q    Type
REMARK                         _______ _______ _______ _____ _____    ______ ____
ROOT
ATOM      1  C   UNL     1       2.105   6.738  20.157  0.00  0.00    +0.000 A 
ATOM      2  C   UNL     1       2.412   7.315  18.807  0.00  0.00    +0.000 A 
ATOM      3  C   UNL     1       1.935   8.544  18.552  0.00  0.00    +0.000 A 
ATOM      4  N   UNL     1       1.193   9.220  19.542  0.00  0.00    +0.000 N 
ATOM      5  N   UNL     1       0.640  10.465  19.454  0.00  0.00    +0.000 NA
ATOM      6  C   UNL     1       0.034  10.676  20.629  0.00  0.00    +0.000 A 
ATOM      7  C   UNL     1      -0.690  11.799  21.065  0.00  0.00    +0.000 A 
ATOM      8  C   UNL     1      -1.198  11.676  22.376  0.00  0.00    +0.000 A 
ATOM      9  C   UNL     1      -1.000  10.517  23.189  0.00  0.00    +0.000 A 
ATOM     10  C   UNL     1      -0.279   9.377  22.773  0.00  0.00    +0.000 A 
ATOM     11  C   UNL     1       0.210   9.530  21.478  0.00  0.00    +0.000 A 
ATOM     12  C   UNL     1       0.953   8.607  20.781  0.00  0.00    +0.000 A 
ATOM     13  N   UNL     1       1.417   7.349  21.080  0.00  0.00    +0.000 NA
ENDROOT
BRANCH   3  14
ATOM     14  O   UNL     1       2.150   9.172  17.333  0.00  0.00    +0.000 OA
ATOM     15  H   UNL     1       2.999   9.640  17.347  0.00  0.00    +0.000 HD
ENDBRANCH   3  14
BRANCH   1  16
ATOM     16  C   UNL     1       2.612   5.325  20.427  0.00  0.00    +0.000 C 
BRANCH  16  17
ATOM     17  C   UNL     1       2.387   4.406  19.229  0.00  0.00    +0.000 C 
BRANCH  17  25
ATOM     18  C   UNL     1       6.871   4.181  13.571  0.00  0.00    +0.000 C 
ATOM     19  C   UNL     1       6.337   4.327  14.977  0.00  0.00    +0.000 A 
ATOM     20  C   UNL     1       7.323   4.721  16.034  0.00  0.00    +0.000 A 
ATOM     21  C   UNL     1       6.843   4.850  17.283  0.00  0.00    +0.000 A 
ATOM     22  C   UNL     1       7.698   5.239  18.449  0.00  0.00    +0.000 C 
ATOM     23  N   UNL     1       5.483   4.613  17.511  0.00  0.00    +0.000 N 
ATOM     24  N   UNL     1       4.783   4.687  18.671  0.00  0.00    +0.000 NA
ATOM     25  C   UNL     1       3.541   4.383  18.283  0.00  0.00    +0.000 A 
ATOM     26  N   UNL     1       3.402   4.107  16.949  0.00  0.00    +0.000 NA
ATOM     27  C   UNL     1       4.620   4.251  16.466  0.00  0.00    +0.000 A 
ATOM     28  N   UNL     1       5.069   4.106  15.182  0.00  0.00    +0.000 NA
ENDBRANCH  17  25
ENDBRANCH  16  17
ENDBRANCH   1  16
TORSDOF 4
ENDMDL
MODEL 2
REMARK VINA RESULT:      -8.9      2.021      8.519
REMARK  Name = 
REMARK  6 active torsions:
REMARK  status: ('A' for Active; 'I' for Inactive)
REMARK    1  A    between atoms: C_1  and  C_2
REMARK    2  A    between atoms: C_4  and  C_5
REMARK    3  A    between atoms: C_8  and  C_9
REMARK    4  A    between atoms: C_9  and  C_10
REMARK    5  A    between atoms: C_10  and  C_11
REMARK    6  A    between atoms: C_13  and  O_14
REMARK                            x       y       z     vdW  Elec       q    Type
REMARK                         _______ _______ _______ _____ _____    ______ ____
ROOT
ATOM      1  C   UNL     1       5.088   4.094  17.905  0.00  0.00    +0.000 A 
ATOM      2  C   UNL     1       6.053   5.108  18.444  0.00  0.00    +0.000 A 
ATOM      3  C   UNL     1       6.915   5.647  17.567  0.00  0.00    +0.000 A 
ATOM      4  N   UNL     1       6.870   5.250  16.215  0.00  0.00    +0.000 N 
ATOM      5  N   UNL     1       7.663   5.693  15.197  0.00  0.00    +0.000 NA
ATOM      6  C   UNL     1       7.255   5.033  14.106  0.00  0.00    +0.000 A 
ATOM      7  C   UNL     1       7.737   5.113  12.788  0.00  0.00    +0.000 A 
ATOM      8  C   UNL     1       7.066   4.262  11.883  0.00  0.00    +0.000 A 
ATOM      9  C   UNL     1       5.995   3.396  12.266  0.00  0.00    +0.000 A 
ATOM     10  C   UNL     1       5.495   3.298  13.582  0.00  0.00    +0.000 A 
ATOM     11  C   UNL     1       6.175   4.149  14.450  0.00  0.00    +0.000 A 
ATOM     12  C   UNL     1       5.932   4.294  15.794  0.00  0.00    +0.000 A 
ATOM     13  N   UNL     1       5.036   3.714  16.660  0.00  0.00    +0.000 NA
ENDROOT
BRANCH   3  14
ATOM     14  O   UNL     1       7.858   6.587  17.956  0.00  0.00    +0.000 OA
ATOM     15  H   UNL     1       8.750   6.268  17.747  0.00  0.00    +0.000 HD
ENDBRANCH   3  14
BRANCH   1  16
ATOM     16  C   UNL     1       4.139   3.452  18.913  0.00  0.00    +0.000 C 
BRANCH  16  17
ATOM     17  C   UNL     1       2.679   3.766  18.594  0.00  0.00    +0.000 C 
BRANCH  17  25
ATOM     18  C   UNL     1       0.529   9.477  22.457  0.00  0.00    +0.000 C 
ATOM     19  C   UNL     1       1.015   8.614  21.315  0.00  0.00    +0.000 A 
ATOM     20  C   UNL     1       1.332   9.315  20.030  0.00  0.00    +0.000 A 
ATOM     21  C   UNL     1       1.765   8.543  19.017  0.00  0.00    +0.000 A 
ATOM     22  C   UNL     1       2.124   9.090  17.671  0.00  0.00    +0.000 C 
ATOM     23  N   UNL     1       1.889   7.165  19.226  0.00  0.00    +0.000 N 
ATOM     24  N   UNL     1       2.305   6.203  18.365  0.00  0.00    +0.000 NA
ATOM     25  C   UNL     1       2.241   5.096  19.109  0.00  0.00    +0.000 A 
ATOM     26  N   UNL     1       1.797   5.284  20.391  0.00  0.00    +0.000 NA
ATOM     27  C   UNL     1       1.576   6.582  20.463  0.00  0.00    +0.000 A 
ATOM     28  N   UNL     1       1.130   7.333  21.517  0.00  0.00    +0.000 NA
ENDBRANCH  17  25
ENDBRANCH  16  17
ENDBRANCH   1  16
TORSDOF 4
ENDMDL
MODEL 3
REMARK VINA RESULT:      -8.9      2.314      8.414
REMARK  Name = 
REMARK  6 active torsions:
REMARK  status: ('A' for Active; 'I' for Inactive)
REMARK    1  A    between atoms: C_1  and  C_2
REMARK    2  A    between atoms: C_4  and  C_5
REMARK    3  A    between atoms: C_8  and  C_9
REMARK    4  A    between atoms: C_9  and  C_10
REMARK    5  A    between atoms: C_10  and  C_11
REMARK    6  A    between atoms: C_13  and  O_14
REMARK                            x       y       z     vdW  Elec       q    Type
REMARK                         _______ _______ _______ _____ _____    ______ ____
ROOT
ATOM      1  C   UNL     1       2.841   7.938  18.056  0.00  0.00    +0.000 A 
ATOM      2  C   UNL     1       3.975   7.607  17.130  0.00  0.00    +0.000 A 
ATOM      3  C   UNL     1       4.538   6.398  17.274  0.00  0.00    +0.000 A 
ATOM      4  N   UNL     1       4.047   5.515  18.257  0.00  0.00    +0.000 N 
ATOM      5  N   UNL     1       4.496   4.256  18.536  0.00  0.00    +0.000 NA
ATOM      6  C   UNL     1       3.731   3.813  19.543  0.00  0.00    +0.000 A 
ATOM      7  C   UNL     1       3.774   2.578  20.212  0.00  0.00    +0.000 A 
ATOM      8  C   UNL     1       2.811   2.452  21.236  0.00  0.00    +0.000 A 
ATOM      9  C   UNL     1       1.877   3.483  21.568  0.00  0.00    +0.000 A 
ATOM     10  C   UNL     1       1.816   4.731  20.911  0.00  0.00    +0.000 A 
ATOM     11  C   UNL     1       2.777   4.824  19.906  0.00  0.00    +0.000 A 
ATOM     12  C   UNL     1       2.980   5.903  19.082  0.00  0.00    +0.000 A 
ATOM     13  N   UNL     1       2.379   7.135  18.972  0.00  0.00    +0.000 NA
ENDROOT
BRANCH   3  14
ATOM     14  O   UNL     1       5.600   5.988  16.479  0.00  0.00    +0.000 OA
ATOM     15  H   UNL     1       5.714   5.027  16.549  0.00  0.00    +0.000 HD
ENDBRANCH   3  14
BRANCH   1  16
ATOM     16  C   UNL     1       2.232   9.330  17.920  0.00  0.00    +0.000 C 
BRANCH  16  17
ATOM     17  C   UNL     1       0.707   9.286  17.958  0.00  0.00    +0.000 C 
BRANCH  17  25
ATOM     18  C   UNL     1      -2.880  13.594  22.511  0.00  0.00    +0.000 C 
ATOM     19  C   UNL     1      -2.006  12.489  21.966  0.00  0.00    +0.000 A 
ATOM     20  C   UNL     1      -1.438  11.525  22.963  0.00  0.00    +0.000 A 
ATOM     21  C   UNL     1      -0.662  10.543  22.473  0.00  0.00    +0.000 A 
ATOM     22  C   UNL     1      -0.022   9.501  23.336  0.00  0.00    +0.000 C 
ATOM     23  N   UNL     1      -0.439  10.486  21.092  0.00  0.00    +0.000 N 
ATOM     24  N   UNL     1       0.294   9.594  20.380  0.00  0.00    +0.000 NA
ATOM     25  C   UNL     1       0.128  10.016  19.123  0.00  0.00    +0.000 A 
ATOM     26  N   UNL     1      -0.655  11.131  18.985  0.00  0.00    +0.000 NA
ATOM     27  C   UNL     1      -1.010  11.424  20.220  0.00  0.00    +0.000 A 
ATOM     28  N   UNL     1      -1.804  12.440  20.680  0.00  0.00    +0.000 NA
ENDBRANCH  17  25
ENDBRANCH  16  17
ENDBRANCH   1  16
TORSDOF 4
ENDMDL
MODEL 4
REMARK VINA RESULT:      -8.9      3.361      9.191
REMARK  Name = 
REMARK  6 active torsions:
REMARK  status: ('A' for Active; 'I' for Inactive)
REMARK    1  A    between atoms: C_1  and  C_2
REMARK    2  A    between atoms: C_4  and  C_5
REMARK    3  A    between atoms: C_8  and  C_9
REMARK    4  A    between atoms: C_9  and  C_10
REMARK    5  A    between atoms: C_10  and  C_11
REMARK    6  A    between atoms: C_13  and  O_14
REMARK                            x       y       z     vdW  Elec       q    Type
REMARK                         _______ _______ _______ _____ _____    ______ ____
ROOT
ATOM      1  C   UNL     1       2.205   8.582  18.456  0.00  0.00    +0.000 A 
ATOM      2  C   UNL     1       1.840   7.835  19.705  0.00  0.00    +0.000 A 
ATOM      3  C   UNL     1       2.406   6.630  19.876  0.00  0.00    +0.000 A 
ATOM      4  N   UNL     1       3.299   6.138  18.902  0.00  0.00    +0.000 N 
ATOM      5  N   UNL     1       3.962   4.944  18.916  0.00  0.00    +0.000 NA
ATOM      6  C   UNL     1       4.684   4.917  17.789  0.00  0.00    +0.000 A 
ATOM      7  C   UNL     1       5.545   3.914  17.311  0.00  0.00    +0.000 A 
ATOM      8  C   UNL     1       6.147   4.223  16.072  0.00  0.00    +0.000 A 
ATOM      9  C   UNL     1       5.905   5.441  15.363  0.00  0.00    +0.000 A 
ATOM     10  C   UNL     1       5.044   6.461  15.822  0.00  0.00    +0.000 A 
ATOM     11  C   UNL     1       4.468   6.128  17.046  0.00  0.00    +0.000 A 
ATOM     12  C   UNL     1       3.588   6.903  17.762  0.00  0.00    +0.000 A 
ATOM     13  N   UNL     1       3.026   8.138  17.545  0.00  0.00    +0.000 NA
ENDROOT
BRANCH   3  14
ATOM     14  O   UNL     1       2.134   5.847  20.989  0.00  0.00    +0.000 OA
ATOM     15  H   UNL     1       2.165   4.908  20.748  0.00  0.00    +0.000 HD
ENDBRANCH   3  14
BRANCH   1  16
ATOM     16  C   UNL     1       1.526   9.931  18.244  0.00  0.00    +0.000 C 
BRANCH  16  17
ATOM     17  C   UNL     1       0.470  10.206  19.311  0.00  0.00    +0.000 C 
BRANCH  17  25
ATOM     18  C   UNL     1      -6.161  12.628  17.789  0.00  0.00    +0.000 C 
ATOM     19  C   UNL     1      -4.821  11.939  17.675  0.00  0.00    +0.000 A 
ATOM     20  C   UNL     1      -4.522  11.261  16.372  0.00  0.00    +0.000 A 
ATOM     21  C   UNL     1      -3.328  10.650  16.276  0.00  0.00    +0.000 A 
ATOM     22  C   UNL     1      -2.878   9.930  15.044  0.00  0.00    +0.000 C 
ATOM     23  N   UNL     1      -2.461  10.686  17.374  0.00  0.00    +0.000 N 
ATOM     24  N   UNL     1      -1.221  10.151  17.504  0.00  0.00    +0.000 NA
ATOM     25  C   UNL     1      -0.873  10.516  18.741  0.00  0.00    +0.000 A 
ATOM     26  N   UNL     1      -1.817  11.241  19.419  0.00  0.00    +0.000 NA
ATOM     27  C   UNL     1      -2.813  11.346  18.561  0.00  0.00    +0.000 A 
ATOM     28  N   UNL     1      -4.019  11.978  18.700  0.00  0.00    +0.000 NA
ENDBRANCH  17  25
ENDBRANCH  16  17
ENDBRANCH   1  16
TORSDOF 4
ENDMDL
MODEL 5
REMARK VINA RESULT:      -8.9      3.098      8.521
REMARK  Name = 
REMARK  6 active torsions:
REMARK  status: ('A' for Active; 'I' for Inactive)
REMARK    1  A    between atoms: C_1  and  C_2
REMARK    2  A    between atoms: C_4  and  C_5
REMARK    3  A    between atoms: C_8  and  C_9
REMARK    4  A    between atoms: C_9  and  C_10
REMARK    5  A    between atoms: C_10  and  C_11
REMARK    6  A    between atoms: C_13  and  O_14
REMARK                            x       y       z     vdW  Elec       q    Type
REMARK                         _______ _______ _______ _____ _____    ______ ____
ROOT
ATOM      1  C   UNL     1       2.644   7.971  17.995  0.00  0.00    +0.000 A 
ATOM      2  C   UNL     1       3.904   7.727  17.219  0.00  0.00    +0.000 A 
ATOM      3  C   UNL     1       4.529   6.559  17.433  0.00  0.00    +0.000 A 
ATOM      4  N   UNL     1       3.983   5.637  18.348  0.00  0.00    +0.000 N 
ATOM      5  N   UNL     1       4.480   4.410  18.683  0.00  0.00    +0.000 NA
ATOM      6  C   UNL     1       3.629   3.908  19.586  0.00  0.00    +0.000 A 
ATOM      7  C   UNL     1       3.674   2.673  20.257  0.00  0.00    +0.000 A 
ATOM      8  C   UNL     1       2.602   2.472  21.153  0.00  0.00    +0.000 A 
ATOM      9  C   UNL     1       1.564   3.432  21.363  0.00  0.00    +0.000 A 
ATOM     10  C   UNL     1       1.498   4.678  20.703  0.00  0.00    +0.000 A 
ATOM     11  C   UNL     1       2.568   4.846  19.826  0.00  0.00    +0.000 A 
ATOM     12  C   UNL     1       2.796   5.943  19.032  0.00  0.00    +0.000 A 
ATOM     13  N   UNL     1       2.128   7.130  18.847  0.00  0.00    +0.000 NA
ENDROOT
BRANCH   3  14
ATOM     14  O   UNL     1       5.708   6.231  16.778  0.00  0.00    +0.000 OA
ATOM     15  H   UNL     1       6.381   5.960  17.423  0.00  0.00    +0.000 HD
ENDBRANCH   3  14
BRANCH   1  16
ATOM     16  C   UNL     1       1.960   9.318  17.781  0.00  0.00    +0.000 C 
BRANCH  16  17
ATOM     17  C   UNL     1       1.140   9.735  19.000  0.00  0.00    +0.000 C 
BRANCH  17  25
ATOM     18  C   UNL     1      -5.476  12.603  18.599  0.00  0.00    +0.000 C 
ATOM     19  C   UNL     1      -4.219  11.834  18.261  0.00  0.00    +0.000 A 
ATOM     20  C   UNL     1      -4.177  11.171  16.918  0.00  0.00    +0.000 A 
ATOM     21  C   UNL     1      -3.057  10.488  16.622  0.00  0.00    +0.000 A 
ATOM     22  C   UNL     1      -2.857   9.772  15.324  0.00  0.00    +0.000 C 
ATOM     23  N   UNL     1      -2.025  10.444  17.567  0.00  0.00    +0.000 N 
ATOM     24  N   UNL     1      -0.818   9.830  17.488  0.00  0.00    +0.000 NA
ATOM     25  C   UNL     1      -0.253  10.142  18.658  0.00  0.00    +0.000 A 
ATOM     26  N   UNL     1      -1.028  10.908  19.489  0.00  0.00    +0.000 NA
ATOM     27  C   UNL     1      -2.138  11.095  18.804  0.00  0.00    +0.000 A 
ATOM     28  N   UNL     1      -3.263  11.798  19.144  0.00  0.00    +0.000 NA
ENDBRANCH  17  25
ENDBRANCH  16  17
ENDBRANCH   1  16
TORSDOF 4
ENDMDL
MODEL 6
REMARK VINA RESULT:      -8.8      1.821      8.763
REMARK  Name = 
REMARK  6 active torsions:
REMARK  status: ('A' for Active; 'I' for Inactive)
REMARK    1  A    between atoms: C_1  and  C_2
REMARK    2  A    between atoms: C_4  and  C_5
REMARK    3  A    between atoms: C_8  and  C_9
REMARK    4  A    between atoms: C_9  and  C_10
REMARK    5  A    between atoms: C_10  and  C_11
REMARK    6  A    between atoms: C_13  and  O_14
REMARK                            x       y       z     vdW  Elec       q    Type
REMARK                         _______ _______ _______ _____ _____    ______ ____
ROOT
ATOM      1  C   UNL     1       4.226   5.232  17.476  0.00  0.00    +0.000 A 
ATOM      2  C   UNL     1       5.344   6.041  18.064  0.00  0.00    +0.000 A 
ATOM      3  C   UNL     1       6.446   6.187  17.312  0.00  0.00    +0.000 A 
ATOM      4  N   UNL     1       6.497   5.595  16.033  0.00  0.00    +0.000 N 
ATOM      5  N   UNL     1       7.528   5.644  15.140  0.00  0.00    +0.000 NA
ATOM      6  C   UNL     1       7.122   4.938  14.078  0.00  0.00    +0.000 A 
ATOM      7  C   UNL     1       7.802   4.671  12.877  0.00  0.00    +0.000 A 
ATOM      8  C   UNL     1       7.065   3.881  11.968  0.00  0.00    +0.000 A 
ATOM      9  C   UNL     1       5.748   3.395  12.239  0.00  0.00    +0.000 A 
ATOM     10  C   UNL     1       5.046   3.648  13.437  0.00  0.00    +0.000 A 
ATOM     11  C   UNL     1       5.798   4.430  14.311  0.00  0.00    +0.000 A 
ATOM     12  C   UNL     1       5.404   4.855  15.557  0.00  0.00    +0.000 A 
ATOM     13  N   UNL     1       4.260   4.675  16.298  0.00  0.00    +0.000 NA
ENDROOT
BRANCH   3  14
ATOM     14  O   UNL     1       7.545   6.907  17.759  0.00  0.00    +0.000 OA
ATOM     15  H   UNL     1       8.308   6.737  17.183  0.00  0.00    +0.000 HD
ENDBRANCH   3  14
BRANCH   1  16
ATOM     16  C   UNL     1       2.994   5.031  18.352  0.00  0.00    +0.000 C 
BRANCH  16  17
ATOM     17  C   UNL     1       3.130   5.750  19.692  0.00  0.00    +0.000 C 
BRANCH  17  25
ATOM     18  C   UNL     1      -0.283  11.998  18.478  0.00  0.00    +0.000 C 
ATOM     19  C   UNL     1       0.218  10.741  19.151  0.00  0.00    +0.000 A 
ATOM     20  C   UNL     1      -0.293  10.467  20.532  0.00  0.00    +0.000 A 
ATOM     21  C   UNL     1       0.155   9.347  21.125  0.00  0.00    +0.000 A 
ATOM     22  C   UNL     1      -0.261   8.930  22.501  0.00  0.00    +0.000 C 
ATOM     23  N   UNL     1       1.051   8.527  20.429  0.00  0.00    +0.000 N 
ATOM     24  N   UNL     1       1.625   7.361  20.819  0.00  0.00    +0.000 NA
ATOM     25  C   UNL     1       2.358   7.025  19.754  0.00  0.00    +0.000 A 
ATOM     26  N   UNL     1       2.301   7.909  18.709  0.00  0.00    +0.000 NA
ATOM     27  C   UNL     1       1.482   8.850  19.134  0.00  0.00    +0.000 A 
ATOM     28  N   UNL     1       1.051   9.982  18.496  0.00  0.00    +0.000 NA
ENDBRANCH  17  25
ENDBRANCH  16  17
ENDBRANCH   1  16
TORSDOF 4
ENDMDL
MODEL 7
REMARK VINA RESULT:      -8.8      5.843      9.766
REMARK  Name = 
REMARK  6 active torsions:
REMARK  status: ('A' for Active; 'I' for Inactive)
REMARK    1  A    between atoms: C_1  and  C_2
REMARK    2  A    between atoms: C_4  and  C_5
REMARK    3  A    between atoms: C_8  and  C_9
REMARK    4  A    between atoms: C_9  and  C_10
REMARK    5  A    between atoms: C_10  and  C_11
REMARK    6  A    between atoms: C_13  and  O_14
REMARK                            x       y       z     vdW  Elec       q    Type
REMARK                         _______ _______ _______ _____ _____    ______ ____
ROOT
ATOM      1  C   UNL     1       7.508   6.538  17.756  0.00  0.00    +0.000 A 
ATOM      2  C   UNL     1       6.636   5.607  18.545  0.00  0.00    +0.000 A 
ATOM      3  C   UNL     1       6.038   4.617  17.865  0.00  0.00    +0.000 A 
ATOM      4  N   UNL     1       6.256   4.497  16.478  0.00  0.00    +0.000 N 
ATOM      5  N   UNL     1       5.733   3.556  15.637  0.00  0.00    +0.000 NA
ATOM      6  C   UNL     1       6.217   3.847  14.422  0.00  0.00    +0.000 A 
ATOM      7  C   UNL     1       5.991   3.194  13.198  0.00  0.00    +0.000 A 
ATOM      8  C   UNL     1       6.667   3.781  12.107  0.00  0.00    +0.000 A 
ATOM      9  C   UNL     1       7.504   4.934  12.229  0.00  0.00    +0.000 A 
ATOM     10  C   UNL     1       7.744   5.607  13.447  0.00  0.00    +0.000 A 
ATOM     11  C   UNL     1       7.066   5.003  14.503  0.00  0.00    +0.000 A 
ATOM     12  C   UNL     1       7.090   5.410  15.815  0.00  0.00    +0.000 A 
ATOM     13  N   UNL     1       7.716   6.442  16.473  0.00  0.00    +0.000 NA
ENDROOT
BRANCH   3  14
ATOM     14  O   UNL     1       5.201   3.703  18.491  0.00  0.00    +0.000 OA
ATOM     15  H   UNL     1       5.683   2.879  18.666  0.00  0.00    +0.000 HD
ENDBRANCH   3  14
BRANCH   1  16
ATOM     16  C   UNL     1       8.152   7.687  18.524  0.00  0.00    +0.000 C 
BRANCH  16  17
ATOM     17  C   UNL     1       8.186   8.970  17.698  0.00  0.00    +0.000 C 
BRANCH  17  25
ATOM     18  C   UNL     1      12.226  14.680  19.497  0.00  0.00    +0.000 C 
ATOM     19  C   UNL     1      11.260  13.521  19.575  0.00  0.00    +0.000 A 
ATOM     20  C   UNL     1      10.566  13.311  20.887  0.00  0.00    +0.000 A 
ATOM     21  C   UNL     1       9.707  12.278  20.951  0.00  0.00    +0.000 A 
ATOM     22  C   UNL     1       8.934  11.936  22.186  0.00  0.00    +0.000 C 
ATOM     23  N   UNL     1       9.520  11.485  19.813  0.00  0.00    +0.000 N 
ATOM     24  N   UNL     1       8.711  10.409  19.644  0.00  0.00    +0.000 NA
ATOM     25  C   UNL     1       8.927  10.079  18.367  0.00  0.00    +0.000 A 
ATOM     26  N   UNL     1       9.833  10.868  17.710  0.00  0.00    +0.000 NA
ATOM     27  C   UNL     1      10.205  11.748  18.618  0.00  0.00    +0.000 A 
ATOM     28  N   UNL     1      11.089  12.788  18.513  0.00  0.00    +0.000 NA
ENDBRANCH  17  25
ENDBRANCH  16  17
ENDBRANCH   1  16
TORSDOF 4
ENDMDL
MODEL 8
REMARK VINA RESULT:      -8.6      4.855      7.668
REMARK  Name = 
REMARK  6 active torsions:
REMARK  status: ('A' for Active; 'I' for Inactive)
REMARK    1  A    between atoms: C_1  and  C_2
REMARK    2  A    between atoms: C_4  and  C_5
REMARK    3  A    between atoms: C_8  and  C_9
REMARK    4  A    between atoms: C_9  and  C_10
REMARK    5  A    between atoms: C_10  and  C_11
REMARK    6  A    between atoms: C_13  and  O_14
REMARK                            x       y       z     vdW  Elec       q    Type
REMARK                         _______ _______ _______ _____ _____    ______ ____
ROOT
ATOM      1  C   UNL     1       6.520   5.625  18.258  0.00  0.00    +0.000 A 
ATOM      2  C   UNL     1       6.730   4.770  17.043  0.00  0.00    +0.000 A 
ATOM      3  C   UNL     1       5.764   3.884  16.754  0.00  0.00    +0.000 A 
ATOM      4  N   UNL     1       4.624   3.804  17.580  0.00  0.00    +0.000 N 
ATOM      5  N   UNL     1       3.554   2.970  17.433  0.00  0.00    +0.000 NA
ATOM      6  C   UNL     1       2.731   3.254  18.451  0.00  0.00    +0.000 A 
ATOM      7  C   UNL     1       1.487   2.683  18.772  0.00  0.00    +0.000 A 
ATOM      8  C   UNL     1       0.891   3.229  19.929  0.00  0.00    +0.000 A 
ATOM      9  C   UNL     1       1.493   4.266  20.707  0.00  0.00    +0.000 A 
ATOM     10  C   UNL     1       2.741   4.853  20.406  0.00  0.00    +0.000 A 
ATOM     11  C   UNL     1       3.302   4.295  19.260  0.00  0.00    +0.000 A 
ATOM     12  C   UNL     1       4.506   4.644  18.698  0.00  0.00    +0.000 A 
ATOM     13  N   UNL     1       5.474   5.560  19.033  0.00  0.00    +0.000 NA
ENDROOT
BRANCH   3  14
ATOM     14  O   UNL     1       5.857   3.035  15.660  0.00  0.00    +0.000 OA
ATOM     15  H   UNL     1       6.096   3.541  14.868  0.00  0.00    +0.000 HD
ENDBRANCH   3  14
BRANCH   1  16
ATOM     16  C   UNL     1       7.640   6.600  18.609  0.00  0.00    +0.000 C 
BRANCH  16  17
ATOM     17  C   UNL     1       7.841   7.646  17.515  0.00  0.00    +0.000 C 
BRANCH  17  25
ATOM     18  C   UNL     1      10.815  13.269  20.934  0.00  0.00    +0.000 C 
ATOM     19  C   UNL     1       9.991  12.442  19.974  0.00  0.00    +0.000 A 
ATOM     20  C   UNL     1       9.215  13.192  18.935  0.00  0.00    +0.000 A 
ATOM     21  C   UNL     1       8.484  12.452  18.083  0.00  0.00    +0.000 A 
ATOM     22  C   UNL     1       7.655  13.048  16.990  0.00  0.00    +0.000 C 
ATOM     23  N   UNL     1       8.496  11.059  18.219  0.00  0.00    +0.000 N 
ATOM     24  N   UNL     1       7.851  10.121  17.481  0.00  0.00    +0.000 NA
ATOM     25  C   UNL     1       8.249   8.979  18.046  0.00  0.00    +0.000 A 
ATOM     26  N   UNL     1       9.101   9.124  19.109  0.00  0.00    +0.000 NA
ATOM     27  C   UNL     1       9.254  10.429  19.216  0.00  0.00    +0.000 A 
ATOM     28  N   UNL     1      10.009  11.146  20.104  0.00  0.00    +0.000 NA
ENDBRANCH  17  25
ENDBRANCH  16  17
ENDBRANCH   1  16
TORSDOF 4
ENDMDL
MODEL 9
REMARK VINA RESULT:      -8.5      2.992      8.401
REMARK  Name = 
REMARK  6 active torsions:
REMARK  status: ('A' for Active; 'I' for Inactive)
REMARK    1  A    between atoms: C_1  and  C_2
REMARK    2  A    between atoms: C_4  and  C_5
REMARK    3  A    between atoms: C_8  and  C_9
REMARK    4  A    between atoms: C_9  and  C_10
REMARK    5  A    between atoms: C_10  and  C_11
REMARK    6  A    between atoms: C_13  and  O_14
REMARK                            x       y       z     vdW  Elec       q    Type
REMARK                         _______ _______ _______ _____ _____    ______ ____
ROOT
ATOM      1  C   UNL     1       1.688   7.359  20.316  0.00  0.00    +0.000 A 
ATOM      2  C   UNL     1       1.289   6.054  20.941  0.00  0.00    +0.000 A 
ATOM      3  C   UNL     1       1.790   4.940  20.384  0.00  0.00    +0.000 A 
ATOM      4  N   UNL     1       2.650   5.045  19.272  0.00  0.00    +0.000 N 
ATOM      5  N   UNL     1       3.246   4.025  18.589  0.00  0.00    +0.000 NA
ATOM      6  C   UNL     1       3.961   4.607  17.618  0.00  0.00    +0.000 A 
ATOM      7  C   UNL     1       4.764   4.013  16.629  0.00  0.00    +0.000 A 
ATOM      8  C   UNL     1       5.375   4.941  15.758  0.00  0.00    +0.000 A 
ATOM      9  C   UNL     1       5.196   6.355  15.867  0.00  0.00    +0.000 A 
ATOM     10  C   UNL     1       4.394   6.974  16.850  0.00  0.00    +0.000 A 
ATOM     11  C   UNL     1       3.807   6.034  17.693  0.00  0.00    +0.000 A 
ATOM     12  C   UNL     1       2.974   6.307  18.751  0.00  0.00    +0.000 A 
ATOM     13  N   UNL     1       2.479   7.472  19.286  0.00  0.00    +0.000 NA
ENDROOT
BRANCH   3  14
ATOM     14  O   UNL     1       1.481   3.678  20.872  0.00  0.00    +0.000 OA
ATOM     15  H   UNL     1       0.668   3.718  21.401  0.00  0.00    +0.000 HD
ENDBRANCH   3  14
BRANCH   1  16
ATOM     16  C   UNL     1       1.083   8.620  20.924  0.00  0.00    +0.000 C 
BRANCH  16  17
ATOM     17  C   UNL     1       1.303   9.839  20.032  0.00  0.00    +0.000 C 
BRANCH  17  25
ATOM     18  C   UNL     1      -3.927  10.390  15.083  0.00  0.00    +0.000 C 
ATOM     19  C   UNL     1      -3.121  10.570  16.349  0.00  0.00    +0.000 A 
ATOM     20  C   UNL     1      -3.732  11.419  17.421  0.00  0.00    +0.000 A 
ATOM     21  C   UNL     1      -3.010  11.576  18.545  0.00  0.00    +0.000 A 
ATOM     22  C   UNL     1      -3.480  12.391  19.708  0.00  0.00    +0.000 C 
ATOM     23  N   UNL     1      -1.762  10.949  18.638  0.00  0.00    +0.000 N 
ATOM     24  N   UNL     1      -0.873  10.960  19.662  0.00  0.00    +0.000 NA
ATOM     25  C   UNL     1       0.111  10.182  19.203  0.00  0.00    +0.000 A 
ATOM     26  N   UNL     1      -0.084   9.683  17.943  0.00  0.00    +0.000 NA
ATOM     27  C   UNL     1      -1.259  10.164  17.590  0.00  0.00    +0.000 A 
ATOM     28  N   UNL     1      -1.961   9.982  16.429  0.00  0.00    +0.000 NA
ENDBRANCH  17  25
ENDBRANCH  16  17
ENDBRANCH   1  16
TORSDOF 4
ENDMDL
