MODEL 1
REMARK VINA RESULT:      -9.2      0.000      0.000
REMARK  Name = 
REMARK  5 active torsions:
REMARK  status: ('A' for Active; 'I' for Inactive)
REMARK    1  A    between atoms: C_1  and  C_2
REMARK    2  A    between atoms: C_2  and  C_3
REMARK    3  A    between atoms: C_3  and  C_4
REMARK    4  A    between atoms: C_3  and  N_15
REMARK    5  A    between atoms: C_21  and  C_22
REMARK                            x       y       z     vdW  Elec       q    Type
REMARK                         _______ _______ _______ _____ _____    ______ ____
ROOT
ATOM      1  N   UNL     1       4.064   4.843  18.762  0.00  0.00    +0.000 N 
ATOM      2  C   UNL     1       4.903   4.456  19.786  0.00  0.00    +0.000 A 
ATOM      3  N   UNL     1       6.053   5.062  19.717  0.00  0.00    +0.000 NA
ATOM      4  C   UNL     1       6.117   5.412  18.414  0.00  0.00    +0.000 A 
ATOM      5  N   UNL     1       7.278   5.776  17.854  0.00  0.00    +0.000 NA
ATOM      6  C   UNL     1       7.292   5.548  16.535  0.00  0.00    +0.000 A 
ATOM      7  C   UNL     1       6.219   5.088  15.750  0.00  0.00    +0.000 A 
ATOM      8  N   UNL     1       4.932   4.911  16.308  0.00  0.00    +0.000 NA
ATOM      9  C   UNL     1       4.954   5.074  17.690  0.00  0.00    +0.000 A 
ENDROOT
BRANCH   7  10
ATOM     10  C   UNL     1       6.577   4.639  14.325  0.00  0.00    +0.000 A 
ATOM     11  C   UNL     1       7.570   5.239  13.539  0.00  0.00    +0.000 A 
ATOM     12  C   UNL     1       7.733   4.902  12.166  0.00  0.00    +0.000 A 
ATOM     13  C   UNL     1       6.917   3.961  11.530  0.00  0.00    +0.000 A 
ATOM     14  C   UNL     1       5.956   3.320  12.279  0.00  0.00    +0.000 A 
ATOM     15  C   UNL     1       5.812   3.637  13.644  0.00  0.00    +0.000 A 
ENDBRANCH   7  10
BRANCH   1  16
ATOM     16  C   UNL     1       2.598   4.910  19.001  0.00  0.00    +0.000 C 
BRANCH  16  17
ATOM     17  C   UNL     1       2.103   6.357  19.437  0.00  0.00    +0.000 A 
ATOM     18  C   UNL     1       1.626   6.609  20.730  0.00  0.00    +0.000 A 
ATOM     19  C   UNL     1       1.228   7.915  21.130  0.00  0.00    +0.000 A 
ATOM     20  C   UNL     1       1.253   9.016  20.278  0.00  0.00    +0.000 A 
ATOM     21  N   UNL     1       0.814  10.232  20.691  0.00  0.00    +0.000 NA
ATOM     22  C   UNL     1       0.839  11.263  19.808  0.00  0.00    +0.000 A 
ATOM     23  C   UNL     1       1.301  11.154  18.510  0.00  0.00    +0.000 A 
ATOM     24  C   UNL     1       1.778   9.914  18.110  0.00  0.00    +0.000 A 
ATOM     25  C   UNL     1       1.753   8.808  18.993  0.00  0.00    +0.000 A 
ATOM     26  C   UNL     1       2.215   7.516  18.624  0.00  0.00    +0.000 A 
ATOM     27  F   UNL     1       2.867   7.453  17.459  0.00  0.00    +0.000 F 
ENDBRANCH  16  17
BRANCH  16  29
ATOM     28  C   UNL     1       0.918   3.070  19.755  0.00  0.00    +0.000 C 
ATOM     29  C   UNL     1       2.114   3.935  20.110  0.00  0.00    +0.000 C 
ENDBRANCH  16  29
ENDBRANCH   1  16
TORSDOF 4
ENDMDL
MODEL 2
REMARK VINA RESULT:      -8.7      1.035      1.572
REMARK  Name = 
REMARK  5 active torsions:
REMARK  status: ('A' for Active; 'I' for Inactive)
REMARK    1  A    between atoms: C_1  and  C_2
REMARK    2  A    between atoms: C_2  and  C_3
REMARK    3  A    between atoms: C_3  and  C_4
REMARK    4  A    between atoms: C_3  and  N_15
REMARK    5  A    between atoms: C_21  and  C_22
REMARK                            x       y       z     vdW  Elec       q    Type
REMARK                         _______ _______ _______ _____ _____    ______ ____
ROOT
ATOM      1  N   UNL     1       4.106   5.145  18.753  0.00  0.00    +0.000 N 
ATOM      2  C   UNL     1       4.919   4.705  19.777  0.00  0.00    +0.000 A 
ATOM      3  N   UNL     1       6.118   5.204  19.685  0.00  0.00    +0.000 NA
ATOM      4  C   UNL     1       6.198   5.519  18.373  0.00  0.00    +0.000 A 
ATOM      5  N   UNL     1       7.381   5.766  17.794  0.00  0.00    +0.000 NA
ATOM      6  C   UNL     1       7.358   5.510  16.481  0.00  0.00    +0.000 A 
ATOM      7  C   UNL     1       6.240   5.132  15.716  0.00  0.00    +0.000 A 
ATOM      8  N   UNL     1       4.949   5.083  16.290  0.00  0.00    +0.000 NA
ATOM      9  C   UNL     1       5.001   5.273  17.668  0.00  0.00    +0.000 A 
ENDROOT
BRANCH   7  10
ATOM     10  C   UNL     1       6.539   4.623  14.298  0.00  0.00    +0.000 A 
ATOM     11  C   UNL     1       7.543   5.144  13.472  0.00  0.00    +0.000 A 
ATOM     12  C   UNL     1       7.656   4.760  12.107  0.00  0.00    +0.000 A 
ATOM     13  C   UNL     1       6.776   3.846  11.518  0.00  0.00    +0.000 A 
ATOM     14  C   UNL     1       5.800   3.281  12.307  0.00  0.00    +0.000 A 
ATOM     15  C   UNL     1       5.706   3.645  13.664  0.00  0.00    +0.000 A 
ENDBRANCH   7  10
BRANCH   1  16
ATOM     16  C   UNL     1       2.655   5.348  19.005  0.00  0.00    +0.000 C 
BRANCH  16  17
ATOM     17  C   UNL     1       2.233   6.882  19.011  0.00  0.00    +0.000 A 
ATOM     18  C   UNL     1       2.278   7.658  17.845  0.00  0.00    +0.000 A 
ATOM     19  C   UNL     1       1.856   9.016  17.844  0.00  0.00    +0.000 A 
ATOM     20  C   UNL     1       1.403   9.677  18.983  0.00  0.00    +0.000 A 
ATOM     21  N   UNL     1       1.060  10.989  18.943  0.00  0.00    +0.000 NA
ATOM     22  C   UNL     1       0.648  11.586  20.091  0.00  0.00    +0.000 A 
ATOM     23  C   UNL     1       0.542  10.932  21.304  0.00  0.00    +0.000 A 
ATOM     24  C   UNL     1       0.864   9.582  21.324  0.00  0.00    +0.000 A 
ATOM     25  C   UNL     1       1.314   8.925  20.155  0.00  0.00    +0.000 A 
ATOM     26  C   UNL     1       1.670   7.550  20.130  0.00  0.00    +0.000 A 
ATOM     27  F   UNL     1       1.358   6.859  21.232  0.00  0.00    +0.000 F 
ENDBRANCH  16  17
BRANCH  16  29
ATOM     28  C   UNL     1       1.041   3.766  20.296  0.00  0.00    +0.000 C 
ATOM     29  C   UNL     1       2.183   4.765  20.366  0.00  0.00    +0.000 C 
ENDBRANCH  16  29
ENDBRANCH   1  16
TORSDOF 4
ENDMDL
MODEL 3
REMARK VINA RESULT:      -8.7      0.710      1.142
REMARK  Name = 
REMARK  5 active torsions:
REMARK  status: ('A' for Active; 'I' for Inactive)
REMARK    1  A    between atoms: C_1  and  C_2
REMARK    2  A    between atoms: C_2  and  C_3
REMARK    3  A    between atoms: C_3  and  C_4
REMARK    4  A    between atoms: C_3  and  N_15
REMARK    5  A    between atoms: C_21  and  C_22
REMARK                            x       y       z     vdW  Elec       q    Type
REMARK                         _______ _______ _______ _____ _____    ______ ____
ROOT
ATOM      1  N   UNL     1       4.188   4.472  18.527  0.00  0.00    +0.000 N 
ATOM      2  C   UNL     1       5.204   4.170  19.410  0.00  0.00    +0.000 A 
ATOM      3  N   UNL     1       6.300   4.807  19.114  0.00  0.00    +0.000 NA
ATOM      4  C   UNL     1       6.127   5.084  17.803  0.00  0.00    +0.000 A 
ATOM      5  N   UNL     1       7.160   5.452  17.033  0.00  0.00    +0.000 NA
ATOM      6  C   UNL     1       6.958   5.150  15.746  0.00  0.00    +0.000 A 
ATOM      7  C   UNL     1       5.787   4.612  15.181  0.00  0.00    +0.000 A 
ATOM      8  N   UNL     1       4.623   4.427  15.960  0.00  0.00    +0.000 NA
ATOM      9  C   UNL     1       4.872   4.669  17.308  0.00  0.00    +0.000 A 
ENDROOT
BRANCH   7  10
ATOM     10  C   UNL     1       5.916   4.095  13.740  0.00  0.00    +0.000 A 
ATOM     11  C   UNL     1       4.884   3.455  13.041  0.00  0.00    +0.000 A 
ATOM     12  C   UNL     1       5.114   2.836  11.780  0.00  0.00    +0.000 A 
ATOM     13  C   UNL     1       6.374   2.833  11.174  0.00  0.00    +0.000 A 
ATOM     14  C   UNL     1       7.405   3.487  11.811  0.00  0.00    +0.000 A 
ATOM     15  C   UNL     1       7.169   4.120  13.047  0.00  0.00    +0.000 A 
ENDBRANCH   7  10
BRANCH   1  16
ATOM     16  C   UNL     1       2.782   4.505  19.012  0.00  0.00    +0.000 C 
BRANCH  16  17
ATOM     17  C   UNL     1       2.285   5.971  19.377  0.00  0.00    +0.000 A 
ATOM     18  C   UNL     1       1.774   6.276  20.646  0.00  0.00    +0.000 A 
ATOM     19  C   UNL     1       1.374   7.598  20.983  0.00  0.00    +0.000 A 
ATOM     20  C   UNL     1       1.428   8.665  20.090  0.00  0.00    +0.000 A 
ATOM     21  N   UNL     1       0.985   9.898  20.442  0.00  0.00    +0.000 NA
ATOM     22  C   UNL     1       1.040  10.894  19.521  0.00  0.00    +0.000 A 
ATOM     23  C   UNL     1       1.536  10.732  18.241  0.00  0.00    +0.000 A 
ATOM     24  C   UNL     1       2.017   9.474  17.904  0.00  0.00    +0.000 A 
ATOM     25  C   UNL     1       1.961   8.404  18.828  0.00  0.00    +0.000 A 
ATOM     26  C   UNL     1       2.425   7.097  18.523  0.00  0.00    +0.000 A 
ATOM     27  F   UNL     1       3.109   6.985  17.379  0.00  0.00    +0.000 F 
ENDBRANCH  16  17
BRANCH  16  29
ATOM     28  C   UNL     1       1.482   2.570  20.169  0.00  0.00    +0.000 C 
ATOM     29  C   UNL     1       2.553   3.641  20.282  0.00  0.00    +0.000 C 
ENDBRANCH  16  29
ENDBRANCH   1  16
TORSDOF 4
ENDMDL
MODEL 4
REMARK VINA RESULT:      -8.3      1.387      2.211
REMARK  Name = 
REMARK  5 active torsions:
REMARK  status: ('A' for Active; 'I' for Inactive)
REMARK    1  A    between atoms: C_1  and  C_2
REMARK    2  A    between atoms: C_2  and  C_3
REMARK    3  A    between atoms: C_3  and  C_4
REMARK    4  A    between atoms: C_3  and  N_15
REMARK    5  A    between atoms: C_21  and  C_22
REMARK                            x       y       z     vdW  Elec       q    Type
REMARK                         _______ _______ _______ _____ _____    ______ ____
ROOT
ATOM      1  N   UNL     1       4.704   4.946  17.952  0.00  0.00    +0.000 N 
ATOM      2  C   UNL     1       5.839   4.942  18.735  0.00  0.00    +0.000 A 
ATOM      3  N   UNL     1       6.806   5.613  18.179  0.00  0.00    +0.000 NA
ATOM      4  C   UNL     1       6.459   5.591  16.873  0.00  0.00    +0.000 A 
ATOM      5  N   UNL     1       7.348   5.895  15.918  0.00  0.00    +0.000 NA
ATOM      6  C   UNL     1       7.049   5.312  14.752  0.00  0.00    +0.000 A 
ATOM      7  C   UNL     1       5.902   4.550  14.462  0.00  0.00    +0.000 A 
ATOM      8  N   UNL     1       4.862   4.412  15.408  0.00  0.00    +0.000 NA
ATOM      9  C   UNL     1       5.222   4.955  16.638  0.00  0.00    +0.000 A 
ENDROOT
BRANCH   7  10
ATOM     10  C   UNL     1       5.940   3.759  13.145  0.00  0.00    +0.000 A 
ATOM     11  C   UNL     1       4.803   3.258  12.498  0.00  0.00    +0.000 A 
ATOM     12  C   UNL     1       4.910   2.380  11.382  0.00  0.00    +0.000 A 
ATOM     13  C   UNL     1       6.148   1.973  10.875  0.00  0.00    +0.000 A 
ATOM     14  C   UNL     1       7.288   2.475  11.459  0.00  0.00    +0.000 A 
ATOM     15  C   UNL     1       7.180   3.363  12.547  0.00  0.00    +0.000 A 
ENDBRANCH   7  10
BRANCH   1  16
ATOM     16  C   UNL     1       3.366   4.935  18.601  0.00  0.00    +0.000 C 
BRANCH  16  17
ATOM     17  C   UNL     1       2.773   6.393  18.829  0.00  0.00    +0.000 A 
ATOM     18  C   UNL     1       2.816   7.367  17.823  0.00  0.00    +0.000 A 
ATOM     19  C   UNL     1       2.243   8.654  18.015  0.00  0.00    +0.000 A 
ATOM     20  C   UNL     1       1.633   9.051  19.203  0.00  0.00    +0.000 A 
ATOM     21  N   UNL     1       1.148  10.308  19.356  0.00  0.00    +0.000 NA
ATOM     22  C   UNL     1       0.585  10.644  20.546  0.00  0.00    +0.000 A 
ATOM     23  C   UNL     1       0.465   9.775  21.613  0.00  0.00    +0.000 A 
ATOM     24  C   UNL     1       0.936   8.482  21.433  0.00  0.00    +0.000 A 
ATOM     25  C   UNL     1       1.544   8.095  20.215  0.00  0.00    +0.000 A 
ATOM     26  C   UNL     1       2.056   6.789  19.989  0.00  0.00    +0.000 A 
ATOM     27  F   UNL     1       1.743   5.883  20.922  0.00  0.00    +0.000 F 
ENDBRANCH  16  17
BRANCH  16  29
ATOM     28  C   UNL     1       3.005   2.771  20.001  0.00  0.00    +0.000 C 
ATOM     29  C   UNL     1       3.368   4.245  19.993  0.00  0.00    +0.000 C 
ENDBRANCH  16  29
ENDBRANCH   1  16
TORSDOF 4
ENDMDL
MODEL 5
REMARK VINA RESULT:      -8.0      3.465      6.175
REMARK  Name = 
REMARK  5 active torsions:
REMARK  status: ('A' for Active; 'I' for Inactive)
REMARK    1  A    between atoms: C_1  and  C_2
REMARK    2  A    between atoms: C_2  and  C_3
REMARK    3  A    between atoms: C_3  and  C_4
REMARK    4  A    between atoms: C_3  and  N_15
REMARK    5  A    between atoms: C_21  and  C_22
REMARK                            x       y       z     vdW  Elec       q    Type
REMARK                         _______ _______ _______ _____ _____    ______ ____
ROOT
ATOM      1  N   UNL     1       6.520   5.638  16.834  0.00  0.00    +0.000 N 
ATOM      2  C   UNL     1       7.430   4.639  17.111  0.00  0.00    +0.000 A 
ATOM      3  N   UNL     1       7.986   4.808  18.276  0.00  0.00    +0.000 NA
ATOM      4  C   UNL     1       7.820   6.133  18.484  0.00  0.00    +0.000 A 
ATOM      5  N   UNL     1       8.527   6.778  19.422  0.00  0.00    +0.000 NA
ATOM      6  C   UNL     1       8.666   8.078  19.138  0.00  0.00    +0.000 A 
ATOM      7  C   UNL     1       8.079   8.773  18.065  0.00  0.00    +0.000 A 
ATOM      8  N   UNL     1       7.159   8.135  17.202  0.00  0.00    +0.000 NA
ATOM      9  C   UNL     1       7.087   6.769  17.461  0.00  0.00    +0.000 A 
ENDROOT
BRANCH   7  10
ATOM     10  C   UNL     1       8.625  10.184  17.802  0.00  0.00    +0.000 A 
ATOM     11  C   UNL     1       9.952  10.569  18.037  0.00  0.00    +0.000 A 
ATOM     12  C   UNL     1      10.356  11.931  17.949  0.00  0.00    +0.000 A 
ATOM     13  C   UNL     1       9.458  12.953  17.624  0.00  0.00    +0.000 A 
ATOM     14  C   UNL     1       8.154  12.609  17.348  0.00  0.00    +0.000 A 
ATOM     15  C   UNL     1       7.761  11.258  17.412  0.00  0.00    +0.000 A 
ENDBRANCH   7  10
BRANCH   1  16
ATOM     16  C   UNL     1       5.308   5.323  16.031  0.00  0.00    +0.000 C 
BRANCH  16  17
ATOM     17  C   UNL     1       4.182   4.578  16.871  0.00  0.00    +0.000 A 
ATOM     18  C   UNL     1       3.763   3.281  16.544  0.00  0.00    +0.000 A 
ATOM     19  C   UNL     1       2.788   2.601  17.326  0.00  0.00    +0.000 A 
ATOM     20  C   UNL     1       2.165   3.168  18.435  0.00  0.00    +0.000 A 
ATOM     21  N   UNL     1       1.203   2.497  19.117  0.00  0.00    +0.000 NA
ATOM     22  C   UNL     1       0.613   3.111  20.176  0.00  0.00    +0.000 A 
ATOM     23  C   UNL     1       0.945   4.379  20.613  0.00  0.00    +0.000 A 
ATOM     24  C   UNL     1       1.954   5.041  19.927  0.00  0.00    +0.000 A 
ATOM     25  C   UNL     1       2.582   4.445  18.807  0.00  0.00    +0.000 A 
ATOM     26  C   UNL     1       3.606   5.090  18.064  0.00  0.00    +0.000 A 
ATOM     27  F   UNL     1       4.089   6.211  18.609  0.00  0.00    +0.000 F 
ENDBRANCH  16  17
BRANCH  16  29
ATOM     28  C   UNL     1       6.761   4.854  13.923  0.00  0.00    +0.000 C 
ATOM     29  C   UNL     1       5.606   4.416  14.805  0.00  0.00    +0.000 C 
ENDBRANCH  16  29
ENDBRANCH   1  16
TORSDOF 4
ENDMDL
MODEL 6
REMARK VINA RESULT:      -7.7      0.979      1.203
REMARK  Name = 
REMARK  5 active torsions:
REMARK  status: ('A' for Active; 'I' for Inactive)
REMARK    1  A    between atoms: C_1  and  C_2
REMARK    2  A    between atoms: C_2  and  C_3
REMARK    3  A    between atoms: C_3  and  C_4
REMARK    4  A    between atoms: C_3  and  N_15
REMARK    5  A    between atoms: C_21  and  C_22
REMARK                            x       y       z     vdW  Elec       q    Type
REMARK                         _______ _______ _______ _____ _____    ______ ____
ROOT
ATOM      1  N   UNL     1       4.528   4.994  18.150  0.00  0.00    +0.000 N 
ATOM      2  C   UNL     1       5.629   5.178  18.959  0.00  0.00    +0.000 A 
ATOM      3  N   UNL     1       6.511   5.954  18.398  0.00  0.00    +0.000 NA
ATOM      4  C   UNL     1       6.210   5.831  17.087  0.00  0.00    +0.000 A 
ATOM      5  N   UNL     1       7.076   6.216  16.140  0.00  0.00    +0.000 NA
ATOM      6  C   UNL     1       6.896   5.550  14.994  0.00  0.00    +0.000 A 
ATOM      7  C   UNL     1       5.874   4.626  14.711  0.00  0.00    +0.000 A 
ATOM      8  N   UNL     1       4.834   4.384  15.637  0.00  0.00    +0.000 NA
ATOM      9  C   UNL     1       5.079   5.021  16.850  0.00  0.00    +0.000 A 
ENDROOT
BRANCH   7  10
ATOM     10  C   UNL     1       6.059   3.795  13.432  0.00  0.00    +0.000 A 
ATOM     11  C   UNL     1       7.266   3.696  12.727  0.00  0.00    +0.000 A 
ATOM     12  C   UNL     1       7.332   3.063  11.454  0.00  0.00    +0.000 A 
ATOM     13  C   UNL     1       6.205   2.508  10.841  0.00  0.00    +0.000 A 
ATOM     14  C   UNL     1       5.007   2.550  11.519  0.00  0.00    +0.000 A 
ATOM     15  C   UNL     1       4.949   3.156  12.790  0.00  0.00    +0.000 A 
ENDBRANCH   7  10
BRANCH   1  16
ATOM     16  C   UNL     1       3.185   4.824  18.766  0.00  0.00    +0.000 C 
BRANCH  16  17
ATOM     17  C   UNL     1       2.532   6.199  19.224  0.00  0.00    +0.000 A 
ATOM     18  C   UNL     1       2.002   6.366  20.511  0.00  0.00    +0.000 A 
ATOM     19  C   UNL     1       1.461   7.612  20.931  0.00  0.00    +0.000 A 
ATOM     20  C   UNL     1       1.388   8.732  20.107  0.00  0.00    +0.000 A 
ATOM     21  N   UNL     1       0.814   9.884  20.537  0.00  0.00    +0.000 NA
ATOM     22  C   UNL     1       0.751  10.935  19.680  0.00  0.00    +0.000 A 
ATOM     23  C   UNL     1       1.250  10.909  18.392  0.00  0.00    +0.000 A 
ATOM     24  C   UNL     1       1.863   9.736  17.975  0.00  0.00    +0.000 A 
ATOM     25  C   UNL     1       1.936   8.611  18.830  0.00  0.00    +0.000 A 
ATOM     26  C   UNL     1       2.538   7.385  18.443  0.00  0.00    +0.000 A 
ATOM     27  F   UNL     1       3.220   7.421  17.292  0.00  0.00    +0.000 F 
ENDBRANCH  16  17
BRANCH  16  29
ATOM     28  C   UNL     1       3.547   2.454  19.780  0.00  0.00    +0.000 C 
ATOM     29  C   UNL     1       3.202   3.912  20.024  0.00  0.00    +0.000 C 
ENDBRANCH  16  29
ENDBRANCH   1  16
TORSDOF 4
ENDMDL
MODEL 7
REMARK VINA RESULT:      -7.6      4.448     10.931
REMARK  Name = 
REMARK  5 active torsions:
REMARK  status: ('A' for Active; 'I' for Inactive)
REMARK    1  A    between atoms: C_1  and  C_2
REMARK    2  A    between atoms: C_2  and  C_3
REMARK    3  A    between atoms: C_3  and  C_4
REMARK    4  A    between atoms: C_3  and  N_15
REMARK    5  A    between atoms: C_21  and  C_22
REMARK                            x       y       z     vdW  Elec       q    Type
REMARK                         _______ _______ _______ _____ _____    ______ ____
ROOT
ATOM      1  N   UNL     1      -1.096  10.968  18.564  0.00  0.00    +0.000 N 
ATOM      2  C   UNL     1      -1.443  10.028  17.616  0.00  0.00    +0.000 A 
ATOM      3  N   UNL     1      -2.440  10.432  16.884  0.00  0.00    +0.000 NA
ATOM      4  C   UNL     1      -3.028  11.352  17.681  0.00  0.00    +0.000 A 
ATOM      5  N   UNL     1      -4.274  11.780  17.438  0.00  0.00    +0.000 NA
ATOM      6  C   UNL     1      -4.881  12.212  18.550  0.00  0.00    +0.000 A 
ATOM      7  C   UNL     1      -4.307  12.334  19.828  0.00  0.00    +0.000 A 
ATOM      8  N   UNL     1      -2.931  12.086  20.035  0.00  0.00    +0.000 NA
ATOM      9  C   UNL     1      -2.335  11.562  18.892  0.00  0.00    +0.000 A 
ENDROOT
BRANCH   7  10
ATOM     10  C   UNL     1      -5.291  12.580  20.983  0.00  0.00    +0.000 A 
ATOM     11  C   UNL     1      -4.922  13.095  22.232  0.00  0.00    +0.000 A 
ATOM     12  C   UNL     1      -5.839  13.130  23.320  0.00  0.00    +0.000 A 
ATOM     13  C   UNL     1      -7.150  12.657  23.202  0.00  0.00    +0.000 A 
ATOM     14  C   UNL     1      -7.562  12.181  21.978  0.00  0.00    +0.000 A 
ATOM     15  C   UNL     1      -6.661  12.169  20.896  0.00  0.00    +0.000 A 
ENDBRANCH   7  10
BRANCH   1  16
ATOM     16  C   UNL     1       0.327  11.108  18.972  0.00  0.00    +0.000 C 
BRANCH  16  17
ATOM     17  C   UNL     1       1.022   9.714  19.296  0.00  0.00    +0.000 A 
ATOM     18  C   UNL     1       0.778   9.036  20.498  0.00  0.00    +0.000 A 
ATOM     19  C   UNL     1       1.365   7.768  20.763  0.00  0.00    +0.000 A 
ATOM     20  C   UNL     1       2.233   7.127  19.883  0.00  0.00    +0.000 A 
ATOM     21  N   UNL     1       2.809   5.942  20.204  0.00  0.00    +0.000 NA
ATOM     22  C   UNL     1       3.666   5.376  19.315  0.00  0.00    +0.000 A 
ATOM     23  C   UNL     1       3.979   5.931  18.088  0.00  0.00    +0.000 A 
ATOM     24  C   UNL     1       3.358   7.127  17.757  0.00  0.00    +0.000 A 
ATOM     25  C   UNL     1       2.472   7.759  18.662  0.00  0.00    +0.000 A 
ATOM     26  C   UNL     1       1.826   8.991  18.375  0.00  0.00    +0.000 A 
ATOM     27  F   UNL     1       1.942   9.417  17.113  0.00  0.00    +0.000 F 
ENDBRANCH  16  17
BRANCH  16  29
ATOM     28  C   UNL     1       0.794  13.460  19.982  0.00  0.00    +0.000 C 
ATOM     29  C   UNL     1       0.517  11.990  20.237  0.00  0.00    +0.000 C 
ENDBRANCH  16  29
ENDBRANCH   1  16
TORSDOF 4
ENDMDL
MODEL 8
REMARK VINA RESULT:      -7.5      2.247      8.875
REMARK  Name = 
REMARK  5 active torsions:
REMARK  status: ('A' for Active; 'I' for Inactive)
REMARK    1  A    between atoms: C_1  and  C_2
REMARK    2  A    between atoms: C_2  and  C_3
REMARK    3  A    between atoms: C_3  and  C_4
REMARK    4  A    between atoms: C_3  and  N_15
REMARK    5  A    between atoms: C_21  and  C_22
REMARK                            x       y       z     vdW  Elec       q    Type
REMARK                         _______ _______ _______ _____ _____    ______ ____
ROOT
ATOM      1  N   UNL     1       2.067   7.795  19.126  0.00  0.00    +0.000 N 
ATOM      2  C   UNL     1       1.737   7.899  17.791  0.00  0.00    +0.000 A 
ATOM      3  N   UNL     1       1.901   9.114  17.351  0.00  0.00    +0.000 NA
ATOM      4  C   UNL     1       1.830   9.843  18.486  0.00  0.00    +0.000 A 
ATOM      5  N   UNL     1       1.633  11.168  18.445  0.00  0.00    +0.000 NA
ATOM      6  C   UNL     1       1.051  11.623  19.560  0.00  0.00    +0.000 A 
ATOM      7  C   UNL     1       0.756  10.881  20.718  0.00  0.00    +0.000 A 
ATOM      8  N   UNL     1       1.162   9.532  20.842  0.00  0.00    +0.000 NA
ATOM      9  C   UNL     1       1.692   9.053  19.647  0.00  0.00    +0.000 A 
ENDROOT
BRANCH   7  10
ATOM     10  C   UNL     1      -0.165  11.568  21.737  0.00  0.00    +0.000 A 
ATOM     11  C   UNL     1      -1.091  10.891  22.541  0.00  0.00    +0.000 A 
ATOM     12  C   UNL     1      -2.042  11.595  23.333  0.00  0.00    +0.000 A 
ATOM     13  C   UNL     1      -2.103  12.992  23.352  0.00  0.00    +0.000 A 
ATOM     14  C   UNL     1      -1.183  13.695  22.606  0.00  0.00    +0.000 A 
ATOM     15  C   UNL     1      -0.227  12.996  21.843  0.00  0.00    +0.000 A 
ENDBRANCH   7  10
BRANCH   1  16
ATOM     16  C   UNL     1       2.662   6.531  19.637  0.00  0.00    +0.000 C 
BRANCH  16  17
ATOM     17  C   UNL     1       3.408   5.694  18.510  0.00  0.00    +0.000 A 
ATOM     18  C   UNL     1       2.912   4.460  18.066  0.00  0.00    +0.000 A 
ATOM     19  C   UNL     1       3.557   3.737  17.025  0.00  0.00    +0.000 A 
ATOM     20  C   UNL     1       4.723   4.171  16.399  0.00  0.00    +0.000 A 
ATOM     21  N   UNL     1       5.330   3.420  15.447  0.00  0.00    +0.000 NA
ATOM     22  C   UNL     1       6.477   3.885  14.889  0.00  0.00    +0.000 A 
ATOM     23  C   UNL     1       7.062   5.091  15.224  0.00  0.00    +0.000 A 
ATOM     24  C   UNL     1       6.414   5.866  16.175  0.00  0.00    +0.000 A 
ATOM     25  C   UNL     1       5.225   5.411  16.794  0.00  0.00    +0.000 A 
ATOM     26  C   UNL     1       4.535   6.160  17.784  0.00  0.00    +0.000 A 
ATOM     27  F   UNL     1       4.962   7.417  17.950  0.00  0.00    +0.000 F 
ENDBRANCH  16  17
BRANCH  16  29
ATOM     28  C   UNL     1       2.161   4.527  21.219  0.00  0.00    +0.000 C 
ATOM     29  C   UNL     1       1.613   5.573  20.266  0.00  0.00    +0.000 C 
ENDBRANCH  16  29
ENDBRANCH   1  16
TORSDOF 4
ENDMDL
MODEL 9
REMARK VINA RESULT:      -7.5      4.320     11.015
REMARK  Name = 
REMARK  5 active torsions:
REMARK  status: ('A' for Active; 'I' for Inactive)
REMARK    1  A    between atoms: C_1  and  C_2
REMARK    2  A    between atoms: C_2  and  C_3
REMARK    3  A    between atoms: C_3  and  C_4
REMARK    4  A    between atoms: C_3  and  N_15
REMARK    5  A    between atoms: C_21  and  C_22
REMARK                            x       y       z     vdW  Elec       q    Type
REMARK                         _______ _______ _______ _____ _____    ______ ____
ROOT
ATOM      1  N   UNL     1      -0.980  11.039  18.628  0.00  0.00    +0.000 N 
ATOM      2  C   UNL     1      -1.473  10.106  17.739  0.00  0.00    +0.000 A 
ATOM      3  N   UNL     1      -2.558  10.526  17.156  0.00  0.00    +0.000 NA
ATOM      4  C   UNL     1      -3.012  11.454  18.028  0.00  0.00    +0.000 A 
ATOM      5  N   UNL     1      -4.273  11.903  17.963  0.00  0.00    +0.000 NA
ATOM      6  C   UNL     1      -4.709  12.343  19.149  0.00  0.00    +0.000 A 
ATOM      7  C   UNL     1      -3.957  12.454  20.333  0.00  0.00    +0.000 A 
ATOM      8  N   UNL     1      -2.570  12.185  20.343  0.00  0.00    +0.000 NA
ATOM      9  C   UNL     1      -2.150  11.653  19.127  0.00  0.00    +0.000 A 
ENDROOT
BRANCH   7  10
ATOM     10  C   UNL     1      -4.763  12.715  21.615  0.00  0.00    +0.000 A 
ATOM     11  C   UNL     1      -4.188  12.912  22.877  0.00  0.00    +0.000 A 
ATOM     12  C   UNL     1      -4.985  12.967  24.056  0.00  0.00    +0.000 A 
ATOM     13  C   UNL     1      -6.376  12.829  24.018  0.00  0.00    +0.000 A 
ATOM     14  C   UNL     1      -6.982  12.673  22.792  0.00  0.00    +0.000 A 
ATOM     15  C   UNL     1      -6.194  12.643  21.625  0.00  0.00    +0.000 A 
ENDBRANCH   7  10
BRANCH   1  16
ATOM     16  C   UNL     1       0.489  11.156  18.829  0.00  0.00    +0.000 C 
BRANCH  16  17
ATOM     17  C   UNL     1       1.234   9.751  18.802  0.00  0.00    +0.000 A 
ATOM     18  C   UNL     1       2.151   9.428  17.792  0.00  0.00    +0.000 A 
ATOM     19  C   UNL     1       2.850   8.189  17.798  0.00  0.00    +0.000 A 
ATOM     20  C   UNL     1       2.661   7.209  18.769  0.00  0.00    +0.000 A 
ATOM     21  N   UNL     1       3.314   6.021  18.702  0.00  0.00    +0.000 NA
ATOM     22  C   UNL     1       3.071   5.094  19.664  0.00  0.00    +0.000 A 
ATOM     23  C   UNL     1       2.205   5.292  20.723  0.00  0.00    +0.000 A 
ATOM     24  C   UNL     1       1.569   6.524  20.798  0.00  0.00    +0.000 A 
ATOM     25  C   UNL     1       1.780   7.511  19.807  0.00  0.00    +0.000 A 
ATOM     26  C   UNL     1       1.140   8.779  19.832  0.00  0.00    +0.000 A 
ATOM     27  F   UNL     1       0.483   9.065  20.961  0.00  0.00    +0.000 F 
ENDBRANCH  16  17
BRANCH  16  29
ATOM     28  C   UNL     1       1.874  12.957  20.097  0.00  0.00    +0.000 C 
ATOM     29  C   UNL     1       0.869  11.823  20.180  0.00  0.00    +0.000 C 
ENDBRANCH  16  29
ENDBRANCH   1  16
TORSDOF 4
ENDMDL
