MODEL 1
REMARK VINA RESULT:      -8.5      0.000      0.000
REMARK  Name = 
REMARK  3 active torsions:
REMARK  status: ('A' for Active; 'I' for Inactive)
REMARK    1  A    between atoms: C_1  and  C_2
REMARK    2  A    between atoms: C_9  and  C_11
REMARK    3  A    between atoms: N_22  and  C_23
REMARK                            x       y       z     vdW  Elec       q    Type
REMARK                         _______ _______ _______ _____ _____    ______ ____
ROOT
ATOM      1  C   UNL     1       1.911   7.981  19.395  0.00  0.00    +0.000 C 
ATOM      2  C   UNL     1       2.581   6.641  19.333  0.00  0.00    +0.000 A 
ATOM      3  N   UNL     1       3.477   6.448  18.332  0.00  0.00    +0.000 NA
ATOM      4  C   UNL     1       4.100   5.247  18.208  0.00  0.00    +0.000 A 
ATOM      5  N   UNL     1       5.032   5.014  17.203  0.00  0.00    +0.000 N 
ATOM      6  C   UNL     1       5.592   6.202  16.529  0.00  0.00    +0.000 C 
ATOM      7  C   UNL     1       6.836   5.775  15.714  0.00  0.00    +0.000 C 
ATOM      8  N   UNL     1       6.532   4.650  14.810  0.00  0.00    +0.000 N 
ATOM      9  C   UNL     1       7.019   4.689  13.508  0.00  0.00    +0.000 C 
ATOM     10  O   UNL     1       7.742   5.602  13.106  0.00  0.00    +0.000 OA
ATOM     11  C   UNL     1       5.922   3.502  15.502  0.00  0.00    +0.000 C 
ATOM     12  C   UNL     1       4.653   3.951  16.250  0.00  0.00    +0.000 C 
ATOM     13  C   UNL     1       3.805   4.274  19.171  0.00  0.00    +0.000 A 
ATOM     14  C   UNL     1       4.229   2.969  19.498  0.00  0.00    +0.000 A 
ATOM     15  N   UNL     1       3.586   2.459  20.552  0.00  0.00    +0.000 NA
ATOM     16  N   UNL     1       2.763   3.467  20.921  0.00  0.00    +0.000 N 
ATOM     17  C   UNL     1       1.870   3.296  22.037  0.00  0.00    +0.000 C 
ATOM     18  C   UNL     1       2.873   4.586  20.138  0.00  0.00    +0.000 A 
ATOM     19  N   UNL     1       2.213   5.746  20.273  0.00  0.00    +0.000 NA
ENDROOT
BRANCH   9  20
ATOM     20  C   UNL     1       6.679   3.615  12.534  0.00  0.00    +0.000 A 
ATOM     21  C   UNL     1       5.361   3.289  12.202  0.00  0.00    +0.000 A 
ATOM     22  C   UNL     1       5.094   2.233  11.327  0.00  0.00    +0.000 A 
ATOM     23  C   UNL     1       6.147   1.556  10.715  0.00  0.00    +0.000 A 
ATOM     24  C   UNL     1       7.464   1.938  10.967  0.00  0.00    +0.000 A 
ATOM     25  C   UNL     1       7.731   2.962  11.877  0.00  0.00    +0.000 A 
ENDBRANCH   9  20
TORSDOF 1
ENDMDL
MODEL 2
REMARK VINA RESULT:      -8.4      4.355      6.707
REMARK  Name = 
REMARK  3 active torsions:
REMARK  status: ('A' for Active; 'I' for Inactive)
REMARK    1  A    between atoms: C_1  and  C_2
REMARK    2  A    between atoms: C_9  and  C_11
REMARK    3  A    between atoms: N_22  and  C_23
REMARK                            x       y       z     vdW  Elec       q    Type
REMARK                         _______ _______ _______ _____ _____    ______ ____
ROOT
ATOM      1  C   UNL     1      -1.798  11.831  17.801  0.00  0.00    +0.000 C 
ATOM      2  C   UNL     1      -1.027  11.168  18.904  0.00  0.00    +0.000 A 
ATOM      3  N   UNL     1      -0.056  10.295  18.535  0.00  0.00    +0.000 NA
ATOM      4  C   UNL     1       0.660   9.642  19.488  0.00  0.00    +0.000 A 
ATOM      5  N   UNL     1       1.671   8.749  19.150  0.00  0.00    +0.000 N 
ATOM      6  C   UNL     1       2.184   8.819  17.767  0.00  0.00    +0.000 C 
ATOM      7  C   UNL     1       3.507   8.021  17.684  0.00  0.00    +0.000 C 
ATOM      8  N   UNL     1       3.347   6.650  18.204  0.00  0.00    +0.000 N 
ATOM      9  C   UNL     1       3.913   5.596  17.495  0.00  0.00    +0.000 C 
ATOM     10  O   UNL     1       4.591   5.777  16.483  0.00  0.00    +0.000 OA
ATOM     11  C   UNL     1       2.779   6.610  19.563  0.00  0.00    +0.000 C 
ATOM     12  C   UNL     1       1.434   7.361  19.594  0.00  0.00    +0.000 C 
ATOM     13  C   UNL     1       0.376   9.954  20.823  0.00  0.00    +0.000 A 
ATOM     14  C   UNL     1       0.873   9.619  22.100  0.00  0.00    +0.000 A 
ATOM     15  N   UNL     1       0.202  10.208  23.093  0.00  0.00    +0.000 NA
ATOM     16  N   UNL     1      -0.715  10.955  22.437  0.00  0.00    +0.000 N 
ATOM     17  C   UNL     1      -1.664  11.745  23.178  0.00  0.00    +0.000 C 
ATOM     18  C   UNL     1      -0.638  10.855  21.073  0.00  0.00    +0.000 A 
ATOM     19  N   UNL     1      -1.389  11.492  20.162  0.00  0.00    +0.000 NA
ENDROOT
BRANCH   9  20
ATOM     20  C   UNL     1       3.718   4.187  17.937  0.00  0.00    +0.000 A 
ATOM     21  C   UNL     1       4.498   3.597  18.937  0.00  0.00    +0.000 A 
ATOM     22  C   UNL     1       4.314   2.253  19.273  0.00  0.00    +0.000 A 
ATOM     23  C   UNL     1       3.293   1.520  18.672  0.00  0.00    +0.000 A 
ATOM     24  C   UNL     1       2.449   2.129  17.744  0.00  0.00    +0.000 A 
ATOM     25  C   UNL     1       2.663   3.458  17.373  0.00  0.00    +0.000 A 
ENDBRANCH   9  20
TORSDOF 1
ENDMDL
MODEL 3
REMARK VINA RESULT:      -8.4      3.708      8.832
REMARK  Name = 
REMARK  3 active torsions:
REMARK  status: ('A' for Active; 'I' for Inactive)
REMARK    1  A    between atoms: C_1  and  C_2
REMARK    2  A    between atoms: C_9  and  C_11
REMARK    3  A    between atoms: N_22  and  C_23
REMARK                            x       y       z     vdW  Elec       q    Type
REMARK                         _______ _______ _______ _____ _____    ______ ____
ROOT
ATOM      1  C   UNL     1       3.072   1.911  18.104  0.00  0.00    +0.000 C 
ATOM      2  C   UNL     1       3.562   3.287  17.765  0.00  0.00    +0.000 A 
ATOM      3  N   UNL     1       2.985   4.324  18.422  0.00  0.00    +0.000 NA
ATOM      4  C   UNL     1       3.369   5.598  18.141  0.00  0.00    +0.000 A 
ATOM      5  N   UNL     1       2.810   6.686  18.801  0.00  0.00    +0.000 N 
ATOM      6  C   UNL     1       2.081   6.401  20.053  0.00  0.00    +0.000 C 
ATOM      7  C   UNL     1       1.844   7.730  20.807  0.00  0.00    +0.000 C 
ATOM      8  N   UNL     1       1.198   8.736  19.944  0.00  0.00    +0.000 N 
ATOM      9  C   UNL     1       0.156   9.495  20.466  0.00  0.00    +0.000 C 
ATOM     10  O   UNL     1      -0.204   9.394  21.640  0.00  0.00    +0.000 OA
ATOM     11  C   UNL     1       1.917   8.958  18.677  0.00  0.00    +0.000 C 
ATOM     12  C   UNL     1       2.080   7.623  17.924  0.00  0.00    +0.000 C 
ATOM     13  C   UNL     1       4.395   5.760  17.201  0.00  0.00    +0.000 A 
ATOM     14  C   UNL     1       5.152   6.819  16.658  0.00  0.00    +0.000 A 
ATOM     15  N   UNL     1       6.033   6.414  15.740  0.00  0.00    +0.000 NA
ATOM     16  N   UNL     1       5.856   5.073  15.721  0.00  0.00    +0.000 N 
ATOM     17  C   UNL     1       6.630   4.256  14.822  0.00  0.00    +0.000 C 
ATOM     18  C   UNL     1       4.900   4.629  16.595  0.00  0.00    +0.000 A 
ATOM     19  N   UNL     1       4.523   3.361  16.821  0.00  0.00    +0.000 NA
ENDROOT
BRANCH   9  20
ATOM     20  C   UNL     1      -0.578  10.471  19.615  0.00  0.00    +0.000 A 
ATOM     21  C   UNL     1      -0.359  11.850  19.690  0.00  0.00    +0.000 A 
ATOM     22  C   UNL     1      -1.117  12.728  18.911  0.00  0.00    +0.000 A 
ATOM     23  C   UNL     1      -2.036  12.225  17.993  0.00  0.00    +0.000 A 
ATOM     24  C   UNL     1      -2.193  10.848  17.843  0.00  0.00    +0.000 A 
ATOM     25  C   UNL     1      -1.469   9.972  18.655  0.00  0.00    +0.000 A 
ENDBRANCH   9  20
TORSDOF 1
ENDMDL
MODEL 4
REMARK VINA RESULT:      -7.8      3.889      8.723
REMARK  Name = 
REMARK  3 active torsions:
REMARK  status: ('A' for Active; 'I' for Inactive)
REMARK    1  A    between atoms: C_1  and  C_2
REMARK    2  A    between atoms: C_9  and  C_11
REMARK    3  A    between atoms: N_22  and  C_23
REMARK                            x       y       z     vdW  Elec       q    Type
REMARK                         _______ _______ _______ _____ _____    ______ ____
ROOT
ATOM      1  C   UNL     1       3.845   2.475  19.574  0.00  0.00    +0.000 C 
ATOM      2  C   UNL     1       4.044   3.725  18.770  0.00  0.00    +0.000 A 
ATOM      3  N   UNL     1       3.328   4.816  19.141  0.00  0.00    +0.000 NA
ATOM      4  C   UNL     1       3.446   5.972  18.436  0.00  0.00    +0.000 A 
ATOM      5  N   UNL     1       2.738   7.114  18.793  0.00  0.00    +0.000 N 
ATOM      6  C   UNL     1       2.162   7.141  20.152  0.00  0.00    +0.000 C 
ATOM      7  C   UNL     1       1.731   8.589  20.484  0.00  0.00    +0.000 C 
ATOM      8  N   UNL     1       0.850   9.145  19.440  0.00  0.00    +0.000 N 
ATOM      9  C   UNL     1      -0.278   9.860  19.829  0.00  0.00    +0.000 C 
ATOM     10  O   UNL     1      -0.532  10.091  21.012  0.00  0.00    +0.000 OA
ATOM     11  C   UNL     1       1.427   9.052  18.087  0.00  0.00    +0.000 C 
ATOM     12  C   UNL     1       1.786   7.588  17.768  0.00  0.00    +0.000 C 
ATOM     13  C   UNL     1       4.356   5.978  17.372  0.00  0.00    +0.000 A 
ATOM     14  C   UNL     1       4.862   6.907  16.439  0.00  0.00    +0.000 A 
ATOM     15  N   UNL     1       5.740   6.368  15.588  0.00  0.00    +0.000 NA
ATOM     16  N   UNL     1       5.817   5.085  16.006  0.00  0.00    +0.000 N 
ATOM     17  C   UNL     1       6.667   4.151  15.314  0.00  0.00    +0.000 C 
ATOM     18  C   UNL     1       5.023   4.805  17.086  0.00  0.00    +0.000 A 
ATOM     19  N   UNL     1       4.907   3.637  17.737  0.00  0.00    +0.000 NA
ENDROOT
BRANCH   9  20
ATOM     20  C   UNL     1      -1.239  10.378  18.816  0.00  0.00    +0.000 A 
ATOM     21  C   UNL     1      -1.413   9.777  17.566  0.00  0.00    +0.000 A 
ATOM     22  C   UNL     1      -2.284  10.338  16.629  0.00  0.00    +0.000 A 
ATOM     23  C   UNL     1      -3.047  11.452  16.970  0.00  0.00    +0.000 A 
ATOM     24  C   UNL     1      -2.951  12.001  18.248  0.00  0.00    +0.000 A 
ATOM     25  C   UNL     1      -2.045  11.469  19.168  0.00  0.00    +0.000 A 
ENDBRANCH   9  20
TORSDOF 1
ENDMDL
MODEL 5
REMARK VINA RESULT:      -7.7      3.961      8.674
REMARK  Name = 
REMARK  3 active torsions:
REMARK  status: ('A' for Active; 'I' for Inactive)
REMARK    1  A    between atoms: C_1  and  C_2
REMARK    2  A    between atoms: C_9  and  C_11
REMARK    3  A    between atoms: N_22  and  C_23
REMARK                            x       y       z     vdW  Elec       q    Type
REMARK                         _______ _______ _______ _____ _____    ______ ____
ROOT
ATOM      1  C   UNL     1       3.946   2.754  19.922  0.00  0.00    +0.000 C 
ATOM      2  C   UNL     1       4.114   3.970  19.060  0.00  0.00    +0.000 A 
ATOM      3  N   UNL     1       3.353   5.050  19.367  0.00  0.00    +0.000 NA
ATOM      4  C   UNL     1       3.441   6.174  18.608  0.00  0.00    +0.000 A 
ATOM      5  N   UNL     1       2.686   7.305  18.896  0.00  0.00    +0.000 N 
ATOM      6  C   UNL     1       2.085   7.376  20.243  0.00  0.00    +0.000 C 
ATOM      7  C   UNL     1       1.595   8.822  20.496  0.00  0.00    +0.000 C 
ATOM      8  N   UNL     1       0.714   9.294  19.411  0.00  0.00    +0.000 N 
ATOM      9  C   UNL     1      -0.446   9.984  19.746  0.00  0.00    +0.000 C 
ATOM     10  O   UNL     1      -0.730  10.262  20.911  0.00  0.00    +0.000 OA
ATOM     11  C   UNL     1       1.319   9.157  18.075  0.00  0.00    +0.000 C 
ATOM     12  C   UNL     1       1.737   7.694  17.833  0.00  0.00    +0.000 C 
ATOM     13  C   UNL     1       4.371   6.162  17.560  0.00  0.00    +0.000 A 
ATOM     14  C   UNL     1       4.860   7.064  16.591  0.00  0.00    +0.000 A 
ATOM     15  N   UNL     1       5.772   6.518  15.782  0.00  0.00    +0.000 NA
ATOM     16  N   UNL     1       5.887   5.259  16.263  0.00  0.00    +0.000 N 
ATOM     17  C   UNL     1       6.784   4.326  15.632  0.00  0.00    +0.000 C 
ATOM     18  C   UNL     1       5.084   5.003  17.343  0.00  0.00    +0.000 A 
ATOM     19  N   UNL     1       4.999   3.864  18.048  0.00  0.00    +0.000 NA
ENDROOT
BRANCH   9  20
ATOM     20  C   UNL     1      -1.406  10.417  18.693  0.00  0.00    +0.000 A 
ATOM     21  C   UNL     1      -2.243  11.527  18.847  0.00  0.00    +0.000 A 
ATOM     22  C   UNL     1      -3.168  11.856  17.854  0.00  0.00    +0.000 A 
ATOM     23  C   UNL     1      -3.201  11.127  16.666  0.00  0.00    +0.000 A 
ATOM     24  C   UNL     1      -2.304  10.079  16.465  0.00  0.00    +0.000 A 
ATOM     25  C   UNL     1      -1.412   9.721  17.477  0.00  0.00    +0.000 A 
ENDBRANCH   9  20
TORSDOF 1
ENDMDL
MODEL 6
REMARK VINA RESULT:      -7.6      3.834      8.928
REMARK  Name = 
REMARK  3 active torsions:
REMARK  status: ('A' for Active; 'I' for Inactive)
REMARK    1  A    between atoms: C_1  and  C_2
REMARK    2  A    between atoms: C_9  and  C_11
REMARK    3  A    between atoms: N_22  and  C_23
REMARK                            x       y       z     vdW  Elec       q    Type
REMARK                         _______ _______ _______ _____ _____    ______ ____
ROOT
ATOM      1  C   UNL     1       2.098   1.987  18.391  0.00  0.00    +0.000 C 
ATOM      2  C   UNL     1       2.800   3.276  18.083  0.00  0.00    +0.000 A 
ATOM      3  N   UNL     1       2.365   4.383  18.735  0.00  0.00    +0.000 NA
ATOM      4  C   UNL     1       2.944   5.586  18.481  0.00  0.00    +0.000 A 
ATOM      5  N   UNL     1       2.534   6.742  19.137  0.00  0.00    +0.000 N 
ATOM      6  C   UNL     1       1.732   6.560  20.364  0.00  0.00    +0.000 C 
ATOM      7  C   UNL     1       1.673   7.904  21.127  0.00  0.00    +0.000 C 
ATOM      8  N   UNL     1       1.213   9.002  20.257  0.00  0.00    +0.000 N 
ATOM      9  C   UNL     1       0.280   9.905  20.757  0.00  0.00    +0.000 C 
ATOM     10  O   UNL     1      -0.127   9.850  21.919  0.00  0.00    +0.000 OA
ATOM     11  C   UNL     1       1.995   9.123  19.015  0.00  0.00    +0.000 C 
ATOM     12  C   UNL     1       1.979   7.784  18.250  0.00  0.00    +0.000 C 
ATOM     13  C   UNL     1       4.010   5.600  17.573  0.00  0.00    +0.000 A 
ATOM     14  C   UNL     1       4.934   6.537  17.066  0.00  0.00    +0.000 A 
ATOM     15  N   UNL     1       5.773   6.011  16.169  0.00  0.00    +0.000 NA
ATOM     16  N   UNL     1       5.397   4.713  16.129  0.00  0.00    +0.000 N 
ATOM     17  C   UNL     1       6.067   3.795  15.244  0.00  0.00    +0.000 C 
ATOM     18  C   UNL     1       4.359   4.411  16.970  0.00  0.00    +0.000 A 
ATOM     19  N   UNL     1       3.789   3.212  17.169  0.00  0.00    +0.000 NA
ENDROOT
BRANCH   9  20
ATOM     20  C   UNL     1      -0.273  10.986  19.897  0.00  0.00    +0.000 A 
ATOM     21  C   UNL     1      -1.327  10.773  19.003  0.00  0.00    +0.000 A 
ATOM     22  C   UNL     1      -1.770  11.807  18.174  0.00  0.00    +0.000 A 
ATOM     23  C   UNL     1      -1.217  13.080  18.298  0.00  0.00    +0.000 A 
ATOM     24  C   UNL     1      -0.232  13.325  19.253  0.00  0.00    +0.000 A 
ATOM     25  C   UNL     1       0.243  12.280  20.048  0.00  0.00    +0.000 A 
ENDBRANCH   9  20
TORSDOF 1
ENDMDL
MODEL 7
REMARK VINA RESULT:      -7.4      3.383      6.262
REMARK  Name = 
REMARK  3 active torsions:
REMARK  status: ('A' for Active; 'I' for Inactive)
REMARK    1  A    between atoms: C_1  and  C_2
REMARK    2  A    between atoms: C_9  and  C_11
REMARK    3  A    between atoms: N_22  and  C_23
REMARK                            x       y       z     vdW  Elec       q    Type
REMARK                         _______ _______ _______ _____ _____    ______ ____
ROOT
ATOM      1  C   UNL     1       0.644   9.299  24.000  0.00  0.00    +0.000 C 
ATOM      2  C   UNL     1       0.677   9.390  22.504  0.00  0.00    +0.000 A 
ATOM      3  N   UNL     1       1.121   8.299  21.831  0.00  0.00    +0.000 NA
ATOM      4  C   UNL     1       1.197   8.329  20.474  0.00  0.00    +0.000 A 
ATOM      5  N   UNL     1       1.636   7.227  19.748  0.00  0.00    +0.000 N 
ATOM      6  C   UNL     1       1.653   5.931  20.455  0.00  0.00    +0.000 C 
ATOM      7  C   UNL     1       1.824   4.798  19.415  0.00  0.00    +0.000 C 
ATOM      8  N   UNL     1       2.993   5.031  18.546  0.00  0.00    +0.000 N 
ATOM      9  C   UNL     1       3.838   3.964  18.262  0.00  0.00    +0.000 C 
ATOM     10  O   UNL     1       3.609   2.822  18.664  0.00  0.00    +0.000 OA
ATOM     11  C   UNL     1       2.977   6.355  17.901  0.00  0.00    +0.000 C 
ATOM     12  C   UNL     1       2.869   7.461  18.969  0.00  0.00    +0.000 C 
ATOM     13  C   UNL     1       0.758   9.497  19.838  0.00  0.00    +0.000 A 
ATOM     14  C   UNL     1       0.578   9.958  18.517  0.00  0.00    +0.000 A 
ATOM     15  N   UNL     1       0.127  11.214  18.460  0.00  0.00    +0.000 NA
ATOM     16  N   UNL     1      -0.012  11.546  19.763  0.00  0.00    +0.000 N 
ATOM     17  C   UNL     1      -0.471  12.861  20.128  0.00  0.00    +0.000 C 
ATOM     18  C   UNL     1       0.332  10.542  20.630  0.00  0.00    +0.000 A 
ATOM     19  N   UNL     1       0.275  10.563  21.970  0.00  0.00    +0.000 NA
ENDROOT
BRANCH   9  20
ATOM     20  C   UNL     1       5.071   4.162  17.451  0.00  0.00    +0.000 A 
ATOM     21  C   UNL     1       5.086   4.032  16.059  0.00  0.00    +0.000 A 
ATOM     22  C   UNL     1       6.282   4.170  15.350  0.00  0.00    +0.000 A 
ATOM     23  C   UNL     1       7.450   4.522  16.022  0.00  0.00    +0.000 A 
ATOM     24  C   UNL     1       7.424   4.748  17.398  0.00  0.00    +0.000 A 
ATOM     25  C   UNL     1       6.239   4.564  18.112  0.00  0.00    +0.000 A 
ENDBRANCH   9  20
TORSDOF 1
ENDMDL
MODEL 8
REMARK VINA RESULT:      -7.1      4.521      9.722
REMARK  Name = 
REMARK  3 active torsions:
REMARK  status: ('A' for Active; 'I' for Inactive)
REMARK    1  A    between atoms: C_1  and  C_2
REMARK    2  A    between atoms: C_9  and  C_11
REMARK    3  A    between atoms: N_22  and  C_23
REMARK                            x       y       z     vdW  Elec       q    Type
REMARK                         _______ _______ _______ _____ _____    ______ ____
ROOT
ATOM      1  C   UNL     1       5.700   6.597  16.927  0.00  0.00    +0.000 C 
ATOM      2  C   UNL     1       4.553   6.343  17.859  0.00  0.00    +0.000 A 
ATOM      3  N   UNL     1       3.611   7.314  17.952  0.00  0.00    +0.000 NA
ATOM      4  C   UNL     1       2.559   7.154  18.798  0.00  0.00    +0.000 A 
ATOM      5  N   UNL     1       1.567   8.121  18.913  0.00  0.00    +0.000 N 
ATOM      6  C   UNL     1       1.493   9.128  17.836  0.00  0.00    +0.000 C 
ATOM      7  C   UNL     1       0.147   9.883  17.948  0.00  0.00    +0.000 C 
ATOM      8  N   UNL     1      -0.059  10.427  19.303  0.00  0.00    +0.000 N 
ATOM      9  C   UNL     1      -0.547  11.722  19.436  0.00  0.00    +0.000 C 
ATOM     10  O   UNL     1      -0.867  12.405  18.462  0.00  0.00    +0.000 OA
ATOM     11  C   UNL     1       0.078   9.410  20.360  0.00  0.00    +0.000 C 
ATOM     12  C   UNL     1       1.453   8.724  20.257  0.00  0.00    +0.000 C 
ATOM     13  C   UNL     1       2.488   5.946  19.503  0.00  0.00    +0.000 A 
ATOM     14  C   UNL     1       1.597   5.310  20.393  0.00  0.00    +0.000 A 
ATOM     15  N   UNL     1       2.032   4.116  20.803  0.00  0.00    +0.000 NA
ATOM     16  N   UNL     1       3.201   3.975  20.139  0.00  0.00    +0.000 N 
ATOM     17  C   UNL     1       4.003   2.795  20.331  0.00  0.00    +0.000 C 
ATOM     18  C   UNL     1       3.509   5.036  19.328  0.00  0.00    +0.000 A 
ATOM     19  N   UNL     1       4.579   5.173  18.530  0.00  0.00    +0.000 NA
ENDROOT
BRANCH   9  20
ATOM     20  C   UNL     1      -0.703  12.345  20.779  0.00  0.00    +0.000 A 
ATOM     21  C   UNL     1      -1.524  11.799  21.772  0.00  0.00    +0.000 A 
ATOM     22  C   UNL     1      -1.682  12.455  22.995  0.00  0.00    +0.000 A 
ATOM     23  C   UNL     1      -0.953  13.612  23.262  0.00  0.00    +0.000 A 
ATOM     24  C   UNL     1      -0.059  14.109  22.315  0.00  0.00    +0.000 A 
ATOM     25  C   UNL     1       0.063  13.480  21.074  0.00  0.00    +0.000 A 
ENDBRANCH   9  20
TORSDOF 1
ENDMDL
MODEL 9
REMARK VINA RESULT:      -7.1      5.321      8.422
REMARK  Name = 
REMARK  3 active torsions:
REMARK  status: ('A' for Active; 'I' for Inactive)
REMARK    1  A    between atoms: C_1  and  C_2
REMARK    2  A    between atoms: C_9  and  C_11
REMARK    3  A    between atoms: N_22  and  C_23
REMARK                            x       y       z     vdW  Elec       q    Type
REMARK                         _______ _______ _______ _____ _____    ______ ____
ROOT
ATOM      1  C   UNL     1      -3.349  11.883  17.773  0.00  0.00    +0.000 C 
ATOM      2  C   UNL     1      -2.420  11.645  18.927  0.00  0.00    +0.000 A 
ATOM      3  N   UNL     1      -1.414  10.757  18.732  0.00  0.00    +0.000 NA
ATOM      4  C   UNL     1      -0.554  10.480  19.748  0.00  0.00    +0.000 A 
ATOM      5  N   UNL     1       0.497   9.584  19.584  0.00  0.00    +0.000 N 
ATOM      6  C   UNL     1       0.869   9.243  18.196  0.00  0.00    +0.000 C 
ATOM      7  C   UNL     1       2.244   8.535  18.206  0.00  0.00    +0.000 C 
ATOM      8  N   UNL     1       2.259   7.392  19.138  0.00  0.00    +0.000 N 
ATOM      9  C   UNL     1       2.849   6.202  18.725  0.00  0.00    +0.000 C 
ATOM     10  O   UNL     1       3.409   6.092  17.634  0.00  0.00    +0.000 OA
ATOM     11  C   UNL     1       1.828   7.751  20.500  0.00  0.00    +0.000 C 
ATOM     12  C   UNL     1       0.429   8.396  20.458  0.00  0.00    +0.000 C 
ATOM     13  C   UNL     1      -0.738  11.180  20.947  0.00  0.00    +0.000 A 
ATOM     14  C   UNL     1      -0.094  11.293  22.197  0.00  0.00    +0.000 A 
ATOM     15  N   UNL     1      -0.719  12.126  23.033  0.00  0.00    +0.000 NA
ATOM     16  N   UNL     1      -1.757  12.575  22.292  0.00  0.00    +0.000 N 
ATOM     17  C   UNL     1      -2.700  13.504  22.861  0.00  0.00    +0.000 C 
ATOM     18  C   UNL     1      -1.801  12.055  21.026  0.00  0.00    +0.000 A 
ATOM     19  N   UNL     1      -2.690  12.328  20.059  0.00  0.00    +0.000 NA
ENDROOT
BRANCH   9  20
ATOM     20  C   UNL     1       2.825   4.996  19.598  0.00  0.00    +0.000 A 
ATOM     21  C   UNL     1       1.797   4.749  20.514  0.00  0.00    +0.000 A 
ATOM     22  C   UNL     1       1.852   3.633  21.352  0.00  0.00    +0.000 A 
ATOM     23  C   UNL     1       2.891   2.714  21.218  0.00  0.00    +0.000 A 
ATOM     24  C   UNL     1       3.868   2.902  20.241  0.00  0.00    +0.000 A 
ATOM     25  C   UNL     1       3.839   4.042  19.436  0.00  0.00    +0.000 A 
ENDBRANCH   9  20
TORSDOF 1
ENDMDL
