MODEL 1
REMARK VINA RESULT:      -7.9      0.000      0.000
REMARK  Name = 
REMARK  9 active torsions:
REMARK  status: ('A' for Active; 'I' for Inactive)
REMARK    1  A    between atoms: C_2  and  O_3
REMARK    2  A    between atoms: C_2  and  C_4
REMARK    3  A    between atoms: C_7  and  C_8
REMARK    4  A    between atoms: C_8  and  N_9
REMARK    5  A    between atoms: N_9  and  C_10
REMARK    6  A    between atoms: N_9  and  S_18
REMARK    7  A    between atoms: C_10  and  C_11
REMARK    8  A    between atoms: S_18  and  C_21
REMARK    9  A    between atoms: C_21  and  C_22
REMARK                            x       y       z     vdW  Elec       q    Type
REMARK                         _______ _______ _______ _____ _____    ______ ____
ROOT
ATOM      1  N   UNL     1       4.509   6.137  17.677  0.00  0.00    +0.000 NA
ENDROOT
BRANCH   1   2
ATOM      2  S   UNL     1       5.772   6.484  16.436  0.00  0.00    +0.000 S 
ATOM      3  O   UNL     1       5.064   6.866  15.240  0.00  0.00    +0.000 OA
ATOM      4  O   UNL     1       6.714   7.375  17.079  0.00  0.00    +0.000 OA
BRANCH   2   5
ATOM      5  C   UNL     1       6.548   4.864  16.164  0.00  0.00    +0.000 C 
BRANCH   5   6
ATOM      6  C   UNL     1       6.695   4.622  14.677  0.00  0.00    +0.000 A 
ATOM      7  C   UNL     1       7.658   5.320  13.929  0.00  0.00    +0.000 A 
ATOM      8  C   UNL     1       7.799   5.097  12.558  0.00  0.00    +0.000 A 
ATOM      9  C   UNL     1       6.977   4.172  11.916  0.00  0.00    +0.000 A 
ATOM     10  C   UNL     1       6.021   3.471  12.647  0.00  0.00    +0.000 A 
ATOM     11  C   UNL     1       5.880   3.693  14.019  0.00  0.00    +0.000 A 
ENDBRANCH   5   6
ENDBRANCH   2   5
ENDBRANCH   1   2
BRANCH   1  12
ATOM     12  C   UNL     1       3.617   7.351  17.803  0.00  0.00    +0.000 C 
BRANCH  12  16
ATOM     13  C   UNL     1       1.322   9.539  20.005  0.00  0.00    +0.000 C 
ATOM     14  C   UNL     1       1.937   8.249  20.557  0.00  0.00    +0.000 C 
ATOM     15  C   UNL     1       1.767   7.034  19.651  0.00  0.00    +0.000 C 
ATOM     16  C   UNL     1       2.125   7.241  18.170  0.00  0.00    +0.000 C 
ATOM     17  C   UNL     1       1.416   8.523  17.674  0.00  0.00    +0.000 C 
ATOM     18  C   UNL     1       1.725   9.748  18.542  0.00  0.00    +0.000 C 
BRANCH  13  20
ATOM     19  O   UNL     1      -0.950  10.218  19.422  0.00  0.00    +0.000 OA
ATOM     20  C   UNL     1      -0.198   9.612  20.166  0.00  0.00    +0.000 C 
BRANCH  20  21
ATOM     21  O   UNL     1      -0.657   8.994  21.280  0.00  0.00    +0.000 OA
ATOM     22  H   UNL     1      -1.388   9.447  21.726  0.00  0.00    +0.000 HD
ENDBRANCH  20  21
ENDBRANCH  13  20
ENDBRANCH  12  16
ENDBRANCH   1  12
BRANCH   1  23
ATOM     23  C   UNL     1       3.853   4.835  17.224  0.00  0.00    +0.000 C 
BRANCH  23  24
ATOM     24  C   UNL     1       3.144   4.010  18.273  0.00  0.00    +0.000 A 
ATOM     25  C   UNL     1       1.834   3.557  18.035  0.00  0.00    +0.000 A 
ATOM     26  C   UNL     1       1.059   3.068  19.087  0.00  0.00    +0.000 A 
ATOM     27  C   UNL     1       1.606   2.996  20.360  0.00  0.00    +0.000 A 
ATOM     28  F   UNL     1       0.824   2.673  21.398  0.00  0.00    +0.000 F 
ATOM     29  C   UNL     1       2.947   3.289  20.578  0.00  0.00    +0.000 A 
ATOM     30  C   UNL     1       3.730   3.760  19.521  0.00  0.00    +0.000 A 
ENDBRANCH  23  24
ENDBRANCH   1  23
TORSDOF 9
ENDMDL
MODEL 2
REMARK VINA RESULT:      -7.7      0.540      1.219
REMARK  Name = 
REMARK  9 active torsions:
REMARK  status: ('A' for Active; 'I' for Inactive)
REMARK    1  A    between atoms: C_2  and  O_3
REMARK    2  A    between atoms: C_2  and  C_4
REMARK    3  A    between atoms: C_7  and  C_8
REMARK    4  A    between atoms: C_8  and  N_9
REMARK    5  A    between atoms: N_9  and  C_10
REMARK    6  A    between atoms: N_9  and  S_18
REMARK    7  A    between atoms: C_10  and  C_11
REMARK    8  A    between atoms: S_18  and  C_21
REMARK    9  A    between atoms: C_21  and  C_22
REMARK                            x       y       z     vdW  Elec       q    Type
REMARK                         _______ _______ _______ _____ _____    ______ ____
ROOT
ATOM      1  N   UNL     1       4.632   5.960  17.942  0.00  0.00    +0.000 NA
ENDROOT
BRANCH   1   2
ATOM      2  S   UNL     1       5.761   6.338  16.585  0.00  0.00    +0.000 S 
ATOM      3  O   UNL     1       4.932   6.704  15.465  0.00  0.00    +0.000 OA
ATOM      4  O   UNL     1       6.740   7.249  17.136  0.00  0.00    +0.000 OA
BRANCH   2   5
ATOM      5  C   UNL     1       6.543   4.736  16.234  0.00  0.00    +0.000 C 
BRANCH   5   6
ATOM      6  C   UNL     1       6.704   4.574  14.737  0.00  0.00    +0.000 A 
ATOM      7  C   UNL     1       5.869   3.703  14.016  0.00  0.00    +0.000 A 
ATOM      8  C   UNL     1       6.013   3.554  12.635  0.00  0.00    +0.000 A 
ATOM      9  C   UNL     1       6.995   4.273  11.957  0.00  0.00    +0.000 A 
ATOM     10  C   UNL     1       7.827   5.142  12.659  0.00  0.00    +0.000 A 
ATOM     11  C   UNL     1       7.684   5.293  14.041  0.00  0.00    +0.000 A 
ENDBRANCH   5   6
ENDBRANCH   2   5
ENDBRANCH   1   2
BRANCH   1  12
ATOM     12  C   UNL     1       3.866   7.216  18.288  0.00  0.00    +0.000 C 
BRANCH  12  16
ATOM     13  C   UNL     1       1.373   9.994  19.275  0.00  0.00    +0.000 C 
ATOM     14  C   UNL     1       1.766   8.904  20.278  0.00  0.00    +0.000 C 
ATOM     15  C   UNL     1       1.677   7.484  19.728  0.00  0.00    +0.000 C 
ATOM     16  C   UNL     1       2.327   7.249  18.355  0.00  0.00    +0.000 C 
ATOM     17  C   UNL     1       1.832   8.349  17.388  0.00  0.00    +0.000 C 
ATOM     18  C   UNL     1       2.065   9.765  17.928  0.00  0.00    +0.000 C 
BRANCH  13  20
ATOM     19  O   UNL     1      -0.974   9.876  19.938  0.00  0.00    +0.000 OA
ATOM     20  C   UNL     1      -0.138  10.143  19.091  0.00  0.00    +0.000 C 
BRANCH  20  21
ATOM     21  O   UNL     1      -0.498  10.536  17.846  0.00  0.00    +0.000 OA
ATOM     22  H   UNL     1       0.223  10.895  17.307  0.00  0.00    +0.000 HD
ENDBRANCH  20  21
ENDBRANCH  13  20
ENDBRANCH  12  16
ENDBRANCH   1  12
BRANCH   1  23
ATOM     23  C   UNL     1       3.820   4.760  17.461  0.00  0.00    +0.000 C 
BRANCH  23  24
ATOM     24  C   UNL     1       3.102   3.941  18.509  0.00  0.00    +0.000 A 
ATOM     25  C   UNL     1       1.725   3.690  18.374  0.00  0.00    +0.000 A 
ATOM     26  C   UNL     1       0.988   3.212  19.457  0.00  0.00    +0.000 A 
ATOM     27  C   UNL     1       1.636   2.948  20.657  0.00  0.00    +0.000 A 
ATOM     28  F   UNL     1       0.914   2.635  21.740  0.00  0.00    +0.000 F 
ATOM     29  C   UNL     1       3.019   3.037  20.756  0.00  0.00    +0.000 A 
ATOM     30  C   UNL     1       3.760   3.498  19.664  0.00  0.00    +0.000 A 
ENDBRANCH  23  24
ENDBRANCH   1  23
TORSDOF 9
ENDMDL
MODEL 3
REMARK VINA RESULT:      -7.5      2.682      4.760
REMARK  Name = 
REMARK  9 active torsions:
REMARK  status: ('A' for Active; 'I' for Inactive)
REMARK    1  A    between atoms: C_2  and  O_3
REMARK    2  A    between atoms: C_2  and  C_4
REMARK    3  A    between atoms: C_7  and  C_8
REMARK    4  A    between atoms: C_8  and  N_9
REMARK    5  A    between atoms: N_9  and  C_10
REMARK    6  A    between atoms: N_9  and  S_18
REMARK    7  A    between atoms: C_10  and  C_11
REMARK    8  A    between atoms: S_18  and  C_21
REMARK    9  A    between atoms: C_21  and  C_22
REMARK                            x       y       z     vdW  Elec       q    Type
REMARK                         _______ _______ _______ _____ _____    ______ ____
ROOT
ATOM      1  N   UNL     1       3.528   6.296  17.222  0.00  0.00    +0.000 NA
ENDROOT
BRANCH   1   2
ATOM      2  S   UNL     1       5.132   6.244  16.396  0.00  0.00    +0.000 S 
ATOM      3  O   UNL     1       4.986   7.018  15.189  0.00  0.00    +0.000 OA
ATOM      4  O   UNL     1       6.103   6.592  17.410  0.00  0.00    +0.000 OA
BRANCH   2   5
ATOM      5  C   UNL     1       5.315   4.493  15.947  0.00  0.00    +0.000 C 
BRANCH   5   6
ATOM      6  C   UNL     1       5.941   4.390  14.573  0.00  0.00    +0.000 A 
ATOM      7  C   UNL     1       7.159   5.031  14.289  0.00  0.00    +0.000 A 
ATOM      8  C   UNL     1       7.740   4.935  13.023  0.00  0.00    +0.000 A 
ATOM      9  C   UNL     1       7.110   4.197  12.023  0.00  0.00    +0.000 A 
ATOM     10  C   UNL     1       5.904   3.553  12.292  0.00  0.00    +0.000 A 
ATOM     11  C   UNL     1       5.322   3.648  13.559  0.00  0.00    +0.000 A 
ENDBRANCH   5   6
ENDBRANCH   2   5
ENDBRANCH   1   2
BRANCH   1  12
ATOM     12  C   UNL     1       3.240   4.925  17.790  0.00  0.00    +0.000 C 
BRANCH  12  16
ATOM     13  C   UNL     1       1.236   3.037  20.497  0.00  0.00    +0.000 C 
ATOM     14  C   UNL     1       1.281   4.568  20.483  0.00  0.00    +0.000 C 
ATOM     15  C   UNL     1       2.684   5.154  20.354  0.00  0.00    +0.000 C 
ATOM     16  C   UNL     1       3.567   4.554  19.249  0.00  0.00    +0.000 C 
ATOM     17  C   UNL     1       3.519   3.013  19.371  0.00  0.00    +0.000 C 
ATOM     18  C   UNL     1       2.089   2.460  19.362  0.00  0.00    +0.000 C 
BRANCH  13  20
ATOM     19  O   UNL     1       0.855   2.138  22.735  0.00  0.00    +0.000 OA
ATOM     20  C   UNL     1       1.633   2.423  21.840  0.00  0.00    +0.000 C 
BRANCH  20  21
ATOM     21  O   UNL     1       2.971   2.284  22.001  0.00  0.00    +0.000 OA
ATOM     22  H   UNL     1       3.298   1.375  21.926  0.00  0.00    +0.000 HD
ENDBRANCH  20  21
ENDBRANCH  13  20
ENDBRANCH  12  16
ENDBRANCH   1  12
BRANCH   1  23
ATOM     23  C   UNL     1       3.629   7.453  18.213  0.00  0.00    +0.000 C 
BRANCH  23  24
ATOM     24  C   UNL     1       2.348   8.162  18.587  0.00  0.00    +0.000 A 
ATOM     25  C   UNL     1       1.653   8.903  17.615  0.00  0.00    +0.000 A 
ATOM     26  C   UNL     1       0.657   9.802  17.997  0.00  0.00    +0.000 A 
ATOM     27  C   UNL     1       0.332   9.928  19.341  0.00  0.00    +0.000 A 
ATOM     28  F   UNL     1      -0.511  10.893  19.728  0.00  0.00    +0.000 F 
ATOM     29  C   UNL     1       0.897   9.088  20.293  0.00  0.00    +0.000 A 
ATOM     30  C   UNL     1       1.880   8.173  19.908  0.00  0.00    +0.000 A 
ENDBRANCH  23  24
ENDBRANCH   1  23
TORSDOF 9
ENDMDL
MODEL 4
REMARK VINA RESULT:      -7.4      2.548      4.381
REMARK  Name = 
REMARK  9 active torsions:
REMARK  status: ('A' for Active; 'I' for Inactive)
REMARK    1  A    between atoms: C_2  and  O_3
REMARK    2  A    between atoms: C_2  and  C_4
REMARK    3  A    between atoms: C_7  and  C_8
REMARK    4  A    between atoms: C_8  and  N_9
REMARK    5  A    between atoms: N_9  and  C_10
REMARK    6  A    between atoms: N_9  and  S_18
REMARK    7  A    between atoms: C_10  and  C_11
REMARK    8  A    between atoms: S_18  and  C_21
REMARK    9  A    between atoms: C_21  and  C_22
REMARK                            x       y       z     vdW  Elec       q    Type
REMARK                         _______ _______ _______ _____ _____    ______ ____
ROOT
ATOM      1  N   UNL     1       4.091   6.542  17.291  0.00  0.00    +0.000 NA
ENDROOT
BRANCH   1   2
ATOM      2  S   UNL     1       5.476   6.548  16.134  0.00  0.00    +0.000 S 
ATOM      3  O   UNL     1       4.957   7.060  14.891  0.00  0.00    +0.000 OA
ATOM      4  O   UNL     1       6.563   7.202  16.831  0.00  0.00    +0.000 OA
BRANCH   2   5
ATOM      5  C   UNL     1       5.855   4.784  15.926  0.00  0.00    +0.000 C 
BRANCH   5   6
ATOM      6  C   UNL     1       6.262   4.524  14.491  0.00  0.00    +0.000 A 
ATOM      7  C   UNL     1       7.396   5.146  13.943  0.00  0.00    +0.000 A 
ATOM      8  C   UNL     1       7.776   4.906  12.621  0.00  0.00    +0.000 A 
ATOM      9  C   UNL     1       7.025   4.040  11.828  0.00  0.00    +0.000 A 
ATOM     10  C   UNL     1       5.900   3.414  12.361  0.00  0.00    +0.000 A 
ATOM     11  C   UNL     1       5.519   3.652  13.684  0.00  0.00    +0.000 A 
ENDBRANCH   5   6
ENDBRANCH   2   5
ENDBRANCH   1   2
BRANCH   1  12
ATOM     12  C   UNL     1       4.542   5.876  18.571  0.00  0.00    +0.000 C 
BRANCH  12  16
ATOM     13  C   UNL     1       1.247   4.085  19.489  0.00  0.00    +0.000 C 
ATOM     14  C   UNL     1       2.246   4.491  20.577  0.00  0.00    +0.000 C 
ATOM     15  C   UNL     1       3.686   4.077  20.294  0.00  0.00    +0.000 C 
ATOM     16  C   UNL     1       4.219   4.404  18.890  0.00  0.00    +0.000 C 
ATOM     17  C   UNL     1       3.187   3.907  17.851  0.00  0.00    +0.000 C 
ATOM     18  C   UNL     1       1.778   4.458  18.101  0.00  0.00    +0.000 C 
BRANCH  13  20
ATOM     19  O   UNL     1       1.175   1.828  20.418  0.00  0.00    +0.000 OA
ATOM     20  C   UNL     1       0.850   2.609  19.540  0.00  0.00    +0.000 C 
BRANCH  20  21
ATOM     21  O   UNL     1       0.148   2.197  18.457  0.00  0.00    +0.000 OA
ATOM     22  H   UNL     1      -0.767   1.935  18.640  0.00  0.00    +0.000 HD
ENDBRANCH  20  21
ENDBRANCH  13  20
ENDBRANCH  12  16
ENDBRANCH   1  12
BRANCH   1  23
ATOM     23  C   UNL     1       3.645   8.000  17.385  0.00  0.00    +0.000 C 
BRANCH  23  24
ATOM     24  C   UNL     1       2.442   8.305  18.247  0.00  0.00    +0.000 A 
ATOM     25  C   UNL     1       1.503   9.260  17.819  0.00  0.00    +0.000 A 
ATOM     26  C   UNL     1       0.568   9.776  18.717  0.00  0.00    +0.000 A 
ATOM     27  C   UNL     1       0.548   9.308  20.023  0.00  0.00    +0.000 A 
ATOM     28  F   UNL     1      -0.242   9.904  20.926  0.00  0.00    +0.000 F 
ATOM     29  C   UNL     1       1.362   8.252  20.416  0.00  0.00    +0.000 A 
ATOM     30  C   UNL     1       2.285   7.721  19.512  0.00  0.00    +0.000 A 
ENDBRANCH  23  24
ENDBRANCH   1  23
TORSDOF 9
ENDMDL
MODEL 5
REMARK VINA RESULT:      -7.3      0.822      1.373
REMARK  Name = 
REMARK  9 active torsions:
REMARK  status: ('A' for Active; 'I' for Inactive)
REMARK    1  A    between atoms: C_2  and  O_3
REMARK    2  A    between atoms: C_2  and  C_4
REMARK    3  A    between atoms: C_7  and  C_8
REMARK    4  A    between atoms: C_8  and  N_9
REMARK    5  A    between atoms: N_9  and  C_10
REMARK    6  A    between atoms: N_9  and  S_18
REMARK    7  A    between atoms: C_10  and  C_11
REMARK    8  A    between atoms: S_18  and  C_21
REMARK    9  A    between atoms: C_21  and  C_22
REMARK                            x       y       z     vdW  Elec       q    Type
REMARK                         _______ _______ _______ _____ _____    ______ ____
ROOT
ATOM      1  N   UNL     1       4.351   6.098  18.025  0.00  0.00    +0.000 NA
ENDROOT
BRANCH   1   2
ATOM      2  S   UNL     1       5.496   6.121  16.630  0.00  0.00    +0.000 S 
ATOM      3  O   UNL     1       4.894   6.967  15.631  0.00  0.00    +0.000 OA
ATOM      4  O   UNL     1       6.794   6.420  17.197  0.00  0.00    +0.000 OA
BRANCH   2   5
ATOM      5  C   UNL     1       5.467   4.404  16.036  0.00  0.00    +0.000 C 
BRANCH   5   6
ATOM      6  C   UNL     1       6.035   4.349  14.634  0.00  0.00    +0.000 A 
ATOM      7  C   UNL     1       7.231   5.016  14.317  0.00  0.00    +0.000 A 
ATOM      8  C   UNL     1       7.758   4.964  13.025  0.00  0.00    +0.000 A 
ATOM      9  C   UNL     1       7.096   4.245  12.032  0.00  0.00    +0.000 A 
ATOM     10  C   UNL     1       5.912   3.576  12.334  0.00  0.00    +0.000 A 
ATOM     11  C   UNL     1       5.383   3.626  13.626  0.00  0.00    +0.000 A 
ENDBRANCH   5   6
ENDBRANCH   2   5
ENDBRANCH   1   2
BRANCH   1  12
ATOM     12  C   UNL     1       3.656   7.438  18.093  0.00  0.00    +0.000 C 
BRANCH  12  16
ATOM     13  C   UNL     1       1.366  10.291  19.327  0.00  0.00    +0.000 C 
ATOM     14  C   UNL     1       1.698   9.106  20.239  0.00  0.00    +0.000 C 
ATOM     15  C   UNL     1       1.508   7.740  19.587  0.00  0.00    +0.000 C 
ATOM     16  C   UNL     1       2.124   7.567  18.190  0.00  0.00    +0.000 C 
ATOM     17  C   UNL     1       1.691   8.766  17.316  0.00  0.00    +0.000 C 
ATOM     18  C   UNL     1       2.024  10.120  17.954  0.00  0.00    +0.000 C 
BRANCH  13  20
ATOM     19  O   UNL     1      -1.006   9.988  19.821  0.00  0.00    +0.000 OA
ATOM     20  C   UNL     1      -0.134  10.552  19.182  0.00  0.00    +0.000 C 
BRANCH  20  21
ATOM     21  O   UNL     1      -0.440  11.434  18.200  0.00  0.00    +0.000 OA
ATOM     22  H   UNL     1       0.073  12.256  18.216  0.00  0.00    +0.000 HD
ENDBRANCH  20  21
ENDBRANCH  13  20
ENDBRANCH  12  16
ENDBRANCH   1  12
BRANCH   1  23
ATOM     23  C   UNL     1       3.473   4.870  17.798  0.00  0.00    +0.000 C 
BRANCH  23  24
ATOM     24  C   UNL     1       2.608   4.410  18.949  0.00  0.00    +0.000 A 
ATOM     25  C   UNL     1       3.049   4.599  20.270  0.00  0.00    +0.000 A 
ATOM     26  C   UNL     1       2.429   3.922  21.321  0.00  0.00    +0.000 A 
ATOM     27  C   UNL     1       1.348   3.094  21.053  0.00  0.00    +0.000 A 
ATOM     28  F   UNL     1       0.847   2.327  22.030  0.00  0.00    +0.000 F 
ATOM     29  C   UNL     1       0.801   3.024  19.777  0.00  0.00    +0.000 A 
ATOM     30  C   UNL     1       1.410   3.717  18.728  0.00  0.00    +0.000 A 
ENDBRANCH  23  24
ENDBRANCH   1  23
TORSDOF 9
ENDMDL
MODEL 6
REMARK VINA RESULT:      -7.3      0.658      1.414
REMARK  Name = 
REMARK  9 active torsions:
REMARK  status: ('A' for Active; 'I' for Inactive)
REMARK    1  A    between atoms: C_2  and  O_3
REMARK    2  A    between atoms: C_2  and  C_4
REMARK    3  A    between atoms: C_7  and  C_8
REMARK    4  A    between atoms: C_8  and  N_9
REMARK    5  A    between atoms: N_9  and  C_10
REMARK    6  A    between atoms: N_9  and  S_18
REMARK    7  A    between atoms: C_10  and  C_11
REMARK    8  A    between atoms: S_18  and  C_21
REMARK    9  A    between atoms: C_21  and  C_22
REMARK                            x       y       z     vdW  Elec       q    Type
REMARK                         _______ _______ _______ _____ _____    ______ ____
ROOT
ATOM      1  N   UNL     1       4.493   6.210  17.907  0.00  0.00    +0.000 NA
ENDROOT
BRANCH   1   2
ATOM      2  S   UNL     1       5.603   6.300  16.487  0.00  0.00    +0.000 S 
ATOM      3  O   UNL     1       4.846   6.913  15.425  0.00  0.00    +0.000 OA
ATOM      4  O   UNL     1       6.826   6.890  16.987  0.00  0.00    +0.000 OA
BRANCH   2   5
ATOM      5  C   UNL     1       5.890   4.556  16.069  0.00  0.00    +0.000 C 
BRANCH   5   6
ATOM      6  C   UNL     1       6.322   4.451  14.622  0.00  0.00    +0.000 A 
ATOM      7  C   UNL     1       5.633   3.615  13.727  0.00  0.00    +0.000 A 
ATOM      8  C   UNL     1       6.027   3.519  12.390  0.00  0.00    +0.000 A 
ATOM      9  C   UNL     1       7.116   4.257  11.931  0.00  0.00    +0.000 A 
ATOM     10  C   UNL     1       7.805   5.093  12.808  0.00  0.00    +0.000 A 
ATOM     11  C   UNL     1       7.412   5.191  14.145  0.00  0.00    +0.000 A 
ENDBRANCH   5   6
ENDBRANCH   2   5
ENDBRANCH   1   2
BRANCH   1  12
ATOM     12  C   UNL     1       3.706   7.499  17.980  0.00  0.00    +0.000 C 
BRANCH  12  16
ATOM     13  C   UNL     1       1.323  10.151  19.460  0.00  0.00    +0.000 C 
ATOM     14  C   UNL     1       1.793   8.964  20.306  0.00  0.00    +0.000 C 
ATOM     15  C   UNL     1       1.649   7.609  19.621  0.00  0.00    +0.000 C 
ATOM     16  C   UNL     1       2.179   7.520  18.181  0.00  0.00    +0.000 C 
ATOM     17  C   UNL     1       1.610   8.714  17.379  0.00  0.00    +0.000 C 
ATOM     18  C   UNL     1       1.897  10.067  18.042  0.00  0.00    +0.000 C 
BRANCH  13  20
ATOM     19  O   UNL     1      -0.843  10.614  18.432  0.00  0.00    +0.000 OA
ATOM     20  C   UNL     1      -0.197  10.315  19.422  0.00  0.00    +0.000 C 
BRANCH  20  21
ATOM     21  O   UNL     1      -0.790  10.172  20.632  0.00  0.00    +0.000 OA
ATOM     22  H   UNL     1      -0.787   9.269  20.983  0.00  0.00    +0.000 HD
ENDBRANCH  20  21
ENDBRANCH  13  20
ENDBRANCH  12  16
ENDBRANCH   1  12
BRANCH   1  23
ATOM     23  C   UNL     1       3.699   4.921  17.710  0.00  0.00    +0.000 C 
BRANCH  23  24
ATOM     24  C   UNL     1       2.791   4.483  18.837  0.00  0.00    +0.000 A 
ATOM     25  C   UNL     1       3.225   4.607  20.169  0.00  0.00    +0.000 A 
ATOM     26  C   UNL     1       2.550   3.940  21.191  0.00  0.00    +0.000 A 
ATOM     27  C   UNL     1       1.423   3.188  20.886  0.00  0.00    +0.000 A 
ATOM     28  F   UNL     1       0.862   2.426  21.834  0.00  0.00    +0.000 F 
ATOM     29  C   UNL     1       0.891   3.188  19.602  0.00  0.00    +0.000 A 
ATOM     30  C   UNL     1       1.556   3.872  18.581  0.00  0.00    +0.000 A 
ENDBRANCH  23  24
ENDBRANCH   1  23
TORSDOF 9
ENDMDL
MODEL 7
REMARK VINA RESULT:      -7.3      2.533      4.701
REMARK  Name = 
REMARK  9 active torsions:
REMARK  status: ('A' for Active; 'I' for Inactive)
REMARK    1  A    between atoms: C_2  and  O_3
REMARK    2  A    between atoms: C_2  and  C_4
REMARK    3  A    between atoms: C_7  and  C_8
REMARK    4  A    between atoms: C_8  and  N_9
REMARK    5  A    between atoms: N_9  and  C_10
REMARK    6  A    between atoms: N_9  and  S_18
REMARK    7  A    between atoms: C_10  and  C_11
REMARK    8  A    between atoms: S_18  and  C_21
REMARK    9  A    between atoms: C_21  and  C_22
REMARK                            x       y       z     vdW  Elec       q    Type
REMARK                         _______ _______ _______ _____ _____    ______ ____
ROOT
ATOM      1  N   UNL     1       3.993   5.947  17.355  0.00  0.00    +0.000 NA
ENDROOT
BRANCH   1   2
ATOM      2  S   UNL     1       5.447   6.422  16.397  0.00  0.00    +0.000 S 
ATOM      3  O   UNL     1       4.956   6.867  15.118  0.00  0.00    +0.000 OA
ATOM      4  O   UNL     1       6.215   7.292  17.262  0.00  0.00    +0.000 OA
BRANCH   2   5
ATOM      5  C   UNL     1       6.330   4.850  16.170  0.00  0.00    +0.000 C 
BRANCH   5   6
ATOM      6  C   UNL     1       6.567   4.618  14.693  0.00  0.00    +0.000 A 
ATOM      7  C   UNL     1       5.764   3.721  13.969  0.00  0.00    +0.000 A 
ATOM      8  C   UNL     1       5.979   3.508  12.606  0.00  0.00    +0.000 A 
ATOM      9  C   UNL     1       7.002   4.188  11.948  0.00  0.00    +0.000 A 
ATOM     10  C   UNL     1       7.803   5.083  12.653  0.00  0.00    +0.000 A 
ATOM     11  C   UNL     1       7.589   5.298  14.017  0.00  0.00    +0.000 A 
ENDBRANCH   5   6
ENDBRANCH   2   5
ENDBRANCH   1   2
BRANCH   1  12
ATOM     12  C   UNL     1       4.103   4.478  17.692  0.00  0.00    +0.000 C 
BRANCH  12  16
ATOM     13  C   UNL     1       2.736   3.245  21.086  0.00  0.00    +0.000 C 
ATOM     14  C   UNL     1       3.576   2.320  20.199  0.00  0.00    +0.000 C 
ATOM     15  C   UNL     1       3.126   2.269  18.742  0.00  0.00    +0.000 C 
ATOM     16  C   UNL     1       2.875   3.625  18.065  0.00  0.00    +0.000 C 
ATOM     17  C   UNL     1       1.971   4.471  18.991  0.00  0.00    +0.000 C 
ATOM     18  C   UNL     1       2.534   4.605  20.411  0.00  0.00    +0.000 C 
BRANCH  13  20
ATOM     19  O   UNL     1       1.210   1.983  22.514  0.00  0.00    +0.000 OA
ATOM     20  C   UNL     1       1.395   2.641  21.505  0.00  0.00    +0.000 C 
BRANCH  20  21
ATOM     21  O   UNL     1       0.405   2.834  20.600  0.00  0.00    +0.000 OA
ATOM     22  H   UNL     1       0.342   3.736  20.252  0.00  0.00    +0.000 HD
ENDBRANCH  20  21
ENDBRANCH  13  20
ENDBRANCH  12  16
ENDBRANCH   1  12
BRANCH   1  23
ATOM     23  C   UNL     1       3.949   6.928  18.525  0.00  0.00    +0.000 C 
BRANCH  23  24
ATOM     24  C   UNL     1       2.709   7.779  18.673  0.00  0.00    +0.000 A 
ATOM     25  C   UNL     1       2.262   8.554  17.589  0.00  0.00    +0.000 A 
ATOM     26  C   UNL     1       1.321   9.564  17.788  0.00  0.00    +0.000 A 
ATOM     27  C   UNL     1       0.801   9.768  19.059  0.00  0.00    +0.000 A 
ATOM     28  F   UNL     1       0.016  10.829  19.288  0.00  0.00    +0.000 F 
ATOM     29  C   UNL     1       1.112   8.908  20.105  0.00  0.00    +0.000 A 
ATOM     30  C   UNL     1       2.040   7.883  19.901  0.00  0.00    +0.000 A 
ENDBRANCH  23  24
ENDBRANCH   1  23
TORSDOF 9
ENDMDL
MODEL 8
REMARK VINA RESULT:      -7.1      3.251      7.727
REMARK  Name = 
REMARK  9 active torsions:
REMARK  status: ('A' for Active; 'I' for Inactive)
REMARK    1  A    between atoms: C_2  and  O_3
REMARK    2  A    between atoms: C_2  and  C_4
REMARK    3  A    between atoms: C_7  and  C_8
REMARK    4  A    between atoms: C_8  and  N_9
REMARK    5  A    between atoms: N_9  and  C_10
REMARK    6  A    between atoms: N_9  and  S_18
REMARK    7  A    between atoms: C_10  and  C_11
REMARK    8  A    between atoms: S_18  and  C_21
REMARK    9  A    between atoms: C_21  and  C_22
REMARK                            x       y       z     vdW  Elec       q    Type
REMARK                         _______ _______ _______ _____ _____    ______ ____
ROOT
ATOM      1  N   UNL     1       3.064   7.762  18.223  0.00  0.00    +0.000 NA
ENDROOT
BRANCH   1   2
ATOM      2  S   UNL     1       1.817   9.056  18.058  0.00  0.00    +0.000 S 
ATOM      3  O   UNL     1       2.527  10.248  17.668  0.00  0.00    +0.000 OA
ATOM      4  O   UNL     1       0.774   8.489  17.232  0.00  0.00    +0.000 OA
BRANCH   2   5
ATOM      5  C   UNL     1       1.207   9.269  19.756  0.00  0.00    +0.000 C 
BRANCH   5   6
ATOM      6  C   UNL     1       0.338  10.506  19.825  0.00  0.00    +0.000 A 
ATOM      7  C   UNL     1       0.822  11.692  20.404  0.00  0.00    +0.000 A 
ATOM      8  C   UNL     1       0.024  12.835  20.467  0.00  0.00    +0.000 A 
ATOM      9  C   UNL     1      -1.271  12.809  19.952  0.00  0.00    +0.000 A 
ATOM     10  C   UNL     1      -1.762  11.641  19.372  0.00  0.00    +0.000 A 
ATOM     11  C   UNL     1      -0.964  10.496  19.308  0.00  0.00    +0.000 A 
ENDBRANCH   5   6
ENDBRANCH   2   5
ENDBRANCH   1   2
BRANCH   1  12
ATOM     12  C   UNL     1       2.396   6.525  18.779  0.00  0.00    +0.000 C 
BRANCH  12  16
ATOM     13  C   UNL     1       3.148   2.806  19.493  0.00  0.00    +0.000 C 
ATOM     14  C   UNL     1       1.833   3.441  19.957  0.00  0.00    +0.000 C 
ATOM     15  C   UNL     1       2.000   4.763  20.697  0.00  0.00    +0.000 C 
ATOM     16  C   UNL     1       2.922   5.798  20.031  0.00  0.00    +0.000 C 
ATOM     17  C   UNL     1       4.247   5.096  19.653  0.00  0.00    +0.000 C 
ATOM     18  C   UNL     1       4.033   3.844  18.795  0.00  0.00    +0.000 C 
BRANCH  13  20
ATOM     19  O   UNL     1       3.526   1.980  21.760  0.00  0.00    +0.000 OA
ATOM     20  C   UNL     1       3.917   2.101  20.612  0.00  0.00    +0.000 C 
BRANCH  20  21
ATOM     21  O   UNL     1       5.146   1.670  20.239  0.00  0.00    +0.000 OA
ATOM     22  H   UNL     1       5.206   0.721  20.051  0.00  0.00    +0.000 HD
ENDBRANCH  20  21
ENDBRANCH  13  20
ENDBRANCH  12  16
ENDBRANCH   1  12
BRANCH   1  23
ATOM     23  C   UNL     1       3.703   7.646  16.842  0.00  0.00    +0.000 C 
BRANCH  23  24
ATOM     24  C   UNL     1       5.003   6.883  16.738  0.00  0.00    +0.000 A 
ATOM     25  C   UNL     1       5.073   5.733  15.932  0.00  0.00    +0.000 A 
ATOM     26  C   UNL     1       6.148   4.852  16.057  0.00  0.00    +0.000 A 
ATOM     27  C   UNL     1       7.165   5.143  16.956  0.00  0.00    +0.000 A 
ATOM     28  F   UNL     1       8.118   4.232  17.191  0.00  0.00    +0.000 F 
ATOM     29  C   UNL     1       7.189   6.352  17.640  0.00  0.00    +0.000 A 
ATOM     30  C   UNL     1       6.123   7.244  17.500  0.00  0.00    +0.000 A 
ENDBRANCH  23  24
ENDBRANCH   1  23
TORSDOF 9
ENDMDL
MODEL 9
REMARK VINA RESULT:      -7.1      2.523      5.760
REMARK  Name = 
REMARK  9 active torsions:
REMARK  status: ('A' for Active; 'I' for Inactive)
REMARK    1  A    between atoms: C_2  and  O_3
REMARK    2  A    between atoms: C_2  and  C_4
REMARK    3  A    between atoms: C_7  and  C_8
REMARK    4  A    between atoms: C_8  and  N_9
REMARK    5  A    between atoms: N_9  and  C_10
REMARK    6  A    between atoms: N_9  and  S_18
REMARK    7  A    between atoms: C_10  and  C_11
REMARK    8  A    between atoms: S_18  and  C_21
REMARK    9  A    between atoms: C_21  and  C_22
REMARK                            x       y       z     vdW  Elec       q    Type
REMARK                         _______ _______ _______ _____ _____    ______ ____
ROOT
ATOM      1  N   UNL     1       4.620   5.828  17.367  0.00  0.00    +0.000 NA
ENDROOT
BRANCH   1   2
ATOM      2  S   UNL     1       5.248   4.743  18.666  0.00  0.00    +0.000 S 
ATOM      3  O   UNL     1       6.640   4.524  18.365  0.00  0.00    +0.000 OA
ATOM      4  O   UNL     1       4.824   5.344  19.912  0.00  0.00    +0.000 OA
BRANCH   2   5
ATOM      5  C   UNL     1       4.339   3.194  18.392  0.00  0.00    +0.000 C 
BRANCH   5   6
ATOM      6  C   UNL     1       3.191   3.106  19.374  0.00  0.00    +0.000 A 
ATOM      7  C   UNL     1       3.401   2.644  20.685  0.00  0.00    +0.000 A 
ATOM      8  C   UNL     1       2.344   2.565  21.594  0.00  0.00    +0.000 A 
ATOM      9  C   UNL     1       1.061   2.946  21.204  0.00  0.00    +0.000 A 
ATOM     10  C   UNL     1       0.840   3.409  19.909  0.00  0.00    +0.000 A 
ATOM     11  C   UNL     1       1.897   3.490  18.998  0.00  0.00    +0.000 A 
ENDBRANCH   5   6
ENDBRANCH   2   5
ENDBRANCH   1   2
BRANCH   1  12
ATOM     12  C   UNL     1       3.894   6.983  18.019  0.00  0.00    +0.000 C 
BRANCH  12  16
ATOM     13  C   UNL     1       1.488   9.580  19.558  0.00  0.00    +0.000 C 
ATOM     14  C   UNL     1       1.959   8.372  20.373  0.00  0.00    +0.000 C 
ATOM     15  C   UNL     1       1.826   7.036  19.649  0.00  0.00    +0.000 C 
ATOM     16  C   UNL     1       2.366   6.991  18.210  0.00  0.00    +0.000 C 
ATOM     17  C   UNL     1       1.796   8.204  17.439  0.00  0.00    +0.000 C 
ATOM     18  C   UNL     1       2.071   9.539  18.141  0.00  0.00    +0.000 C 
BRANCH  13  20
ATOM     19  O   UNL     1      -0.664  10.167  18.564  0.00  0.00    +0.000 OA
ATOM     20  C   UNL     1      -0.033   9.737  19.514  0.00  0.00    +0.000 C 
BRANCH  20  21
ATOM     21  O   UNL     1      -0.645   9.424  20.681  0.00  0.00    +0.000 OA
ATOM     22  H   UNL     1      -0.532   8.505  20.967  0.00  0.00    +0.000 HD
ENDBRANCH  20  21
ENDBRANCH  13  20
ENDBRANCH  12  16
ENDBRANCH   1  12
BRANCH   1  23
ATOM     23  C   UNL     1       5.836   6.166  16.508  0.00  0.00    +0.000 C 
BRANCH  23  24
ATOM     24  C   UNL     1       6.146   5.248  15.348  0.00  0.00    +0.000 A 
ATOM     25  C   UNL     1       7.358   5.393  14.650  0.00  0.00    +0.000 A 
ATOM     26  C   UNL     1       7.531   4.779  13.410  0.00  0.00    +0.000 A 
ATOM     27  C   UNL     1       6.512   3.992  12.891  0.00  0.00    +0.000 A 
ATOM     28  F   UNL     1       6.610   3.527  11.639  0.00  0.00    +0.000 F 
ATOM     29  C   UNL     1       5.376   3.711  13.640  0.00  0.00    +0.000 A 
ATOM     30  C   UNL     1       5.210   4.310  14.892  0.00  0.00    +0.000 A 
ENDBRANCH  23  24
ENDBRANCH   1  23
TORSDOF 9
ENDMDL
