MODEL 1
REMARK VINA RESULT:      -7.8      0.000      0.000
REMARK  Name = 
REMARK  6 active torsions:
REMARK  status: ('A' for Active; 'I' for Inactive)
REMARK    1  A    between atoms: N_3  and  C_4
REMARK    2  A    between atoms: N_3  and  C_10
REMARK    3  A    between atoms: C_10  and  C_11
REMARK    4  A    between atoms: C_10  and  C_23
REMARK    5  A    between atoms: N_13  and  C_14
REMARK    6  A    between atoms: C_17  and  N_18
REMARK                            x       y       z     vdW  Elec       q    Type
REMARK                         _______ _______ _______ _____ _____    ______ ____
ROOT
ATOM      1  C   UNL     1       3.846   5.438  17.597  0.00  0.00    +0.000 C 
ENDROOT
BRANCH   1   2
ATOM      2  C   UNL     1       5.257   5.917  17.970  0.00  0.00    +0.000 A 
ATOM      3  C   UNL     1       6.005   5.366  19.022  0.00  0.00    +0.000 A 
ATOM      4  C   UNL     1       7.309   5.799  19.285  0.00  0.00    +0.000 A 
ATOM      5  C   UNL     1       7.901   6.772  18.486  0.00  0.00    +0.000 A 
ATOM      6  C   UNL     1       7.188   7.319  17.424  0.00  0.00    +0.000 A 
ATOM      7  C   UNL     1       5.883   6.892  17.165  0.00  0.00    +0.000 A 
ENDBRANCH   1   2
BRANCH   1   8
ATOM      8  C   UNL     1       2.711   6.399  18.037  0.00  0.00    +0.000 C 
ATOM      9  O   UNL     1       1.628   6.353  17.448  0.00  0.00    +0.000 OA
ATOM     10  N   UNL     1       2.979   7.238  19.112  0.00  0.00    +0.000 N 
ATOM     11  H   UNL     1       3.942   7.273  19.443  0.00  0.00    +0.000 HD
BRANCH  10  12
ATOM     12  C   UNL     1       2.036   8.071  19.758  0.00  0.00    +0.000 A 
ATOM     13  C   UNL     1       1.510   7.768  21.020  0.00  0.00    +0.000 A 
ATOM     14  C   UNL     1       0.588   8.607  21.646  0.00  0.00    +0.000 A 
ATOM     15  C   UNL     1       0.177   9.774  21.002  0.00  0.00    +0.000 A 
ATOM     16  C   UNL     1       0.694  10.104  19.741  0.00  0.00    +0.000 A 
ATOM     17  C   UNL     1       1.633   9.258  19.129  0.00  0.00    +0.000 A 
BRANCH  15  18
ATOM     18  N   UNL     1      -0.797  10.655  21.665  0.00  0.00    +0.000 N 
ATOM     19  O   UNL     1      -1.359  11.520  20.976  0.00  0.00    +0.000 OA
ATOM     20  O   UNL     1      -0.998  10.478  22.874  0.00  0.00    +0.000 OA
ENDBRANCH  15  18
ENDBRANCH  10  12
ENDBRANCH   1   8
BRANCH   1  23
ATOM     21  O   UNL     1       4.948   3.120  16.347  0.00  0.00    +0.000 OA
ATOM     22  C   UNL     1       4.139   2.998  17.261  0.00  0.00    +0.000 C 
ATOM     23  N   UNL     1       3.496   4.037  17.915  0.00  0.00    +0.000 N 
BRANCH  23  24
ATOM     24  C   UNL     1       2.678   3.733  19.048  0.00  0.00    +0.000 A 
ATOM     25  C   UNL     1       3.152   3.882  20.357  0.00  0.00    +0.000 A 
ATOM     26  C   UNL     1       2.399   3.422  21.443  0.00  0.00    +0.000 A 
ATOM     27  C   UNL     1       1.142   2.860  21.239  0.00  0.00    +0.000 A 
ATOM     28  C   UNL     1       0.630   2.768  19.949  0.00  0.00    +0.000 A 
ATOM     29  C   UNL     1       1.399   3.190  18.859  0.00  0.00    +0.000 A 
ENDBRANCH  23  24
ENDBRANCH   1  23
TORSDOF 6
ENDMDL
MODEL 2
REMARK VINA RESULT:      -7.7      0.077      1.088
REMARK  Name = 
REMARK  6 active torsions:
REMARK  status: ('A' for Active; 'I' for Inactive)
REMARK    1  A    between atoms: N_3  and  C_4
REMARK    2  A    between atoms: N_3  and  C_10
REMARK    3  A    between atoms: C_10  and  C_11
REMARK    4  A    between atoms: C_10  and  C_23
REMARK    5  A    between atoms: N_13  and  C_14
REMARK    6  A    between atoms: C_17  and  N_18
REMARK                            x       y       z     vdW  Elec       q    Type
REMARK                         _______ _______ _______ _____ _____    ______ ____
ROOT
ATOM      1  C   UNL     1       3.825   5.446  17.580  0.00  0.00    +0.000 C 
ENDROOT
BRANCH   1   2
ATOM      2  C   UNL     1       5.234   5.930  17.956  0.00  0.00    +0.000 A 
ATOM      3  C   UNL     1       5.981   5.383  19.010  0.00  0.00    +0.000 A 
ATOM      4  C   UNL     1       7.283   5.821  19.276  0.00  0.00    +0.000 A 
ATOM      5  C   UNL     1       7.873   6.795  18.477  0.00  0.00    +0.000 A 
ATOM      6  C   UNL     1       7.161   7.339  17.413  0.00  0.00    +0.000 A 
ATOM      7  C   UNL     1       5.858   6.907  17.152  0.00  0.00    +0.000 A 
ENDBRANCH   1   2
BRANCH   1   8
ATOM      8  C   UNL     1       2.686   6.404  18.016  0.00  0.00    +0.000 C 
ATOM      9  O   UNL     1       1.577   6.292  17.486  0.00  0.00    +0.000 OA
ATOM     10  N   UNL     1       2.982   7.318  19.020  0.00  0.00    +0.000 N 
ATOM     11  H   UNL     1       3.958   7.399  19.299  0.00  0.00    +0.000 HD
BRANCH  10  12
ATOM     12  C   UNL     1       2.047   8.167  19.658  0.00  0.00    +0.000 A 
ATOM     13  C   UNL     1       1.577   9.343  19.062  0.00  0.00    +0.000 A 
ATOM     14  C   UNL     1       0.647  10.163  19.704  0.00  0.00    +0.000 A 
ATOM     15  C   UNL     1       0.176   9.807  20.967  0.00  0.00    +0.000 A 
ATOM     16  C   UNL     1       0.627   8.629  21.582  0.00  0.00    +0.000 A 
ATOM     17  C   UNL     1       1.551   7.806  20.919  0.00  0.00    +0.000 A 
BRANCH  15  18
ATOM     18  N   UNL     1      -0.801  10.675  21.641  0.00  0.00    +0.000 N 
ATOM     19  O   UNL     1      -1.019  10.478  22.846  0.00  0.00    +0.000 OA
ATOM     20  O   UNL     1      -1.349  11.554  20.961  0.00  0.00    +0.000 OA
ENDBRANCH  15  18
ENDBRANCH  10  12
ENDBRANCH   1   8
BRANCH   1  23
ATOM     21  O   UNL     1       4.928   3.129  16.329  0.00  0.00    +0.000 OA
ATOM     22  C   UNL     1       4.121   3.006  17.246  0.00  0.00    +0.000 C 
ATOM     23  N   UNL     1       3.478   4.045  17.901  0.00  0.00    +0.000 N 
BRANCH  23  24
ATOM     24  C   UNL     1       2.665   3.740  19.037  0.00  0.00    +0.000 A 
ATOM     25  C   UNL     1       3.096   4.006  20.342  0.00  0.00    +0.000 A 
ATOM     26  C   UNL     1       2.361   3.550  21.441  0.00  0.00    +0.000 A 
ATOM     27  C   UNL     1       1.160   2.871  21.251  0.00  0.00    +0.000 A 
ATOM     28  C   UNL     1       0.686   2.658  19.960  0.00  0.00    +0.000 A 
ATOM     29  C   UNL     1       1.440   3.079  18.860  0.00  0.00    +0.000 A 
ENDBRANCH  23  24
ENDBRANCH   1  23
TORSDOF 6
ENDMDL
MODEL 3
REMARK VINA RESULT:      -7.6      0.247      1.308
REMARK  Name = 
REMARK  6 active torsions:
REMARK  status: ('A' for Active; 'I' for Inactive)
REMARK    1  A    between atoms: N_3  and  C_4
REMARK    2  A    between atoms: N_3  and  C_10
REMARK    3  A    between atoms: C_10  and  C_11
REMARK    4  A    between atoms: C_10  and  C_23
REMARK    5  A    between atoms: N_13  and  C_14
REMARK    6  A    between atoms: C_17  and  N_18
REMARK                            x       y       z     vdW  Elec       q    Type
REMARK                         _______ _______ _______ _____ _____    ______ ____
ROOT
ATOM      1  C   UNL     1       3.939   5.358  17.501  0.00  0.00    +0.000 C 
ENDROOT
BRANCH   1   2
ATOM      2  C   UNL     1       5.326   5.872  17.916  0.00  0.00    +0.000 A 
ATOM      3  C   UNL     1       6.056   5.340  18.990  0.00  0.00    +0.000 A 
ATOM      4  C   UNL     1       7.340   5.805  19.292  0.00  0.00    +0.000 A 
ATOM      5  C   UNL     1       7.930   6.795  18.511  0.00  0.00    +0.000 A 
ATOM      6  C   UNL     1       7.235   7.325  17.429  0.00  0.00    +0.000 A 
ATOM      7  C   UNL     1       5.950   6.865  17.131  0.00  0.00    +0.000 A 
ENDBRANCH   1   2
BRANCH   1   8
ATOM      8  C   UNL     1       2.761   6.237  17.994  0.00  0.00    +0.000 C 
ATOM      9  O   UNL     1       1.619   5.977  17.607  0.00  0.00    +0.000 OA
ATOM     10  N   UNL     1       3.067   7.256  18.888  0.00  0.00    +0.000 N 
ATOM     11  H   UNL     1       4.054   7.453  19.045  0.00  0.00    +0.000 HD
BRANCH  10  12
ATOM     12  C   UNL     1       2.124   8.064  19.567  0.00  0.00    +0.000 A 
ATOM     13  C   UNL     1       1.567   9.210  18.987  0.00  0.00    +0.000 A 
ATOM     14  C   UNL     1       0.631   9.989  19.669  0.00  0.00    +0.000 A 
ATOM     15  C   UNL     1       0.241   9.621  20.957  0.00  0.00    +0.000 A 
ATOM     16  C   UNL     1       0.779   8.473  21.556  0.00  0.00    +0.000 A 
ATOM     17  C   UNL     1       1.710   7.690  20.853  0.00  0.00    +0.000 A 
BRANCH  15  18
ATOM     18  N   UNL     1      -0.744  10.446  21.673  0.00  0.00    +0.000 N 
ATOM     19  O   UNL     1      -1.286  11.372  21.052  0.00  0.00    +0.000 OA
ATOM     20  O   UNL     1      -0.974  10.162  22.856  0.00  0.00    +0.000 OA
ENDBRANCH  15  18
ENDBRANCH  10  12
ENDBRANCH   1   8
BRANCH   1  23
ATOM     21  O   UNL     1       5.182   3.176  16.143  0.00  0.00    +0.000 OA
ATOM     22  C   UNL     1       4.357   2.960  17.026  0.00  0.00    +0.000 C 
ATOM     23  N   UNL     1       3.649   3.925  17.724  0.00  0.00    +0.000 N 
BRANCH  23  24
ATOM     24  C   UNL     1       2.820   3.513  18.814  0.00  0.00    +0.000 A 
ATOM     25  C   UNL     1       1.601   2.857  18.602  0.00  0.00    +0.000 A 
ATOM     26  C   UNL     1       0.730   2.613  19.669  0.00  0.00    +0.000 A 
ATOM     27  C   UNL     1       1.089   2.971  20.966  0.00  0.00    +0.000 A 
ATOM     28  C   UNL     1       2.327   3.563  21.200  0.00  0.00    +0.000 A 
ATOM     29  C   UNL     1       3.181   3.844  20.129  0.00  0.00    +0.000 A 
ENDBRANCH  23  24
ENDBRANCH   1  23
TORSDOF 6
ENDMDL
MODEL 4
REMARK VINA RESULT:      -7.6      0.861      1.608
REMARK  Name = 
REMARK  6 active torsions:
REMARK  status: ('A' for Active; 'I' for Inactive)
REMARK    1  A    between atoms: N_3  and  C_4
REMARK    2  A    between atoms: N_3  and  C_10
REMARK    3  A    between atoms: C_10  and  C_11
REMARK    4  A    between atoms: C_10  and  C_23
REMARK    5  A    between atoms: N_13  and  C_14
REMARK    6  A    between atoms: C_17  and  N_18
REMARK                            x       y       z     vdW  Elec       q    Type
REMARK                         _______ _______ _______ _____ _____    ______ ____
ROOT
ATOM      1  C   UNL     1       3.924   5.817  17.974  0.00  0.00    +0.000 C 
ENDROOT
BRANCH   1   2
ATOM      2  C   UNL     1       5.428   6.096  18.116  0.00  0.00    +0.000 A 
ATOM      3  C   UNL     1       6.109   7.057  17.353  0.00  0.00    +0.000 A 
ATOM      4  C   UNL     1       7.468   7.314  17.561  0.00  0.00    +0.000 A 
ATOM      5  C   UNL     1       8.168   6.633  18.553  0.00  0.00    +0.000 A 
ATOM      6  C   UNL     1       7.510   5.691  19.337  0.00  0.00    +0.000 A 
ATOM      7  C   UNL     1       6.154   5.429  19.125  0.00  0.00    +0.000 A 
ENDBRANCH   1   2
BRANCH   1   8
ATOM      8  C   UNL     1       3.041   6.534  19.028  0.00  0.00    +0.000 C 
ATOM      9  O   UNL     1       3.073   6.144  20.198  0.00  0.00    +0.000 OA
ATOM     10  N   UNL     1       2.285   7.613  18.587  0.00  0.00    +0.000 N 
ATOM     11  H   UNL     1       2.245   7.770  17.581  0.00  0.00    +0.000 HD
BRANCH  10  12
ATOM     12  C   UNL     1       1.540   8.486  19.413  0.00  0.00    +0.000 A 
ATOM     13  C   UNL     1       1.377   8.260  20.786  0.00  0.00    +0.000 A 
ATOM     14  C   UNL     1       0.647   9.139  21.587  0.00  0.00    +0.000 A 
ATOM     15  C   UNL     1       0.063  10.267  21.011  0.00  0.00    +0.000 A 
ATOM     16  C   UNL     1       0.217  10.519  19.640  0.00  0.00    +0.000 A 
ATOM     17  C   UNL     1       0.967   9.634  18.848  0.00  0.00    +0.000 A 
BRANCH  15  18
ATOM     18  N   UNL     1      -0.708  11.189  21.858  0.00  0.00    +0.000 N 
ATOM     19  O   UNL     1      -0.472  11.193  23.076  0.00  0.00    +0.000 OA
ATOM     20  O   UNL     1      -1.549  11.909  21.302  0.00  0.00    +0.000 OA
ENDBRANCH  15  18
ENDBRANCH  10  12
ENDBRANCH   1   8
BRANCH   1  23
ATOM     21  O   UNL     1       4.737   4.064  15.873  0.00  0.00    +0.000 OA
ATOM     22  C   UNL     1       4.009   3.650  16.770  0.00  0.00    +0.000 C 
ATOM     23  N   UNL     1       3.505   4.407  17.816  0.00  0.00    +0.000 N 
BRANCH  23  24
ATOM     24  C   UNL     1       2.777   3.745  18.853  0.00  0.00    +0.000 A 
ATOM     25  C   UNL     1       1.377   3.722  18.866  0.00  0.00    +0.000 A 
ATOM     26  C   UNL     1       0.685   3.216  19.972  0.00  0.00    +0.000 A 
ATOM     27  C   UNL     1       1.381   2.679  21.052  0.00  0.00    +0.000 A 
ATOM     28  C   UNL     1       2.771   2.635  21.022  0.00  0.00    +0.000 A 
ATOM     29  C   UNL     1       3.465   3.176  19.934  0.00  0.00    +0.000 A 
ENDBRANCH  23  24
ENDBRANCH   1  23
TORSDOF 6
ENDMDL
MODEL 5
REMARK VINA RESULT:      -7.5      0.992      1.484
REMARK  Name = 
REMARK  6 active torsions:
REMARK  status: ('A' for Active; 'I' for Inactive)
REMARK    1  A    between atoms: N_3  and  C_4
REMARK    2  A    between atoms: N_3  and  C_10
REMARK    3  A    between atoms: C_10  and  C_11
REMARK    4  A    between atoms: C_10  and  C_23
REMARK    5  A    between atoms: N_13  and  C_14
REMARK    6  A    between atoms: C_17  and  N_18
REMARK                            x       y       z     vdW  Elec       q    Type
REMARK                         _______ _______ _______ _____ _____    ______ ____
ROOT
ATOM      1  C   UNL     1       3.982   5.889  17.858  0.00  0.00    +0.000 C 
ENDROOT
BRANCH   1   2
ATOM      2  C   UNL     1       5.460   6.152  18.183  0.00  0.00    +0.000 A 
ATOM      3  C   UNL     1       6.166   5.458  19.178  0.00  0.00    +0.000 A 
ATOM      4  C   UNL     1       7.527   5.696  19.397  0.00  0.00    +0.000 A 
ATOM      5  C   UNL     1       8.215   6.614  18.609  0.00  0.00    +0.000 A 
ATOM      6  C   UNL     1       7.543   7.300  17.604  0.00  0.00    +0.000 A 
ATOM      7  C   UNL     1       6.182   7.068  17.389  0.00  0.00    +0.000 A 
ENDBRANCH   1   2
BRANCH   1   8
ATOM      8  C   UNL     1       2.984   6.689  18.736  0.00  0.00    +0.000 C 
ATOM      9  O   UNL     1       2.898   6.420  19.936  0.00  0.00    +0.000 OA
ATOM     10  N   UNL     1       2.267   7.701  18.110  0.00  0.00    +0.000 N 
ATOM     11  H   UNL     1       2.332   7.755  17.095  0.00  0.00    +0.000 HD
BRANCH  10  12
ATOM     12  C   UNL     1       1.429   8.636  18.761  0.00  0.00    +0.000 A 
ATOM     13  C   UNL     1       1.287   8.671  20.154  0.00  0.00    +0.000 A 
ATOM     14  C   UNL     1       0.463   9.608  20.779  0.00  0.00    +0.000 A 
ATOM     15  C   UNL     1      -0.237  10.530  20.002  0.00  0.00    +0.000 A 
ATOM     16  C   UNL     1      -0.106  10.522  18.606  0.00  0.00    +0.000 A 
ATOM     17  C   UNL     1       0.738   9.583  17.991  0.00  0.00    +0.000 A 
BRANCH  15  18
ATOM     18  N   UNL     1      -1.106  11.515  20.665  0.00  0.00    +0.000 N 
ATOM     19  O   UNL     1      -0.997  11.652  21.893  0.00  0.00    +0.000 OA
ATOM     20  O   UNL     1      -1.897  12.150  19.953  0.00  0.00    +0.000 OA
ENDBRANCH  15  18
ENDBRANCH  10  12
ENDBRANCH   1   8
BRANCH   1  23
ATOM     21  O   UNL     1       4.799   4.072  15.813  0.00  0.00    +0.000 OA
ATOM     22  C   UNL     1       4.059   3.689  16.715  0.00  0.00    +0.000 C 
ATOM     23  N   UNL     1       3.552   4.479  17.734  0.00  0.00    +0.000 N 
BRANCH  23  24
ATOM     24  C   UNL     1       2.809   3.852  18.782  0.00  0.00    +0.000 A 
ATOM     25  C   UNL     1       1.409   3.831  18.777  0.00  0.00    +0.000 A 
ATOM     26  C   UNL     1       0.701   3.362  19.889  0.00  0.00    +0.000 A 
ATOM     27  C   UNL     1       1.381   2.859  20.995  0.00  0.00    +0.000 A 
ATOM     28  C   UNL     1       2.771   2.813  20.986  0.00  0.00    +0.000 A 
ATOM     29  C   UNL     1       3.481   3.318  19.891  0.00  0.00    +0.000 A 
ENDBRANCH  23  24
ENDBRANCH   1  23
TORSDOF 6
ENDMDL
MODEL 6
REMARK VINA RESULT:      -7.5      0.956      1.908
REMARK  Name = 
REMARK  6 active torsions:
REMARK  status: ('A' for Active; 'I' for Inactive)
REMARK    1  A    between atoms: N_3  and  C_4
REMARK    2  A    between atoms: N_3  and  C_10
REMARK    3  A    between atoms: C_10  and  C_11
REMARK    4  A    between atoms: C_10  and  C_23
REMARK    5  A    between atoms: N_13  and  C_14
REMARK    6  A    between atoms: C_17  and  N_18
REMARK                            x       y       z     vdW  Elec       q    Type
REMARK                         _______ _______ _______ _____ _____    ______ ____
ROOT
ATOM      1  C   UNL     1       4.008   5.852  17.761  0.00  0.00    +0.000 C 
ENDROOT
BRANCH   1   2
ATOM      2  C   UNL     1       5.498   6.127  18.014  0.00  0.00    +0.000 A 
ATOM      3  C   UNL     1       6.237   7.085  17.303  0.00  0.00    +0.000 A 
ATOM      4  C   UNL     1       7.578   7.337  17.611  0.00  0.00    +0.000 A 
ATOM      5  C   UNL     1       8.200   6.655  18.653  0.00  0.00    +0.000 A 
ATOM      6  C   UNL     1       7.483   5.715  19.386  0.00  0.00    +0.000 A 
ATOM      7  C   UNL     1       6.145   5.458  19.075  0.00  0.00    +0.000 A 
ENDBRANCH   1   2
BRANCH   1   8
ATOM      8  C   UNL     1       3.048   6.657  18.674  0.00  0.00    +0.000 C 
ATOM      9  O   UNL     1       3.001   6.386  19.877  0.00  0.00    +0.000 OA
ATOM     10  N   UNL     1       2.317   7.676  18.077  0.00  0.00    +0.000 N 
ATOM     11  H   UNL     1       2.346   7.733  17.060  0.00  0.00    +0.000 HD
BRANCH  10  12
ATOM     12  C   UNL     1       1.509   8.616  18.759  0.00  0.00    +0.000 A 
ATOM     13  C   UNL     1       0.767   9.594  18.084  0.00  0.00    +0.000 A 
ATOM     14  C   UNL     1      -0.032  10.506  18.774  0.00  0.00    +0.000 A 
ATOM     15  C   UNL     1      -0.094  10.447  20.166  0.00  0.00    +0.000 A 
ATOM     16  C   UNL     1       0.633   9.473  20.864  0.00  0.00    +0.000 A 
ATOM     17  C   UNL     1       1.422   8.551  20.156  0.00  0.00    +0.000 A 
BRANCH  15  18
ATOM     18  N   UNL     1      -0.936  11.412  20.889  0.00  0.00    +0.000 N 
ATOM     19  O   UNL     1      -0.749  11.547  22.108  0.00  0.00    +0.000 OA
ATOM     20  O   UNL     1      -1.783  12.035  20.234  0.00  0.00    +0.000 OA
ENDBRANCH  15  18
ENDBRANCH  10  12
ENDBRANCH   1   8
BRANCH   1  23
ATOM     21  O   UNL     1       4.848   3.977  15.778  0.00  0.00    +0.000 OA
ATOM     22  C   UNL     1       4.099   3.620  16.682  0.00  0.00    +0.000 C 
ATOM     23  N   UNL     1       3.581   4.439  17.674  0.00  0.00    +0.000 N 
BRANCH  23  24
ATOM     24  C   UNL     1       2.828   3.841  18.732  0.00  0.00    +0.000 A 
ATOM     25  C   UNL     1       1.427   3.851  18.732  0.00  0.00    +0.000 A 
ATOM     26  C   UNL     1       0.713   3.411  19.851  0.00  0.00    +0.000 A 
ATOM     27  C   UNL     1       1.386   2.907  20.961  0.00  0.00    +0.000 A 
ATOM     28  C   UNL     1       2.775   2.830  20.948  0.00  0.00    +0.000 A 
ATOM     29  C   UNL     1       3.492   3.306  19.845  0.00  0.00    +0.000 A 
ENDBRANCH  23  24
ENDBRANCH   1  23
TORSDOF 6
ENDMDL
MODEL 7
REMARK VINA RESULT:      -7.4      1.355      4.554
REMARK  Name = 
REMARK  6 active torsions:
REMARK  status: ('A' for Active; 'I' for Inactive)
REMARK    1  A    between atoms: N_3  and  C_4
REMARK    2  A    between atoms: N_3  and  C_10
REMARK    3  A    between atoms: C_10  and  C_11
REMARK    4  A    between atoms: C_10  and  C_23
REMARK    5  A    between atoms: N_13  and  C_14
REMARK    6  A    between atoms: C_17  and  N_18
REMARK                            x       y       z     vdW  Elec       q    Type
REMARK                         _______ _______ _______ _____ _____    ______ ____
ROOT
ATOM      1  C   UNL     1       3.578   5.558  19.422  0.00  0.00    +0.000 C 
ENDROOT
BRANCH   1   2
ATOM      2  C   UNL     1       2.794   4.410  20.078  0.00  0.00    +0.000 A 
ATOM      3  C   UNL     1       3.393   3.428  20.883  0.00  0.00    +0.000 A 
ATOM      4  C   UNL     1       2.626   2.437  21.503  0.00  0.00    +0.000 A 
ATOM      5  C   UNL     1       1.242   2.422  21.354  0.00  0.00    +0.000 A 
ATOM      6  C   UNL     1       0.623   3.397  20.578  0.00  0.00    +0.000 A 
ATOM      7  C   UNL     1       1.389   4.383  19.952  0.00  0.00    +0.000 A 
ENDBRANCH   1   2
BRANCH   1   8
ATOM      8  C   UNL     1       2.707   6.780  19.030  0.00  0.00    +0.000 C 
ATOM      9  O   UNL     1       2.400   6.937  17.845  0.00  0.00    +0.000 OA
ATOM     10  N   UNL     1       2.290   7.612  20.060  0.00  0.00    +0.000 N 
ATOM     11  H   UNL     1       2.700   7.453  20.980  0.00  0.00    +0.000 HD
BRANCH  10  12
ATOM     12  C   UNL     1       1.373   8.682  19.932  0.00  0.00    +0.000 A 
ATOM     13  C   UNL     1       1.245   9.419  18.748  0.00  0.00    +0.000 A 
ATOM     14  C   UNL     1       0.327  10.465  18.637  0.00  0.00    +0.000 A 
ATOM     15  C   UNL     1      -0.480  10.786  19.728  0.00  0.00    +0.000 A 
ATOM     16  C   UNL     1      -0.377  10.058  20.922  0.00  0.00    +0.000 A 
ATOM     17  C   UNL     1       0.541   8.999  21.015  0.00  0.00    +0.000 A 
BRANCH  15  18
ATOM     18  N   UNL     1      -1.444  11.890  19.607  0.00  0.00    +0.000 N 
ATOM     19  O   UNL     1      -2.471  11.694  18.940  0.00  0.00    +0.000 OA
ATOM     20  O   UNL     1      -1.172  12.953  20.183  0.00  0.00    +0.000 OA
ENDBRANCH  15  18
ENDBRANCH  10  12
ENDBRANCH   1   8
BRANCH   1  23
ATOM     21  O   UNL     1       2.971   3.884  17.191  0.00  0.00    +0.000 OA
ATOM     22  C   UNL     1       4.073   4.417  17.277  0.00  0.00    +0.000 C 
ATOM     23  N   UNL     1       4.508   5.208  18.328  0.00  0.00    +0.000 N 
BRANCH  23  24
ATOM     24  C   UNL     1       5.775   5.862  18.215  0.00  0.00    +0.000 A 
ATOM     25  C   UNL     1       6.846   5.539  19.058  0.00  0.00    +0.000 A 
ATOM     26  C   UNL     1       8.018   6.303  19.042  0.00  0.00    +0.000 A 
ATOM     27  C   UNL     1       8.156   7.362  18.149  0.00  0.00    +0.000 A 
ATOM     28  C   UNL     1       7.126   7.651  17.260  0.00  0.00    +0.000 A 
ATOM     29  C   UNL     1       5.938   6.913  17.301  0.00  0.00    +0.000 A 
ENDBRANCH  23  24
ENDBRANCH   1  23
TORSDOF 6
ENDMDL
MODEL 8
REMARK VINA RESULT:      -7.4      2.068      4.568
REMARK  Name = 
REMARK  6 active torsions:
REMARK  status: ('A' for Active; 'I' for Inactive)
REMARK    1  A    between atoms: N_3  and  C_4
REMARK    2  A    between atoms: N_3  and  C_10
REMARK    3  A    between atoms: C_10  and  C_11
REMARK    4  A    between atoms: C_10  and  C_23
REMARK    5  A    between atoms: N_13  and  C_14
REMARK    6  A    between atoms: C_17  and  N_18
REMARK                            x       y       z     vdW  Elec       q    Type
REMARK                         _______ _______ _______ _____ _____    ______ ____
ROOT
ATOM      1  C   UNL     1       4.553   5.251  18.845  0.00  0.00    +0.000 C 
ENDROOT
BRANCH   1   2
ATOM      2  C   UNL     1       3.684   3.993  18.689  0.00  0.00    +0.000 A 
ATOM      3  C   UNL     1       4.126   2.704  19.024  0.00  0.00    +0.000 A 
ATOM      4  C   UNL     1       3.277   1.599  18.917  0.00  0.00    +0.000 A 
ATOM      5  C   UNL     1       1.960   1.763  18.497  0.00  0.00    +0.000 A 
ATOM      6  C   UNL     1       1.492   3.033  18.178  0.00  0.00    +0.000 A 
ATOM      7  C   UNL     1       2.342   4.137  18.278  0.00  0.00    +0.000 A 
ENDBRANCH   1   2
BRANCH   1   8
ATOM      8  C   UNL     1       3.789   6.583  18.627  0.00  0.00    +0.000 C 
ATOM      9  O   UNL     1       4.001   7.230  17.598  0.00  0.00    +0.000 OA
ATOM     10  N   UNL     1       2.871   6.949  19.603  0.00  0.00    +0.000 N 
ATOM     11  H   UNL     1       2.865   6.402  20.462  0.00  0.00    +0.000 HD
BRANCH  10  12
ATOM     12  C   UNL     1       1.972   8.038  19.517  0.00  0.00    +0.000 A 
ATOM     13  C   UNL     1       1.730   8.716  18.315  0.00  0.00    +0.000 A 
ATOM     14  C   UNL     1       0.832   9.781  18.249  0.00  0.00    +0.000 A 
ATOM     15  C   UNL     1       0.159  10.184  19.402  0.00  0.00    +0.000 A 
ATOM     16  C   UNL     1       0.377   9.516  20.616  0.00  0.00    +0.000 A 
ATOM     17  C   UNL     1       1.274   8.436  20.666  0.00  0.00    +0.000 A 
BRANCH  15  18
ATOM     18  N   UNL     1      -0.786  11.309  19.327  0.00  0.00    +0.000 N 
ATOM     19  O   UNL     1      -0.978  11.832  18.219  0.00  0.00    +0.000 OA
ATOM     20  O   UNL     1      -1.334  11.665  20.379  0.00  0.00    +0.000 OA
ENDBRANCH  15  18
ENDBRANCH  10  12
ENDBRANCH   1   8
BRANCH   1  23
ATOM     21  O   UNL     1       7.117   5.460  20.082  0.00  0.00    +0.000 OA
ATOM     22  C   UNL     1       7.031   5.336  18.864  0.00  0.00    +0.000 C 
ATOM     23  N   UNL     1       5.852   5.273  18.139  0.00  0.00    +0.000 N 
BRANCH  23  24
ATOM     24  C   UNL     1       5.921   4.996  16.738  0.00  0.00    +0.000 A 
ATOM     25  C   UNL     1       4.946   4.227  16.093  0.00  0.00    +0.000 A 
ATOM     26  C   UNL     1       5.119   3.828  14.763  0.00  0.00    +0.000 A 
ATOM     27  C   UNL     1       6.240   4.238  14.046  0.00  0.00    +0.000 A 
ATOM     28  C   UNL     1       7.185   5.058  14.655  0.00  0.00    +0.000 A 
ATOM     29  C   UNL     1       7.032   5.424  15.997  0.00  0.00    +0.000 A 
ENDBRANCH  23  24
ENDBRANCH   1  23
TORSDOF 6
ENDMDL
MODEL 9
REMARK VINA RESULT:      -7.4      1.017      1.425
REMARK  Name = 
REMARK  6 active torsions:
REMARK  status: ('A' for Active; 'I' for Inactive)
REMARK    1  A    between atoms: N_3  and  C_4
REMARK    2  A    between atoms: N_3  and  C_10
REMARK    3  A    between atoms: C_10  and  C_11
REMARK    4  A    between atoms: C_10  and  C_23
REMARK    5  A    between atoms: N_13  and  C_14
REMARK    6  A    between atoms: C_17  and  N_18
REMARK                            x       y       z     vdW  Elec       q    Type
REMARK                         _______ _______ _______ _____ _____    ______ ____
ROOT
ATOM      1  C   UNL     1       3.956   5.889  17.807  0.00  0.00    +0.000 C 
ENDROOT
BRANCH   1   2
ATOM      2  C   UNL     1       5.453   6.161  18.022  0.00  0.00    +0.000 A 
ATOM      3  C   UNL     1       6.173   7.124  17.299  0.00  0.00    +0.000 A 
ATOM      4  C   UNL     1       7.522   7.373  17.572  0.00  0.00    +0.000 A 
ATOM      5  C   UNL     1       8.172   6.681  18.590  0.00  0.00    +0.000 A 
ATOM      6  C   UNL     1       7.475   5.735  19.334  0.00  0.00    +0.000 A 
ATOM      7  C   UNL     1       6.129   5.482  19.058  0.00  0.00    +0.000 A 
ENDBRANCH   1   2
BRANCH   1   8
ATOM      8  C   UNL     1       3.021   6.732  18.712  0.00  0.00    +0.000 C 
ATOM      9  O   UNL     1       3.008   6.513  19.926  0.00  0.00    +0.000 OA
ATOM     10  N   UNL     1       2.271   7.724  18.091  0.00  0.00    +0.000 N 
ATOM     11  H   UNL     1       2.272   7.736  17.073  0.00  0.00    +0.000 HD
BRANCH  10  12
ATOM     12  C   UNL     1       1.481   8.692  18.755  0.00  0.00    +0.000 A 
ATOM     13  C   UNL     1       1.350   8.723  20.148  0.00  0.00    +0.000 A 
ATOM     14  C   UNL     1       0.573   9.692  20.785  0.00  0.00    +0.000 A 
ATOM     15  C   UNL     1      -0.089  10.651  20.019  0.00  0.00    +0.000 A 
ATOM     16  C   UNL     1       0.033  10.646  18.622  0.00  0.00    +0.000 A 
ATOM     17  C   UNL     1       0.829   9.674  17.995  0.00  0.00    +0.000 A 
BRANCH  15  18
ATOM     18  N   UNL     1      -0.908  11.670  20.694  0.00  0.00    +0.000 N 
ATOM     19  O   UNL     1      -1.959  12.028  20.143  0.00  0.00    +0.000 OA
ATOM     20  O   UNL     1      -0.496  12.108  21.777  0.00  0.00    +0.000 OA
ENDBRANCH  15  18
ENDBRANCH  10  12
ENDBRANCH   1   8
BRANCH   1  23
ATOM     21  O   UNL     1       4.719   3.949  15.856  0.00  0.00    +0.000 OA
ATOM     22  C   UNL     1       3.998   3.625  16.795  0.00  0.00    +0.000 C 
ATOM     23  N   UNL     1       3.518   4.477  17.777  0.00  0.00    +0.000 N 
BRANCH  23  24
ATOM     24  C   UNL     1       2.795   3.918  18.876  0.00  0.00    +0.000 A 
ATOM     25  C   UNL     1       3.450   3.421  20.010  0.00  0.00    +0.000 A 
ATOM     26  C   UNL     1       2.740   2.730  20.996  0.00  0.00    +0.000 A 
ATOM     27  C   UNL     1       1.360   2.573  20.890  0.00  0.00    +0.000 A 
ATOM     28  C   UNL     1       0.687   3.119  19.802  0.00  0.00    +0.000 A 
ATOM     29  C   UNL     1       1.402   3.777  18.796  0.00  0.00    +0.000 A 
ENDBRANCH  23  24
ENDBRANCH   1  23
TORSDOF 6
ENDMDL
