MODEL 1
REMARK VINA RESULT:      -7.5      0.000      0.000
REMARK  Name = 
REMARK  4 active torsions:
REMARK  status: ('A' for Active; 'I' for Inactive)
REMARK    1  A    between atoms: O_1  and  C_2
REMARK    2  A    between atoms: C_5  and  C_6
REMARK    3  A    between atoms: C_12  and  C_13
REMARK    4  A    between atoms: C_13  and  C_14
REMARK                            x       y       z     vdW  Elec       q    Type
REMARK                         _______ _______ _______ _____ _____    ______ ____
ROOT
ATOM      1  C   UNL     1      -0.107  12.140  18.411  0.00  0.00    +0.000 C 
ENDROOT
BRANCH   1   2
ATOM      2  C   UNL     1       0.057  11.096  19.527  0.00  0.00    +0.000 A 
ATOM      3  C   UNL     1      -0.608  11.274  20.793  0.00  0.00    +0.000 A 
ATOM      4  C   UNL     1      -1.490  12.342  21.112  0.00  0.00    +0.000 A 
ATOM      5  C   UNL     1      -2.071  12.498  22.375  0.00  0.00    +0.000 A 
ATOM      6  C   UNL     1      -1.813  11.570  23.369  0.00  0.00    +0.000 A 
ATOM      7  C   UNL     1      -1.002  10.475  23.083  0.00  0.00    +0.000 A 
ATOM      8  C   UNL     1      -0.404  10.312  21.815  0.00  0.00    +0.000 A 
ATOM      9  C   UNL     1       0.394   9.185  21.574  0.00  0.00    +0.000 A 
ATOM     10  C   UNL     1       1.006   8.961  20.336  0.00  0.00    +0.000 A 
ATOM     11  C   UNL     1       1.788   7.805  20.124  0.00  0.00    +0.000 A 
ATOM     12  C   UNL     1       2.407   7.555  18.901  0.00  0.00    +0.000 A 
ATOM     13  C   UNL     1       2.215   8.436  17.855  0.00  0.00    +0.000 A 
ATOM     14  C   UNL     1       1.406   9.552  18.053  0.00  0.00    +0.000 A 
ATOM     15  C   UNL     1       0.823   9.896  19.294  0.00  0.00    +0.000 A 
ENDBRANCH   1   2
BRANCH   1  20
ATOM     16  C   UNL     1       2.257  13.196  18.041  0.00  0.00    +0.000 A 
ATOM     17  N   UNL     1       2.951  14.308  18.271  0.00  0.00    +0.000 NA
ATOM     18  O   UNL     1       2.030  15.161  18.855  0.00  0.00    +0.000 OA
ATOM     19  C   UNL     1       0.815  14.539  18.936  0.00  0.00    +0.000 A 
ATOM     20  C   UNL     1       0.935  13.213  18.534  0.00  0.00    +0.000 A 
BRANCH  19  21
ATOM     21  C   UNL     1      -0.360  15.398  19.292  0.00  0.00    +0.000 C 
ATOM     22  C   UNL     1      -0.536  16.633  18.390  0.00  0.00    +0.000 C 
ATOM     23  C   UNL     1       0.172  17.891  18.896  0.00  0.00    +0.000 C 
ATOM     24  N   UNL     1      -0.143  18.168  20.295  0.00  0.00    +0.000 NA
ATOM     25  C   UNL     1       0.274  17.055  21.145  0.00  0.00    +0.000 C 
ATOM     26  C   UNL     1      -0.422  15.747  20.780  0.00  0.00    +0.000 C 
ATOM     27  H   UNL     1      -1.144  18.328  20.399  0.00  0.00    +0.000 HD
ENDBRANCH  19  21
BRANCH  16  28
ATOM     28  O   UNL     1       2.889  12.261  17.331  0.00  0.00    +0.000 OA
ATOM     29  H   UNL     1       2.836  12.540  16.404  0.00  0.00    +0.000 HD
ENDBRANCH  16  28
ENDBRANCH   1  20
TORSDOF 4
ENDMDL
MODEL 2
REMARK VINA RESULT:      -7.5      6.495      9.246
REMARK  Name = 
REMARK  4 active torsions:
REMARK  status: ('A' for Active; 'I' for Inactive)
REMARK    1  A    between atoms: O_1  and  C_2
REMARK    2  A    between atoms: C_5  and  C_6
REMARK    3  A    between atoms: C_12  and  C_13
REMARK    4  A    between atoms: C_13  and  C_14
REMARK                            x       y       z     vdW  Elec       q    Type
REMARK                         _______ _______ _______ _____ _____    ______ ____
ROOT
ATOM      1  C   UNL     1       3.754   4.711  16.021  0.00  0.00    +0.000 C 
ENDROOT
BRANCH   1   2
ATOM      2  C   UNL     1       3.372   4.830  17.506  0.00  0.00    +0.000 A 
ATOM      3  C   UNL     1       2.879   6.078  18.032  0.00  0.00    +0.000 A 
ATOM      4  C   UNL     1       2.643   7.252  17.268  0.00  0.00    +0.000 A 
ATOM      5  C   UNL     1       2.211   8.455  17.836  0.00  0.00    +0.000 A 
ATOM      6  C   UNL     1       1.969   8.524  19.198  0.00  0.00    +0.000 A 
ATOM      7  C   UNL     1       2.131   7.382  19.975  0.00  0.00    +0.000 A 
ATOM      8  C   UNL     1       2.574   6.164  19.415  0.00  0.00    +0.000 A 
ATOM      9  C   UNL     1       2.708   5.039  20.238  0.00  0.00    +0.000 A 
ATOM     10  C   UNL     1       3.133   3.803  19.742  0.00  0.00    +0.000 A 
ATOM     11  C   UNL     1       3.238   2.685  20.598  0.00  0.00    +0.000 A 
ATOM     12  C   UNL     1       3.656   1.441  20.131  0.00  0.00    +0.000 A 
ATOM     13  C   UNL     1       3.931   1.284  18.786  0.00  0.00    +0.000 A 
ATOM     14  C   UNL     1       3.784   2.376  17.935  0.00  0.00    +0.000 A 
ATOM     15  C   UNL     1       3.442   3.677  18.370  0.00  0.00    +0.000 A 
ENDBRANCH   1   2
BRANCH   1  20
ATOM     16  C   UNL     1       6.000   4.354  14.730  0.00  0.00    +0.000 A 
ATOM     17  N   UNL     1       7.313   4.532  14.851  0.00  0.00    +0.000 NA
ATOM     18  O   UNL     1       7.452   5.174  16.070  0.00  0.00    +0.000 OA
ATOM     19  C   UNL     1       6.219   5.375  16.626  0.00  0.00    +0.000 A 
ATOM     20  C   UNL     1       5.245   4.750  15.854  0.00  0.00    +0.000 A 
BRANCH  19  21
ATOM     21  C   UNL     1       6.154   6.290  17.811  0.00  0.00    +0.000 C 
ATOM     22  C   UNL     1       6.652   7.720  17.533  0.00  0.00    +0.000 C 
ATOM     23  C   UNL     1       8.141   7.935  17.810  0.00  0.00    +0.000 C 
ATOM     24  N   UNL     1       8.523   7.455  19.135  0.00  0.00    +0.000 NA
ATOM     25  C   UNL     1       8.253   6.024  19.260  0.00  0.00    +0.000 C 
ATOM     26  C   UNL     1       6.778   5.688  19.070  0.00  0.00    +0.000 C 
ATOM     27  H   UNL     1       8.010   7.969  19.850  0.00  0.00    +0.000 HD
ENDBRANCH  19  21
BRANCH  16  28
ATOM     28  O   UNL     1       5.590   3.887  13.550  0.00  0.00    +0.000 OA
ATOM     29  H   UNL     1       4.670   3.608  13.672  0.00  0.00    +0.000 HD
ENDBRANCH  16  28
ENDBRANCH   1  20
TORSDOF 4
ENDMDL
MODEL 3
REMARK VINA RESULT:      -7.5      4.001      7.148
REMARK  Name = 
REMARK  4 active torsions:
REMARK  status: ('A' for Active; 'I' for Inactive)
REMARK    1  A    between atoms: O_1  and  C_2
REMARK    2  A    between atoms: C_5  and  C_6
REMARK    3  A    between atoms: C_12  and  C_13
REMARK    4  A    between atoms: C_13  and  C_14
REMARK                            x       y       z     vdW  Elec       q    Type
REMARK                         _______ _______ _______ _____ _____    ______ ____
ROOT
ATOM      1  C   UNL     1       2.347   6.849  17.551  0.00  0.00    +0.000 C 
ENDROOT
BRANCH   1   2
ATOM      2  C   UNL     1       3.303   5.688  17.868  0.00  0.00    +0.000 A 
ATOM      3  C   UNL     1       2.781   4.381  18.183  0.00  0.00    +0.000 A 
ATOM      4  C   UNL     1       1.405   4.025  18.174  0.00  0.00    +0.000 A 
ATOM      5  C   UNL     1       0.946   2.755  18.538  0.00  0.00    +0.000 A 
ATOM      6  C   UNL     1       1.853   1.774  18.901  0.00  0.00    +0.000 A 
ATOM      7  C   UNL     1       3.215   2.062  18.867  0.00  0.00    +0.000 A 
ATOM      8  C   UNL     1       3.690   3.342  18.509  0.00  0.00    +0.000 A 
ATOM      9  C   UNL     1       5.070   3.577  18.478  0.00  0.00    +0.000 A 
ATOM     10  C   UNL     1       5.604   4.820  18.123  0.00  0.00    +0.000 A 
ATOM     11  C   UNL     1       7.002   5.015  18.084  0.00  0.00    +0.000 A 
ATOM     12  C   UNL     1       7.561   6.241  17.732  0.00  0.00    +0.000 A 
ATOM     13  C   UNL     1       6.728   7.281  17.366  0.00  0.00    +0.000 A 
ATOM     14  C   UNL     1       5.351   7.074  17.362  0.00  0.00    +0.000 A 
ATOM     15  C   UNL     1       4.730   5.878  17.788  0.00  0.00    +0.000 A 
ENDBRANCH   1   2
BRANCH   1  20
ATOM     16  C   UNL     1       2.153   7.131  20.144  0.00  0.00    +0.000 A 
ATOM     17  N   UNL     1       1.659   7.948  21.071  0.00  0.00    +0.000 NA
ATOM     18  O   UNL     1       1.138   9.003  20.342  0.00  0.00    +0.000 OA
ATOM     19  C   UNL     1       1.355   8.792  19.009  0.00  0.00    +0.000 A 
ATOM     20  C   UNL     1       1.902   7.527  18.814  0.00  0.00    +0.000 A 
BRANCH  19  21
ATOM     21  C   UNL     1       1.101   9.949  18.091  0.00  0.00    +0.000 C 
ATOM     22  C   UNL     1       1.823  11.247  18.498  0.00  0.00    +0.000 C 
ATOM     23  C   UNL     1       1.008  12.163  19.412  0.00  0.00    +0.000 C 
ATOM     24  N   UNL     1      -0.332  12.407  18.886  0.00  0.00    +0.000 NA
ATOM     25  C   UNL     1      -1.067  11.151  18.751  0.00  0.00    +0.000 C 
ATOM     26  C   UNL     1      -0.384  10.172  17.802  0.00  0.00    +0.000 C 
ATOM     27  H   UNL     1      -0.269  12.871  17.980  0.00  0.00    +0.000 HD
ENDBRANCH  19  21
BRANCH  16  28
ATOM     28  O   UNL     1       2.858   6.098  20.606  0.00  0.00    +0.000 OA
ATOM     29  H   UNL     1       2.888   5.445  19.890  0.00  0.00    +0.000 HD
ENDBRANCH  16  28
ENDBRANCH   1  20
TORSDOF 4
ENDMDL
MODEL 4
REMARK VINA RESULT:      -7.5      5.227      7.300
REMARK  Name = 
REMARK  4 active torsions:
REMARK  status: ('A' for Active; 'I' for Inactive)
REMARK    1  A    between atoms: O_1  and  C_2
REMARK    2  A    between atoms: C_5  and  C_6
REMARK    3  A    between atoms: C_12  and  C_13
REMARK    4  A    between atoms: C_13  and  C_14
REMARK                            x       y       z     vdW  Elec       q    Type
REMARK                         _______ _______ _______ _____ _____    ______ ____
ROOT
ATOM      1  C   UNL     1      -5.143  12.869  19.296  0.00  0.00    +0.000 C 
ENDROOT
BRANCH   1   2
ATOM      2  C   UNL     1      -3.806  12.126  19.144  0.00  0.00    +0.000 A 
ATOM      3  C   UNL     1      -3.511  11.399  17.934  0.00  0.00    +0.000 A 
ATOM      4  C   UNL     1      -4.348  11.345  16.787  0.00  0.00    +0.000 A 
ATOM      5  C   UNL     1      -4.038  10.583  15.656  0.00  0.00    +0.000 A 
ATOM      6  C   UNL     1      -2.858   9.861  15.615  0.00  0.00    +0.000 A 
ATOM      7  C   UNL     1      -1.980   9.933  16.693  0.00  0.00    +0.000 A 
ATOM      8  C   UNL     1      -2.285  10.692  17.843  0.00  0.00    +0.000 A 
ATOM      9  C   UNL     1      -1.362  10.742  18.896  0.00  0.00    +0.000 A 
ATOM     10  C   UNL     1      -1.601  11.482  20.058  0.00  0.00    +0.000 A 
ATOM     11  C   UNL     1      -0.639  11.525  21.090  0.00  0.00    +0.000 A 
ATOM     12  C   UNL     1      -0.848  12.257  22.257  0.00  0.00    +0.000 A 
ATOM     13  C   UNL     1      -2.007  12.998  22.389  0.00  0.00    +0.000 A 
ATOM     14  C   UNL     1      -2.934  12.991  21.350  0.00  0.00    +0.000 A 
ATOM     15  C   UNL     1      -2.809  12.203  20.183  0.00  0.00    +0.000 A 
ENDBRANCH   1   2
BRANCH   1  20
ATOM     16  C   UNL     1      -6.715  10.856  19.859  0.00  0.00    +0.000 A 
ATOM     17  N   UNL     1      -7.485  10.373  20.831  0.00  0.00    +0.000 NA
ATOM     18  O   UNL     1      -7.295  11.259  21.878  0.00  0.00    +0.000 OA
ATOM     19  C   UNL     1      -6.405  12.227  21.504  0.00  0.00    +0.000 A 
ATOM     20  C   UNL     1      -6.089  12.085  20.157  0.00  0.00    +0.000 A 
BRANCH  19  21
ATOM     21  C   UNL     1      -5.875  13.112  22.591  0.00  0.00    +0.000 C 
ATOM     22  C   UNL     1      -6.390  12.761  23.999  0.00  0.00    +0.000 C 
ATOM     23  C   UNL     1      -7.663  13.503  24.410  0.00  0.00    +0.000 C 
ATOM     24  N   UNL     1      -7.546  14.943  24.197  0.00  0.00    +0.000 NA
ATOM     25  C   UNL     1      -7.300  15.236  22.787  0.00  0.00    +0.000 C 
ATOM     26  C   UNL     1      -6.011  14.602  22.274  0.00  0.00    +0.000 C 
ATOM     27  H   UNL     1      -6.788  15.316  24.767  0.00  0.00    +0.000 HD
ENDBRANCH  19  21
BRANCH  16  28
ATOM     28  O   UNL     1      -6.602  10.083  18.778  0.00  0.00    +0.000 OA
ATOM     29  H   UNL     1      -7.427   9.579  18.715  0.00  0.00    +0.000 HD
ENDBRANCH  16  28
ENDBRANCH   1  20
TORSDOF 4
ENDMDL
MODEL 5
REMARK VINA RESULT:      -7.4      6.433      9.579
REMARK  Name = 
REMARK  4 active torsions:
REMARK  status: ('A' for Active; 'I' for Inactive)
REMARK    1  A    between atoms: O_1  and  C_2
REMARK    2  A    between atoms: C_5  and  C_6
REMARK    3  A    between atoms: C_12  and  C_13
REMARK    4  A    between atoms: C_13  and  C_14
REMARK                            x       y       z     vdW  Elec       q    Type
REMARK                         _______ _______ _______ _____ _____    ______ ____
ROOT
ATOM      1  C   UNL     1       3.694   4.718  16.073  0.00  0.00    +0.000 C 
ENDROOT
BRANCH   1   2
ATOM      2  C   UNL     1       3.322   4.901  17.553  0.00  0.00    +0.000 A 
ATOM      3  C   UNL     1       3.470   3.808  18.481  0.00  0.00    +0.000 A 
ATOM      4  C   UNL     1       4.007   2.531  18.163  0.00  0.00    +0.000 A 
ATOM      5  C   UNL     1       4.083   1.486  19.089  0.00  0.00    +0.000 A 
ATOM      6  C   UNL     1       3.647   1.685  20.388  0.00  0.00    +0.000 A 
ATOM      7  C   UNL     1       3.168   2.938  20.759  0.00  0.00    +0.000 A 
ATOM      8  C   UNL     1       3.079   3.998  19.832  0.00  0.00    +0.000 A 
ATOM      9  C   UNL     1       2.603   5.245  20.259  0.00  0.00    +0.000 A 
ATOM     10  C   UNL     1       2.500   6.337  19.391  0.00  0.00    +0.000 A 
ATOM     11  C   UNL     1       2.033   7.583  19.862  0.00  0.00    +0.000 A 
ATOM     12  C   UNL     1       1.923   8.689  19.021  0.00  0.00    +0.000 A 
ATOM     13  C   UNL     1       2.324   8.576  17.704  0.00  0.00    +0.000 A 
ATOM     14  C   UNL     1       2.827   7.359  17.253  0.00  0.00    +0.000 A 
ATOM     15  C   UNL     1       2.883   6.186  18.040  0.00  0.00    +0.000 A 
ENDBRANCH   1   2
BRANCH   1  20
ATOM     16  C   UNL     1       5.927   4.334  14.767  0.00  0.00    +0.000 A 
ATOM     17  N   UNL     1       7.243   4.494  14.881  0.00  0.00    +0.000 NA
ATOM     18  O   UNL     1       7.398   5.132  16.099  0.00  0.00    +0.000 OA
ATOM     19  C   UNL     1       6.171   5.348  16.663  0.00  0.00    +0.000 A 
ATOM     20  C   UNL     1       5.184   4.738  15.896  0.00  0.00    +0.000 A 
BRANCH  19  21
ATOM     21  C   UNL     1       6.126   6.262  17.851  0.00  0.00    +0.000 C 
ATOM     22  C   UNL     1       6.623   7.691  17.567  0.00  0.00    +0.000 C 
ATOM     23  C   UNL     1       8.116   7.903  17.822  0.00  0.00    +0.000 C 
ATOM     24  N   UNL     1       8.517   7.420  19.140  0.00  0.00    +0.000 NA
ATOM     25  C   UNL     1       8.247   5.990  19.267  0.00  0.00    +0.000 C 
ATOM     26  C   UNL     1       6.768   5.656  19.100  0.00  0.00    +0.000 C 
ATOM     27  H   UNL     1       8.017   7.934  19.864  0.00  0.00    +0.000 HD
ENDBRANCH  19  21
BRANCH  16  28
ATOM     28  O   UNL     1       5.503   3.875  13.589  0.00  0.00    +0.000 OA
ATOM     29  H   UNL     1       4.535   3.883  13.625  0.00  0.00    +0.000 HD
ENDBRANCH  16  28
ENDBRANCH   1  20
TORSDOF 4
ENDMDL
MODEL 6
REMARK VINA RESULT:      -7.3      4.048      6.188
REMARK  Name = 
REMARK  4 active torsions:
REMARK  status: ('A' for Active; 'I' for Inactive)
REMARK    1  A    between atoms: O_1  and  C_2
REMARK    2  A    between atoms: C_5  and  C_6
REMARK    3  A    between atoms: C_12  and  C_13
REMARK    4  A    between atoms: C_13  and  C_14
REMARK                            x       y       z     vdW  Elec       q    Type
REMARK                         _______ _______ _______ _____ _____    ______ ____
ROOT
ATOM      1  C   UNL     1      -2.150  13.350  23.436  0.00  0.00    +0.000 C 
ENDROOT
BRANCH   1   2
ATOM      2  C   UNL     1      -1.331  12.933  22.204  0.00  0.00    +0.000 A 
ATOM      3  C   UNL     1      -1.012  13.898  21.182  0.00  0.00    +0.000 A 
ATOM      4  C   UNL     1      -1.344  15.279  21.228  0.00  0.00    +0.000 A 
ATOM      5  C   UNL     1      -1.055  16.165  20.185  0.00  0.00    +0.000 A 
ATOM      6  C   UNL     1      -0.393  15.709  19.058  0.00  0.00    +0.000 A 
ATOM      7  C   UNL     1       0.004  14.376  18.996  0.00  0.00    +0.000 A 
ATOM      8  C   UNL     1      -0.289  13.470  20.038  0.00  0.00    +0.000 A 
ATOM      9  C   UNL     1       0.143  12.142  19.934  0.00  0.00    +0.000 A 
ATOM     10  C   UNL     1      -0.107  11.199  20.936  0.00  0.00    +0.000 A 
ATOM     11  C   UNL     1       0.361   9.873  20.805  0.00  0.00    +0.000 A 
ATOM     12  C   UNL     1       0.129   8.914  21.789  0.00  0.00    +0.000 A 
ATOM     13  C   UNL     1      -0.536   9.280  22.943  0.00  0.00    +0.000 A 
ATOM     14  C   UNL     1      -0.957  10.599  23.090  0.00  0.00    +0.000 A 
ATOM     15  C   UNL     1      -0.820  11.589  22.091  0.00  0.00    +0.000 A 
ENDBRANCH   1   2
BRANCH   1  20
ATOM     16  C   UNL     1      -4.462  12.537  24.347  0.00  0.00    +0.000 A 
ATOM     17  N   UNL     1      -5.680  12.186  23.940  0.00  0.00    +0.000 NA
ATOM     18  O   UNL     1      -5.649  12.404  22.573  0.00  0.00    +0.000 OA
ATOM     19  C   UNL     1      -4.425  12.894  22.213  0.00  0.00    +0.000 A 
ATOM     20  C   UNL     1      -3.570  12.884  23.311  0.00  0.00    +0.000 A 
BRANCH  19  21
ATOM     21  C   UNL     1      -4.298  13.439  20.823  0.00  0.00    +0.000 C 
ATOM     22  C   UNL     1      -5.192  14.660  20.540  0.00  0.00    +0.000 C 
ATOM     23  C   UNL     1      -6.570  14.317  19.971  0.00  0.00    +0.000 C 
ATOM     24  N   UNL     1      -6.477  13.411  18.829  0.00  0.00    +0.000 NA
ATOM     25  C   UNL     1      -5.836  12.157  19.219  0.00  0.00    +0.000 C 
ATOM     26  C   UNL     1      -4.418  12.363  19.742  0.00  0.00    +0.000 C 
ATOM     27  H   UNL     1      -5.949  13.854  18.079  0.00  0.00    +0.000 HD
ENDBRANCH  19  21
BRANCH  16  28
ATOM     28  O   UNL     1      -4.284  12.565  25.669  0.00  0.00    +0.000 OA
ATOM     29  H   UNL     1      -3.554  13.182  25.833  0.00  0.00    +0.000 HD
ENDBRANCH  16  28
ENDBRANCH   1  20
TORSDOF 4
ENDMDL
MODEL 7
REMARK VINA RESULT:      -7.2      3.993      6.259
REMARK  Name = 
REMARK  4 active torsions:
REMARK  status: ('A' for Active; 'I' for Inactive)
REMARK    1  A    between atoms: O_1  and  C_2
REMARK    2  A    between atoms: C_5  and  C_6
REMARK    3  A    between atoms: C_12  and  C_13
REMARK    4  A    between atoms: C_13  and  C_14
REMARK                            x       y       z     vdW  Elec       q    Type
REMARK                         _______ _______ _______ _____ _____    ______ ____
ROOT
ATOM      1  C   UNL     1      -1.438  12.442  18.941  0.00  0.00    +0.000 C 
ENDROOT
BRANCH   1   2
ATOM      2  C   UNL     1      -1.457  12.054  20.428  0.00  0.00    +0.000 A 
ATOM      3  C   UNL     1      -0.642  10.966  20.907  0.00  0.00    +0.000 A 
ATOM      4  C   UNL     1       0.268  10.214  20.115  0.00  0.00    +0.000 A 
ATOM      5  C   UNL     1       0.999   9.133  20.618  0.00  0.00    +0.000 A 
ATOM      6  C   UNL     1       0.870   8.775  21.949  0.00  0.00    +0.000 A 
ATOM      7  C   UNL     1       0.035   9.521  22.775  0.00  0.00    +0.000 A 
ATOM      8  C   UNL     1      -0.715  10.609  22.278  0.00  0.00    +0.000 A 
ATOM      9  C   UNL     1      -1.531  11.336  23.154  0.00  0.00    +0.000 A 
ATOM     10  C   UNL     1      -2.291  12.429  22.725  0.00  0.00    +0.000 A 
ATOM     11  C   UNL     1      -3.087  13.151  23.641  0.00  0.00    +0.000 A 
ATOM     12  C   UNL     1      -3.852  14.245  23.243  0.00  0.00    +0.000 A 
ATOM     13  C   UNL     1      -3.794  14.665  21.928  0.00  0.00    +0.000 A 
ATOM     14  C   UNL     1      -2.972  13.980  21.037  0.00  0.00    +0.000 A 
ATOM     15  C   UNL     1      -2.241  12.817  21.369  0.00  0.00    +0.000 A 
ENDBRANCH   1   2
BRANCH   1  20
ATOM     16  C   UNL     1      -2.112  10.428  17.416  0.00  0.00    +0.000 A 
ATOM     17  N   UNL     1      -3.172   9.858  16.848  0.00  0.00    +0.000 NA
ATOM     18  O   UNL     1      -4.241  10.606  17.309  0.00  0.00    +0.000 OA
ATOM     19  C   UNL     1      -3.787  11.584  18.151  0.00  0.00    +0.000 A 
ATOM     20  C   UNL     1      -2.396  11.592  18.160  0.00  0.00    +0.000 A 
BRANCH  19  21
ATOM     21  C   UNL     1      -4.820  12.317  18.953  0.00  0.00    +0.000 C 
ATOM     22  C   UNL     1      -5.485  11.469  20.052  0.00  0.00    +0.000 C 
ATOM     23  C   UNL     1      -6.758  10.746  19.608  0.00  0.00    +0.000 C 
ATOM     24  N   UNL     1      -7.697  11.651  18.950  0.00  0.00    +0.000 NA
ATOM     25  C   UNL     1      -7.090  12.245  17.761  0.00  0.00    +0.000 C 
ATOM     26  C   UNL     1      -5.840  13.057  18.086  0.00  0.00    +0.000 C 
ATOM     27  H   UNL     1      -7.983  12.384  19.598  0.00  0.00    +0.000 HD
ENDBRANCH  19  21
BRANCH  16  28
ATOM     28  O   UNL     1      -0.956   9.784  17.249  0.00  0.00    +0.000 OA
ATOM     29  H   UNL     1      -0.333  10.173  17.883  0.00  0.00    +0.000 HD
ENDBRANCH  16  28
ENDBRANCH   1  20
TORSDOF 4
ENDMDL
MODEL 8
REMARK VINA RESULT:      -7.2      3.917      6.426
REMARK  Name = 
REMARK  4 active torsions:
REMARK  status: ('A' for Active; 'I' for Inactive)
REMARK    1  A    between atoms: O_1  and  C_2
REMARK    2  A    between atoms: C_5  and  C_6
REMARK    3  A    between atoms: C_12  and  C_13
REMARK    4  A    between atoms: C_13  and  C_14
REMARK                            x       y       z     vdW  Elec       q    Type
REMARK                         _______ _______ _______ _____ _____    ______ ____
ROOT
ATOM      1  C   UNL     1      -1.963  13.458  23.651  0.00  0.00    +0.000 C 
ENDROOT
BRANCH   1   2
ATOM      2  C   UNL     1      -1.042  13.065  22.485  0.00  0.00    +0.000 A 
ATOM      3  C   UNL     1      -0.624  11.696  22.317  0.00  0.00    +0.000 A 
ATOM      4  C   UNL     1      -1.045  10.606  23.127  0.00  0.00    +0.000 A 
ATOM      5  C   UNL     1      -0.569   9.302  22.954  0.00  0.00    +0.000 A 
ATOM      6  C   UNL     1       0.331   9.028  21.939  0.00  0.00    +0.000 A 
ATOM      7  C   UNL     1       0.725  10.054  21.084  0.00  0.00    +0.000 A 
ATOM      8  C   UNL     1       0.259  11.375  21.254  0.00  0.00    +0.000 A 
ATOM      9  C   UNL     1       0.675  12.369  20.358  0.00  0.00    +0.000 A 
ATOM     10  C   UNL     1       0.242  13.694  20.467  0.00  0.00    +0.000 A 
ATOM     11  C   UNL     1       0.667  14.665  19.535  0.00  0.00    +0.000 A 
ATOM     12  C   UNL     1       0.250  15.992  19.617  0.00  0.00    +0.000 A 
ATOM     13  C   UNL     1      -0.640  16.358  20.608  0.00  0.00    +0.000 A 
ATOM     14  C   UNL     1      -1.094  15.389  21.499  0.00  0.00    +0.000 A 
ATOM     15  C   UNL     1      -0.640  14.050  21.511  0.00  0.00    +0.000 A 
ENDBRANCH   1   2
BRANCH   1  20
ATOM     16  C   UNL     1      -4.317  12.576  24.372  0.00  0.00    +0.000 A 
ATOM     17  N   UNL     1      -5.492  12.207  23.870  0.00  0.00    +0.000 NA
ATOM     18  O   UNL     1      -5.366  12.453  22.513  0.00  0.00    +0.000 OA
ATOM     19  C   UNL     1      -4.130  12.977  22.254  0.00  0.00    +0.000 A 
ATOM     20  C   UNL     1      -3.359  12.963  23.412  0.00  0.00    +0.000 A 
BRANCH  19  21
ATOM     21  C   UNL     1      -3.914  13.552  20.887  0.00  0.00    +0.000 C 
ATOM     22  C   UNL     1      -4.990  14.563  20.450  0.00  0.00    +0.000 C 
ATOM     23  C   UNL     1      -6.166  13.945  19.691  0.00  0.00    +0.000 C 
ATOM     24  N   UNL     1      -5.717  13.092  18.594  0.00  0.00    +0.000 NA
ATOM     25  C   UNL     1      -4.894  11.996  19.099  0.00  0.00    +0.000 C 
ATOM     26  C   UNL     1      -3.645  12.488  19.823  0.00  0.00    +0.000 C 
ATOM     27  H   UNL     1      -5.187  13.645  17.921  0.00  0.00    +0.000 HD
ENDBRANCH  19  21
BRANCH  16  28
ATOM     28  O   UNL     1      -4.238  12.582  25.704  0.00  0.00    +0.000 OA
ATOM     29  H   UNL     1      -4.854  13.264  26.011  0.00  0.00    +0.000 HD
ENDBRANCH  16  28
ENDBRANCH   1  20
TORSDOF 4
ENDMDL
MODEL 9
REMARK VINA RESULT:      -7.1      0.165      3.557
REMARK  Name = 
REMARK  4 active torsions:
REMARK  status: ('A' for Active; 'I' for Inactive)
REMARK    1  A    between atoms: O_1  and  C_2
REMARK    2  A    between atoms: C_5  and  C_6
REMARK    3  A    between atoms: C_12  and  C_13
REMARK    4  A    between atoms: C_13  and  C_14
REMARK                            x       y       z     vdW  Elec       q    Type
REMARK                         _______ _______ _______ _____ _____    ______ ____
ROOT
ATOM      1  C   UNL     1      -0.064  12.132  18.423  0.00  0.00    +0.000 C 
ENDROOT
BRANCH   1   2
ATOM      2  C   UNL     1       0.131  11.046  19.493  0.00  0.00    +0.000 A 
ATOM      3  C   UNL     1       0.944   9.889  19.216  0.00  0.00    +0.000 A 
ATOM      4  C   UNL     1       1.667   9.665  18.012  0.00  0.00    +0.000 A 
ATOM      5  C   UNL     1       2.402   8.500  17.772  0.00  0.00    +0.000 A 
ATOM      6  C   UNL     1       2.467   7.516  18.743  0.00  0.00    +0.000 A 
ATOM      7  C   UNL     1       1.823   7.718  19.960  0.00  0.00    +0.000 A 
ATOM      8  C   UNL     1       1.071   8.886  20.212  0.00  0.00    +0.000 A 
ATOM      9  C   UNL     1       0.452   9.049  21.458  0.00  0.00    +0.000 A 
ATOM     10  C   UNL     1      -0.298  10.187  21.772  0.00  0.00    +0.000 A 
ATOM     11  C   UNL     1      -0.891  10.324  23.045  0.00  0.00    +0.000 A 
ATOM     12  C   UNL     1      -1.641  11.448  23.386  0.00  0.00    +0.000 A 
ATOM     13  C   UNL     1      -1.769  12.475  22.472  0.00  0.00    +0.000 A 
ATOM     14  C   UNL     1      -1.145  12.358  21.233  0.00  0.00    +0.000 A 
ATOM     15  C   UNL     1      -0.443  11.207  20.806  0.00  0.00    +0.000 A 
ENDBRANCH   1   2
BRANCH   1  20
ATOM     16  C   UNL     1       2.289  13.220  18.083  0.00  0.00    +0.000 A 
ATOM     17  N   UNL     1       2.970  14.335  18.338  0.00  0.00    +0.000 NA
ATOM     18  O   UNL     1       2.038  15.165  18.936  0.00  0.00    +0.000 OA
ATOM     19  C   UNL     1       0.830  14.529  19.000  0.00  0.00    +0.000 A 
ATOM     20  C   UNL     1       0.965  13.213  18.571  0.00  0.00    +0.000 A 
BRANCH  19  21
ATOM     21  C   UNL     1      -0.356  15.368  19.369  0.00  0.00    +0.000 C 
ATOM     22  C   UNL     1      -0.605  16.559  18.425  0.00  0.00    +0.000 C 
ATOM     23  C   UNL     1       0.084  17.857  18.850  0.00  0.00    +0.000 C 
ATOM     24  N   UNL     1      -0.183  18.182  20.249  0.00  0.00    +0.000 NA
ATOM     25  C   UNL     1       0.301  17.118  21.125  0.00  0.00    +0.000 C 
ATOM     26  C   UNL     1      -0.368  15.777  20.843  0.00  0.00    +0.000 C 
ATOM     27  H   UNL     1      -1.184  18.318  20.387  0.00  0.00    +0.000 HD
ENDBRANCH  19  21
BRANCH  16  28
ATOM     28  O   UNL     1       2.934  12.306  17.356  0.00  0.00    +0.000 OA
ATOM     29  H   UNL     1       2.368  12.115  16.593  0.00  0.00    +0.000 HD
ENDBRANCH  16  28
ENDBRANCH   1  20
TORSDOF 4
ENDMDL
