MODEL 1
REMARK VINA RESULT:      -8.4      0.000      0.000
REMARK  Name = 
REMARK  6 active torsions:
REMARK  status: ('A' for Active; 'I' for Inactive)
REMARK    1  A    between atoms: C_1  and  O_2
REMARK    2  A    between atoms: O_2  and  C_3
REMARK    3  A    between atoms: C_6  and  C_7
REMARK    4  A    between atoms: N_9  and  C_10
REMARK    5  A    between atoms: C_14  and  C_15
REMARK    6  A    between atoms: C_26  and  N_27
REMARK                            x       y       z     vdW  Elec       q    Type
REMARK                         _______ _______ _______ _____ _____    ______ ____
ROOT
ATOM      1  C   UNL     1       1.757   8.179  19.829  0.00  0.00    +0.000 C 
ATOM      2  O   UNL     1       1.491   8.561  20.967  0.00  0.00    +0.000 OA
ATOM      3  N   UNL     1       1.582   8.900  18.664  0.00  0.00    +0.000 N 
ATOM      4  H   UNL     1       1.658   8.408  17.782  0.00  0.00    +0.000 HD
ENDROOT
BRANCH   1   8
ATOM      5  C   UNL     1       3.173   4.164  19.213  0.00  0.00    +0.000 A 
ATOM      6  C   UNL     1       3.518   5.207  18.354  0.00  0.00    +0.000 A 
ATOM      7  C   UNL     1       3.056   6.501  18.597  0.00  0.00    +0.000 A 
ATOM      8  C   UNL     1       2.230   6.780  19.695  0.00  0.00    +0.000 A 
ATOM      9  C   UNL     1       1.838   5.748  20.546  0.00  0.00    +0.000 A 
ATOM     10  C   UNL     1       2.307   4.448  20.278  0.00  0.00    +0.000 A 
BRANCH  10  11
ATOM     11  N   UNL     1       1.884   3.384  21.171  0.00  0.00    +0.000 N 
ATOM     12  O   UNL     1       2.619   3.106  22.127  0.00  0.00    +0.000 OA
ATOM     13  O   UNL     1       0.845   2.783  20.861  0.00  0.00    +0.000 OA
ENDBRANCH  10  11
BRANCH   5  15
ATOM     14  C   UNL     1       3.009   2.139  18.005  0.00  0.00    +0.000 C 
ATOM     15  O   UNL     1       3.633   2.886  19.049  0.00  0.00    +0.000 OA
ENDBRANCH   5  15
ENDBRANCH   1   8
BRANCH   3  16
ATOM     16  C   UNL     1       1.056  10.214  18.604  0.00  0.00    +0.000 A 
ATOM     17  C   UNL     1       1.851  11.360  18.566  0.00  0.00    +0.000 A 
ATOM     18  C   UNL     1       1.272  12.629  18.556  0.00  0.00    +0.000 A 
ATOM     19  C   UNL     1      -0.115  12.769  18.585  0.00  0.00    +0.000 A 
ATOM     20  C   UNL     1      -0.942  11.638  18.607  0.00  0.00    +0.000 A 
ATOM     21  C   UNL     1      -0.333  10.364  18.596  0.00  0.00    +0.000 A 
BRANCH  20  22
ATOM     22  C   UNL     1      -2.415  11.698  18.639  0.00  0.00    +0.000 A 
ATOM     23  N   UNL     1      -3.074  12.325  19.594  0.00  0.00    +0.000 NA
ATOM     24  C   UNL     1      -4.435  12.164  19.436  0.00  0.00    +0.000 A 
ATOM     25  C   UNL     1      -5.418  12.659  20.310  0.00  0.00    +0.000 A 
ATOM     26  C   UNL     1      -6.766  12.386  20.058  0.00  0.00    +0.000 A 
ATOM     27  C   UNL     1      -7.136  11.648  18.939  0.00  0.00    +0.000 A 
ATOM     28  C   UNL     1      -6.175  11.166  18.042  0.00  0.00    +0.000 A 
ATOM     29  C   UNL     1      -4.823  11.429  18.316  0.00  0.00    +0.000 A 
ATOM     30  S   UNL     1      -3.414  10.956  17.449  0.00  0.00    +0.000 S 
ENDBRANCH  20  22
ENDBRANCH   3  16
TORSDOF 5
ENDMDL
MODEL 2
REMARK VINA RESULT:      -8.4      7.760     10.187
REMARK  Name = 
REMARK  6 active torsions:
REMARK  status: ('A' for Active; 'I' for Inactive)
REMARK    1  A    between atoms: C_1  and  O_2
REMARK    2  A    between atoms: O_2  and  C_3
REMARK    3  A    between atoms: C_6  and  C_7
REMARK    4  A    between atoms: N_9  and  C_10
REMARK    5  A    between atoms: C_14  and  C_15
REMARK    6  A    between atoms: C_26  and  N_27
REMARK                            x       y       z     vdW  Elec       q    Type
REMARK                         _______ _______ _______ _____ _____    ______ ____
ROOT
ATOM      1  C   UNL     1       8.153   8.262  18.230  0.00  0.00    +0.000 C 
ATOM      2  O   UNL     1       8.626   7.433  19.006  0.00  0.00    +0.000 OA
ATOM      3  N   UNL     1       7.323   7.997  17.158  0.00  0.00    +0.000 N 
ATOM      4  H   UNL     1       7.158   8.736  16.486  0.00  0.00    +0.000 HD
ENDROOT
BRANCH   1   8
ATOM      5  C   UNL     1       9.364  12.378  18.546  0.00  0.00    +0.000 A 
ATOM      6  C   UNL     1       8.515  11.935  17.531  0.00  0.00    +0.000 A 
ATOM      7  C   UNL     1       8.128  10.596  17.472  0.00  0.00    +0.000 A 
ATOM      8  C   UNL     1       8.588   9.667  18.416  0.00  0.00    +0.000 A 
ATOM      9  C   UNL     1       9.468  10.076  19.418  0.00  0.00    +0.000 A 
ATOM     10  C   UNL     1       9.854  11.429  19.454  0.00  0.00    +0.000 A 
BRANCH  10  11
ATOM     11  N   UNL     1      10.776  11.837  20.500  0.00  0.00    +0.000 N 
ATOM     12  O   UNL     1      11.985  11.662  20.304  0.00  0.00    +0.000 OA
ATOM     13  O   UNL     1      10.269  12.269  21.545  0.00  0.00    +0.000 OA
ENDBRANCH  10  11
BRANCH   5  15
ATOM     14  C   UNL     1       8.735  14.565  19.184  0.00  0.00    +0.000 C 
ATOM     15  O   UNL     1       9.740  13.687  18.679  0.00  0.00    +0.000 OA
ENDBRANCH   5  15
ENDBRANCH   1   8
BRANCH   3  16
ATOM     16  C   UNL     1       6.885   6.703  16.782  0.00  0.00    +0.000 A 
ATOM     17  C   UNL     1       7.452   5.973  15.738  0.00  0.00    +0.000 A 
ATOM     18  C   UNL     1       6.945   4.722  15.385  0.00  0.00    +0.000 A 
ATOM     19  C   UNL     1       5.857   4.185  16.073  0.00  0.00    +0.000 A 
ATOM     20  C   UNL     1       5.275   4.887  17.137  0.00  0.00    +0.000 A 
ATOM     21  C   UNL     1       5.820   6.140  17.489  0.00  0.00    +0.000 A 
BRANCH  20  22
ATOM     22  C   UNL     1       4.124   4.391  17.916  0.00  0.00    +0.000 A 
ATOM     23  N   UNL     1       4.008   4.601  19.213  0.00  0.00    +0.000 NA
ATOM     24  C   UNL     1       2.889   3.968  19.713  0.00  0.00    +0.000 A 
ATOM     25  C   UNL     1       2.505   3.946  21.065  0.00  0.00    +0.000 A 
ATOM     26  C   UNL     1       1.369   3.227  21.447  0.00  0.00    +0.000 A 
ATOM     27  C   UNL     1       0.610   2.554  20.495  0.00  0.00    +0.000 A 
ATOM     28  C   UNL     1       0.961   2.582  19.141  0.00  0.00    +0.000 A 
ATOM     29  C   UNL     1       2.115   3.291  18.770  0.00  0.00    +0.000 A 
ATOM     30  S   UNL     1       2.832   3.491  17.220  0.00  0.00    +0.000 S 
ENDBRANCH  20  22
ENDBRANCH   3  16
TORSDOF 5
ENDMDL
MODEL 3
REMARK VINA RESULT:      -8.3      0.768      1.161
REMARK  Name = 
REMARK  6 active torsions:
REMARK  status: ('A' for Active; 'I' for Inactive)
REMARK    1  A    between atoms: C_1  and  O_2
REMARK    2  A    between atoms: O_2  and  C_3
REMARK    3  A    between atoms: C_6  and  C_7
REMARK    4  A    between atoms: N_9  and  C_10
REMARK    5  A    between atoms: C_14  and  C_15
REMARK    6  A    between atoms: C_26  and  N_27
REMARK                            x       y       z     vdW  Elec       q    Type
REMARK                         _______ _______ _______ _____ _____    ______ ____
ROOT
ATOM      1  C   UNL     1       1.745   8.219  19.886  0.00  0.00    +0.000 C 
ATOM      2  O   UNL     1       1.480   8.596  21.026  0.00  0.00    +0.000 OA
ATOM      3  N   UNL     1       1.589   8.953  18.727  0.00  0.00    +0.000 N 
ATOM      4  H   UNL     1       1.661   8.468  17.840  0.00  0.00    +0.000 HD
ENDROOT
BRANCH   1   8
ATOM      5  C   UNL     1       3.089   4.183  19.239  0.00  0.00    +0.000 A 
ATOM      6  C   UNL     1       3.438   5.224  18.378  0.00  0.00    +0.000 A 
ATOM      7  C   UNL     1       3.000   6.524  18.631  0.00  0.00    +0.000 A 
ATOM      8  C   UNL     1       2.194   6.813  19.741  0.00  0.00    +0.000 A 
ATOM      9  C   UNL     1       1.799   5.785  20.596  0.00  0.00    +0.000 A 
ATOM     10  C   UNL     1       2.244   4.479  20.318  0.00  0.00    +0.000 A 
BRANCH  10  11
ATOM     11  N   UNL     1       1.818   3.419  21.215  0.00  0.00    +0.000 N 
ATOM     12  O   UNL     1       2.502   3.206  22.224  0.00  0.00    +0.000 OA
ATOM     13  O   UNL     1       0.832   2.757  20.858  0.00  0.00    +0.000 OA
ENDBRANCH  10  11
BRANCH   5  15
ATOM     14  C   UNL     1       2.921   2.185  17.989  0.00  0.00    +0.000 C 
ATOM     15  O   UNL     1       3.527   2.899  19.066  0.00  0.00    +0.000 OA
ENDBRANCH   5  15
ENDBRANCH   1   8
BRANCH   3  16
ATOM     16  C   UNL     1       1.087  10.276  18.675  0.00  0.00    +0.000 A 
ATOM     17  C   UNL     1       1.898  11.403  18.539  0.00  0.00    +0.000 A 
ATOM     18  C   UNL     1       1.346  12.684  18.543  0.00  0.00    +0.000 A 
ATOM     19  C   UNL     1      -0.030  12.856  18.686  0.00  0.00    +0.000 A 
ATOM     20  C   UNL     1      -0.875  11.744  18.810  0.00  0.00    +0.000 A 
ATOM     21  C   UNL     1      -0.295  10.457  18.782  0.00  0.00    +0.000 A 
BRANCH  20  22
ATOM     22  C   UNL     1      -2.339  11.838  18.966  0.00  0.00    +0.000 A 
ATOM     23  N   UNL     1      -3.175  11.296  18.102  0.00  0.00    +0.000 NA
ATOM     24  C   UNL     1      -4.480  11.596  18.432  0.00  0.00    +0.000 A 
ATOM     25  C   UNL     1      -5.612  11.218  17.689  0.00  0.00    +0.000 A 
ATOM     26  C   UNL     1      -6.881  11.626  18.110  0.00  0.00    +0.000 A 
ATOM     27  C   UNL     1      -7.028  12.383  19.268  0.00  0.00    +0.000 A 
ATOM     28  C   UNL     1      -5.916  12.749  20.036  0.00  0.00    +0.000 A 
ATOM     29  C   UNL     1      -4.645  12.351  19.593  0.00  0.00    +0.000 A 
ATOM     30  S   UNL     1      -3.096  12.662  20.274  0.00  0.00    +0.000 S 
ENDBRANCH  20  22
ENDBRANCH   3  16
TORSDOF 5
ENDMDL
MODEL 4
REMARK VINA RESULT:      -8.2      7.665     10.339
REMARK  Name = 
REMARK  6 active torsions:
REMARK  status: ('A' for Active; 'I' for Inactive)
REMARK    1  A    between atoms: C_1  and  O_2
REMARK    2  A    between atoms: O_2  and  C_3
REMARK    3  A    between atoms: C_6  and  C_7
REMARK    4  A    between atoms: N_9  and  C_10
REMARK    5  A    between atoms: C_14  and  C_15
REMARK    6  A    between atoms: C_26  and  N_27
REMARK                            x       y       z     vdW  Elec       q    Type
REMARK                         _______ _______ _______ _____ _____    ______ ____
ROOT
ATOM      1  C   UNL     1       8.135   8.247  18.218  0.00  0.00    +0.000 C 
ATOM      2  O   UNL     1       8.573   7.432  19.028  0.00  0.00    +0.000 OA
ATOM      3  N   UNL     1       7.338   7.967  17.126  0.00  0.00    +0.000 N 
ATOM      4  H   UNL     1       7.204   8.693  16.432  0.00  0.00    +0.000 HD
ENDROOT
BRANCH   1   8
ATOM      5  C   UNL     1       9.372  12.360  18.484  0.00  0.00    +0.000 A 
ATOM      6  C   UNL     1       8.502  11.914  17.488  0.00  0.00    +0.000 A 
ATOM      7  C   UNL     1       8.108  10.577  17.446  0.00  0.00    +0.000 A 
ATOM      8  C   UNL     1       8.580   9.652  18.387  0.00  0.00    +0.000 A 
ATOM      9  C   UNL     1       9.480  10.063  19.369  0.00  0.00    +0.000 A 
ATOM     10  C   UNL     1       9.874  11.414  19.390  0.00  0.00    +0.000 A 
BRANCH  10  11
ATOM     11  N   UNL     1      10.817  11.825  20.415  0.00  0.00    +0.000 N 
ATOM     12  O   UNL     1      12.021  11.637  20.201  0.00  0.00    +0.000 OA
ATOM     13  O   UNL     1      10.331  12.271  21.465  0.00  0.00    +0.000 OA
ENDBRANCH  10  11
BRANCH   5  15
ATOM     14  C   UNL     1       8.714  14.586  18.925  0.00  0.00    +0.000 C 
ATOM     15  O   UNL     1       9.756  13.667  18.602  0.00  0.00    +0.000 OA
ENDBRANCH   5  15
ENDBRANCH   1   8
BRANCH   3  16
ATOM     16  C   UNL     1       6.898   6.670  16.765  0.00  0.00    +0.000 A 
ATOM     17  C   UNL     1       7.313   6.011  15.607  0.00  0.00    +0.000 A 
ATOM     18  C   UNL     1       6.806   4.753  15.283  0.00  0.00    +0.000 A 
ATOM     19  C   UNL     1       5.871   4.135  16.114  0.00  0.00    +0.000 A 
ATOM     20  C   UNL     1       5.445   4.764  17.291  0.00  0.00    +0.000 A 
ATOM     21  C   UNL     1       5.989   6.027  17.609  0.00  0.00    +0.000 A 
BRANCH  20  22
ATOM     22  C   UNL     1       4.462   4.181  18.224  0.00  0.00    +0.000 A 
ATOM     23  N   UNL     1       3.169   4.160  17.961  0.00  0.00    +0.000 NA
ATOM     24  C   UNL     1       2.463   3.636  19.025  0.00  0.00    +0.000 A 
ATOM     25  C   UNL     1       1.064   3.523  19.092  0.00  0.00    +0.000 A 
ATOM     26  C   UNL     1       0.468   3.014  20.251  0.00  0.00    +0.000 A 
ATOM     27  C   UNL     1       1.254   2.602  21.322  0.00  0.00    +0.000 A 
ATOM     28  C   UNL     1       2.651   2.684  21.266  0.00  0.00    +0.000 A 
ATOM     29  C   UNL     1       3.237   3.216  20.106  0.00  0.00    +0.000 A 
ATOM     30  S   UNL     1       4.895   3.484  19.737  0.00  0.00    +0.000 S 
ENDBRANCH  20  22
ENDBRANCH   3  16
TORSDOF 5
ENDMDL
MODEL 5
REMARK VINA RESULT:      -8.1      7.613     10.312
REMARK  Name = 
REMARK  6 active torsions:
REMARK  status: ('A' for Active; 'I' for Inactive)
REMARK    1  A    between atoms: C_1  and  O_2
REMARK    2  A    between atoms: O_2  and  C_3
REMARK    3  A    between atoms: C_6  and  C_7
REMARK    4  A    between atoms: N_9  and  C_10
REMARK    5  A    between atoms: C_14  and  C_15
REMARK    6  A    between atoms: C_26  and  N_27
REMARK                            x       y       z     vdW  Elec       q    Type
REMARK                         _______ _______ _______ _____ _____    ______ ____
ROOT
ATOM      1  C   UNL     1       8.215   8.412  18.255  0.00  0.00    +0.000 C 
ATOM      2  O   UNL     1       8.652   7.583  19.050  0.00  0.00    +0.000 OA
ATOM      3  N   UNL     1       7.416   8.152  17.160  0.00  0.00    +0.000 N 
ATOM      4  H   UNL     1       7.283   8.889  16.478  0.00  0.00    +0.000 HD
ENDROOT
BRANCH   1   8
ATOM      5  C   UNL     1       9.466  12.516  18.585  0.00  0.00    +0.000 A 
ATOM      6  C   UNL     1       8.618  12.083  17.566  0.00  0.00    +0.000 A 
ATOM      7  C   UNL     1       8.217  10.749  17.503  0.00  0.00    +0.000 A 
ATOM      8  C   UNL     1       8.664   9.813  18.446  0.00  0.00    +0.000 A 
ATOM      9  C   UNL     1       9.543  10.211  19.452  0.00  0.00    +0.000 A 
ATOM     10  C   UNL     1       9.943  11.560  19.493  0.00  0.00    +0.000 A 
BRANCH  10  11
ATOM     11  N   UNL     1      10.865  11.956  20.543  0.00  0.00    +0.000 N 
ATOM     12  O   UNL     1      10.396  12.515  21.543  0.00  0.00    +0.000 OA
ATOM     13  O   UNL     1      12.069  11.766  20.322  0.00  0.00    +0.000 OA
ENDBRANCH  10  11
BRANCH   5  15
ATOM     14  C   UNL     1      10.795  14.285  17.755  0.00  0.00    +0.000 C 
ATOM     15  O   UNL     1       9.855  13.820  18.723  0.00  0.00    +0.000 OA
ENDBRANCH   5  15
ENDBRANCH   1   8
BRANCH   3  16
ATOM     16  C   UNL     1       6.972   6.862  16.778  0.00  0.00    +0.000 A 
ATOM     17  C   UNL     1       7.502   6.154  15.699  0.00  0.00    +0.000 A 
ATOM     18  C   UNL     1       6.989   4.906  15.344  0.00  0.00    +0.000 A 
ATOM     19  C   UNL     1       5.934   4.348  16.065  0.00  0.00    +0.000 A 
ATOM     20  C   UNL     1       5.390   5.027  17.164  0.00  0.00    +0.000 A 
ATOM     21  C   UNL     1       5.940   6.278  17.517  0.00  0.00    +0.000 A 
BRANCH  20  22
ATOM     22  C   UNL     1       4.275   4.508  17.979  0.00  0.00    +0.000 A 
ATOM     23  N   UNL     1       3.550   3.473  17.604  0.00  0.00    +0.000 NA
ATOM     24  C   UNL     1       2.525   3.243  18.499  0.00  0.00    +0.000 A 
ATOM     25  C   UNL     1       1.540   2.249  18.366  0.00  0.00    +0.000 A 
ATOM     26  C   UNL     1       0.527   2.151  19.324  0.00  0.00    +0.000 A 
ATOM     27  C   UNL     1       0.504   3.014  20.414  0.00  0.00    +0.000 A 
ATOM     28  C   UNL     1       1.490   3.995  20.579  0.00  0.00    +0.000 A 
ATOM     29  C   UNL     1       2.491   4.098  19.599  0.00  0.00    +0.000 A 
ATOM     30  S   UNL     1       3.807   5.200  19.485  0.00  0.00    +0.000 S 
ENDBRANCH  20  22
ENDBRANCH   3  16
TORSDOF 5
ENDMDL
MODEL 6
REMARK VINA RESULT:      -8.1      1.125      1.917
REMARK  Name = 
REMARK  6 active torsions:
REMARK  status: ('A' for Active; 'I' for Inactive)
REMARK    1  A    between atoms: C_1  and  O_2
REMARK    2  A    between atoms: O_2  and  C_3
REMARK    3  A    between atoms: C_6  and  C_7
REMARK    4  A    between atoms: N_9  and  C_10
REMARK    5  A    between atoms: C_14  and  C_15
REMARK    6  A    between atoms: C_26  and  N_27
REMARK                            x       y       z     vdW  Elec       q    Type
REMARK                         _______ _______ _______ _____ _____    ______ ____
ROOT
ATOM      1  C   UNL     1       1.794   8.123  19.954  0.00  0.00    +0.000 C 
ATOM      2  O   UNL     1       1.535   8.541  21.081  0.00  0.00    +0.000 OA
ATOM      3  N   UNL     1       1.621   8.809  18.768  0.00  0.00    +0.000 N 
ATOM      4  H   UNL     1       1.689   8.291  17.901  0.00  0.00    +0.000 HD
ENDROOT
BRANCH   1   8
ATOM      5  C   UNL     1       3.017   3.998  19.883  0.00  0.00    +0.000 A 
ATOM      6  C   UNL     1       1.923   4.431  20.633  0.00  0.00    +0.000 A 
ATOM      7  C   UNL     1       1.544   5.773  20.616  0.00  0.00    +0.000 A 
ATOM      8  C   UNL     1       2.254   6.716  19.860  0.00  0.00    +0.000 A 
ATOM      9  C   UNL     1       3.374   6.318  19.132  0.00  0.00    +0.000 A 
ATOM     10  C   UNL     1       3.746   4.961  19.170  0.00  0.00    +0.000 A 
BRANCH  10  11
ATOM     11  N   UNL     1       4.919   4.564  18.412  0.00  0.00    +0.000 N 
ATOM     12  O   UNL     1       4.782   4.364  17.198  0.00  0.00    +0.000 OA
ATOM     13  O   UNL     1       5.961   4.386  19.059  0.00  0.00    +0.000 OA
ENDBRANCH  10  11
BRANCH   5  15
ATOM     14  C   UNL     1       2.728   1.889  18.858  0.00  0.00    +0.000 C 
ATOM     15  O   UNL     1       3.406   2.688  19.826  0.00  0.00    +0.000 OA
ENDBRANCH   5  15
ENDBRANCH   1   8
BRANCH   3  16
ATOM     16  C   UNL     1       1.106  10.125  18.670  0.00  0.00    +0.000 A 
ATOM     17  C   UNL     1       1.910  11.264  18.610  0.00  0.00    +0.000 A 
ATOM     18  C   UNL     1       1.342  12.536  18.562  0.00  0.00    +0.000 A 
ATOM     19  C   UNL     1      -0.044  12.688  18.576  0.00  0.00    +0.000 A 
ATOM     20  C   UNL     1      -0.880  11.564  18.620  0.00  0.00    +0.000 A 
ATOM     21  C   UNL     1      -0.281  10.286  18.646  0.00  0.00    +0.000 A 
BRANCH  20  22
ATOM     22  C   UNL     1      -2.354  11.637  18.638  0.00  0.00    +0.000 A 
ATOM     23  N   UNL     1      -3.016  12.272  19.585  0.00  0.00    +0.000 NA
ATOM     24  C   UNL     1      -4.377  12.121  19.414  0.00  0.00    +0.000 A 
ATOM     25  C   UNL     1      -5.364  12.626  20.279  0.00  0.00    +0.000 A 
ATOM     26  C   UNL     1      -6.711  12.364  20.015  0.00  0.00    +0.000 A 
ATOM     27  C   UNL     1      -7.077  11.627  18.893  0.00  0.00    +0.000 A 
ATOM     28  C   UNL     1      -6.112  11.136  18.006  0.00  0.00    +0.000 A 
ATOM     29  C   UNL     1      -4.761  11.388  18.292  0.00  0.00    +0.000 A 
ATOM     30  S   UNL     1      -3.348  10.902  17.440  0.00  0.00    +0.000 S 
ENDBRANCH  20  22
ENDBRANCH   3  16
TORSDOF 5
ENDMDL
MODEL 7
REMARK VINA RESULT:      -8.0      1.622      2.281
REMARK  Name = 
REMARK  6 active torsions:
REMARK  status: ('A' for Active; 'I' for Inactive)
REMARK    1  A    between atoms: C_1  and  O_2
REMARK    2  A    between atoms: O_2  and  C_3
REMARK    3  A    between atoms: C_6  and  C_7
REMARK    4  A    between atoms: N_9  and  C_10
REMARK    5  A    between atoms: C_14  and  C_15
REMARK    6  A    between atoms: C_26  and  N_27
REMARK                            x       y       z     vdW  Elec       q    Type
REMARK                         _______ _______ _______ _____ _____    ______ ____
ROOT
ATOM      1  C   UNL     1       2.166   8.422  18.126  0.00  0.00    +0.000 C 
ATOM      2  O   UNL     1       2.507   8.872  17.034  0.00  0.00    +0.000 OA
ATOM      3  N   UNL     1       1.386   9.064  19.067  0.00  0.00    +0.000 N 
ATOM      4  H   UNL     1       1.336   8.669  19.998  0.00  0.00    +0.000 HD
ENDROOT
BRANCH   1   8
ATOM      5  C   UNL     1       3.704   4.619  19.425  0.00  0.00    +0.000 A 
ATOM      6  C   UNL     1       2.743   5.315  20.158  0.00  0.00    +0.000 A 
ATOM      7  C   UNL     1       2.253   6.537  19.695  0.00  0.00    +0.000 A 
ATOM      8  C   UNL     1       2.719   7.097  18.498  0.00  0.00    +0.000 A 
ATOM      9  C   UNL     1       3.707   6.440  17.765  0.00  0.00    +0.000 A 
ATOM     10  C   UNL     1       4.196   5.214  18.254  0.00  0.00    +0.000 A 
BRANCH  10  11
ATOM     11  N   UNL     1       5.229   4.546  17.483  0.00  0.00    +0.000 N 
ATOM     12  O   UNL     1       6.408   4.750  17.799  0.00  0.00    +0.000 OA
ATOM     13  O   UNL     1       4.848   3.873  16.515  0.00  0.00    +0.000 OA
ENDBRANCH  10  11
BRANCH   5  15
ATOM     14  C   UNL     1       3.357   2.282  19.483  0.00  0.00    +0.000 C 
ATOM     15  O   UNL     1       4.187   3.397  19.807  0.00  0.00    +0.000 OA
ENDBRANCH   5  15
ENDBRANCH   1   8
BRANCH   3  16
ATOM     16  C   UNL     1       0.853  10.368  18.913  0.00  0.00    +0.000 A 
ATOM     17  C   UNL     1       1.641  11.514  18.807  0.00  0.00    +0.000 A 
ATOM     18  C   UNL     1       1.056  12.775  18.705  0.00  0.00    +0.000 A 
ATOM     19  C   UNL     1      -0.333  12.909  18.711  0.00  0.00    +0.000 A 
ATOM     20  C   UNL     1      -1.153  11.776  18.802  0.00  0.00    +0.000 A 
ATOM     21  C   UNL     1      -0.537  10.509  18.882  0.00  0.00    +0.000 A 
BRANCH  20  22
ATOM     22  C   UNL     1      -2.627  11.829  18.815  0.00  0.00    +0.000 A 
ATOM     23  N   UNL     1      -3.302  12.424  19.780  0.00  0.00    +0.000 NA
ATOM     24  C   UNL     1      -4.660  12.262  19.598  0.00  0.00    +0.000 A 
ATOM     25  C   UNL     1      -5.657  12.725  20.474  0.00  0.00    +0.000 A 
ATOM     26  C   UNL     1      -7.000  12.454  20.195  0.00  0.00    +0.000 A 
ATOM     27  C   UNL     1      -7.351  11.750  19.049  0.00  0.00    +0.000 A 
ATOM     28  C   UNL     1      -6.376  11.300  18.151  0.00  0.00    +0.000 A 
ATOM     29  C   UNL     1      -5.030  11.560  18.451  0.00  0.00    +0.000 A 
ATOM     30  S   UNL     1      -3.607  11.120  17.589  0.00  0.00    +0.000 S 
ENDBRANCH  20  22
ENDBRANCH   3  16
TORSDOF 5
ENDMDL
MODEL 8
REMARK VINA RESULT:      -8.0      1.791      2.170
REMARK  Name = 
REMARK  6 active torsions:
REMARK  status: ('A' for Active; 'I' for Inactive)
REMARK    1  A    between atoms: C_1  and  O_2
REMARK    2  A    between atoms: O_2  and  C_3
REMARK    3  A    between atoms: C_6  and  C_7
REMARK    4  A    between atoms: N_9  and  C_10
REMARK    5  A    between atoms: C_14  and  C_15
REMARK    6  A    between atoms: C_26  and  N_27
REMARK                            x       y       z     vdW  Elec       q    Type
REMARK                         _______ _______ _______ _____ _____    ______ ____
ROOT
ATOM      1  C   UNL     1       2.137   7.883  18.913  0.00  0.00    +0.000 C 
ATOM      2  O   UNL     1       1.961   8.044  20.119  0.00  0.00    +0.000 OA
ATOM      3  N   UNL     1       1.869   8.803  17.919  0.00  0.00    +0.000 N 
ATOM      4  H   UNL     1       1.875   8.484  16.958  0.00  0.00    +0.000 HD
ENDROOT
BRANCH   1   8
ATOM      5  C   UNL     1       3.267   3.905  17.727  0.00  0.00    +0.000 A 
ATOM      6  C   UNL     1       1.931   4.298  17.810  0.00  0.00    +0.000 A 
ATOM      7  C   UNL     1       1.603   5.603  18.179  0.00  0.00    +0.000 A 
ATOM      8  C   UNL     1       2.599   6.541  18.485  0.00  0.00    +0.000 A 
ATOM      9  C   UNL     1       3.941   6.163  18.448  0.00  0.00    +0.000 A 
ATOM     10  C   UNL     1       4.250   4.839  18.082  0.00  0.00    +0.000 A 
BRANCH  10  11
ATOM     11  N   UNL     1       5.652   4.460  18.054  0.00  0.00    +0.000 N 
ATOM     12  O   UNL     1       6.238   4.495  16.965  0.00  0.00    +0.000 OA
ATOM     13  O   UNL     1       6.137   4.058  19.122  0.00  0.00    +0.000 OA
ENDBRANCH  10  11
BRANCH   5  15
ATOM     14  C   UNL     1       3.466   1.619  18.294  0.00  0.00    +0.000 C 
ATOM     15  O   UNL     1       3.648   2.653  17.327  0.00  0.00    +0.000 OA
ENDBRANCH   5  15
ENDBRANCH   1   8
BRANCH   3  16
ATOM     16  C   UNL     1       1.337  10.097  18.144  0.00  0.00    +0.000 A 
ATOM     17  C   UNL     1       2.128  11.228  18.352  0.00  0.00    +0.000 A 
ATOM     18  C   UNL     1       1.544  12.466  18.617  0.00  0.00    +0.000 A 
ATOM     19  C   UNL     1       0.156  12.591  18.678  0.00  0.00    +0.000 A 
ATOM     20  C   UNL     1      -0.666  11.478  18.458  0.00  0.00    +0.000 A 
ATOM     21  C   UNL     1      -0.052  10.240  18.171  0.00  0.00    +0.000 A 
BRANCH  20  22
ATOM     22  C   UNL     1      -2.140  11.524  18.505  0.00  0.00    +0.000 A 
ATOM     23  N   UNL     1      -2.795  12.186  19.439  0.00  0.00    +0.000 NA
ATOM     24  C   UNL     1      -4.155  12.003  19.305  0.00  0.00    +0.000 A 
ATOM     25  C   UNL     1      -5.133  12.526  20.169  0.00  0.00    +0.000 A 
ATOM     26  C   UNL     1      -6.481  12.227  19.946  0.00  0.00    +0.000 A 
ATOM     27  C   UNL     1      -6.856  11.436  18.865  0.00  0.00    +0.000 A 
ATOM     28  C   UNL     1      -5.900  10.925  17.979  0.00  0.00    +0.000 A 
ATOM     29  C   UNL     1      -4.548  11.214  18.224  0.00  0.00    +0.000 A 
ATOM     30  S   UNL     1      -3.144  10.719  17.362  0.00  0.00    +0.000 S 
ENDBRANCH  20  22
ENDBRANCH   3  16
TORSDOF 5
ENDMDL
MODEL 9
REMARK VINA RESULT:      -8.0      1.349      2.161
REMARK  Name = 
REMARK  6 active torsions:
REMARK  status: ('A' for Active; 'I' for Inactive)
REMARK    1  A    between atoms: C_1  and  O_2
REMARK    2  A    between atoms: O_2  and  C_3
REMARK    3  A    between atoms: C_6  and  C_7
REMARK    4  A    between atoms: N_9  and  C_10
REMARK    5  A    between atoms: C_14  and  C_15
REMARK    6  A    between atoms: C_26  and  N_27
REMARK                            x       y       z     vdW  Elec       q    Type
REMARK                         _______ _______ _______ _____ _____    ______ ____
ROOT
ATOM      1  C   UNL     1       1.793   8.122  19.997  0.00  0.00    +0.000 C 
ATOM      2  O   UNL     1       1.518   8.537  21.121  0.00  0.00    +0.000 OA
ATOM      3  N   UNL     1       1.661   8.821  18.813  0.00  0.00    +0.000 N 
ATOM      4  H   UNL     1       1.737   8.308  17.944  0.00  0.00    +0.000 HD
ENDROOT
BRANCH   1   8
ATOM      5  C   UNL     1       2.937   3.975  19.920  0.00  0.00    +0.000 A 
ATOM      6  C   UNL     1       1.853   4.427  20.673  0.00  0.00    +0.000 A 
ATOM      7  C   UNL     1       1.499   5.777  20.657  0.00  0.00    +0.000 A 
ATOM      8  C   UNL     1       2.226   6.707  19.901  0.00  0.00    +0.000 A 
ATOM      9  C   UNL     1       3.337   6.287  19.171  0.00  0.00    +0.000 A 
ATOM     10  C   UNL     1       3.683   4.924  19.207  0.00  0.00    +0.000 A 
BRANCH  10  11
ATOM     11  N   UNL     1       4.847   4.505  18.446  0.00  0.00    +0.000 N 
ATOM     12  O   UNL     1       5.916   4.366  19.054  0.00  0.00    +0.000 OA
ATOM     13  O   UNL     1       4.693   4.386  17.222  0.00  0.00    +0.000 OA
ENDBRANCH  10  11
BRANCH   5  15
ATOM     14  C   UNL     1       2.644   1.884  18.858  0.00  0.00    +0.000 C 
ATOM     15  O   UNL     1       3.301   2.657  19.862  0.00  0.00    +0.000 OA
ENDBRANCH   5  15
ENDBRANCH   1   8
BRANCH   3  16
ATOM     16  C   UNL     1       1.175  10.148  18.715  0.00  0.00    +0.000 A 
ATOM     17  C   UNL     1       2.001  11.259  18.540  0.00  0.00    +0.000 A 
ATOM     18  C   UNL     1       1.466  12.546  18.499  0.00  0.00    +0.000 A 
ATOM     19  C   UNL     1       0.092  12.741  18.634  0.00  0.00    +0.000 A 
ATOM     20  C   UNL     1      -0.767  11.645  18.796  0.00  0.00    +0.000 A 
ATOM     21  C   UNL     1      -0.204  10.351  18.813  0.00  0.00    +0.000 A 
BRANCH  20  22
ATOM     22  C   UNL     1      -2.230  11.764  18.946  0.00  0.00    +0.000 A 
ATOM     23  N   UNL     1      -3.072  11.213  18.093  0.00  0.00    +0.000 NA
ATOM     24  C   UNL     1      -4.374  11.539  18.413  0.00  0.00    +0.000 A 
ATOM     25  C   UNL     1      -5.510  11.160  17.676  0.00  0.00    +0.000 A 
ATOM     26  C   UNL     1      -6.774  11.596  18.084  0.00  0.00    +0.000 A 
ATOM     27  C   UNL     1      -6.911  12.382  19.224  0.00  0.00    +0.000 A 
ATOM     28  C   UNL     1      -5.797  12.750  19.986  0.00  0.00    +0.000 A 
ATOM     29  C   UNL     1      -4.530  12.324  19.555  0.00  0.00    +0.000 A 
ATOM     30  S   UNL     1      -2.978  12.629  20.232  0.00  0.00    +0.000 S 
ENDBRANCH  20  22
ENDBRANCH   3  16
TORSDOF 5
ENDMDL
