MODEL 1
REMARK VINA RESULT:      -5.9      0.000      0.000
REMARK  Name = 
REMARK  6 active torsions:
REMARK  status: ('A' for Active; 'I' for Inactive)
REMARK    1  A    between atoms: C_1  and  O_2
REMARK    2  A    between atoms: O_2  and  C_3
REMARK    3  A    between atoms: C_8  and  N_9
REMARK    4  A    between atoms: C_11  and  C_12
REMARK    5  A    between atoms: C_11  and  C_13
REMARK    6  A    between atoms: C_17  and  C_19
REMARK                            x       y       z     vdW  Elec       q    Type
REMARK                         _______ _______ _______ _____ _____    ______ ____
ROOT
ATOM      1  N   UNL     1      -0.095  11.917  21.113  0.00  0.00    +0.000 N 
ATOM      2  C   UNL     1       0.685  13.163  21.085  0.00  0.00    +0.000 C 
ATOM      3  C   UNL     1      -0.197  14.355  21.426  0.00  0.00    +0.000 C 
ATOM      4  C   UNL     1      -1.191  14.625  20.278  0.00  0.00    +0.000 C 
ATOM      5  C   UNL     1       0.626  15.634  21.661  0.00  0.00    +0.000 C 
ATOM      6  C   UNL     1      -0.862  13.945  22.737  0.00  0.00    +0.000 C 
ATOM      7  O   UNL     1      -0.609  14.523  23.797  0.00  0.00    +0.000 OA
ATOM      8  N   UNL     1      -1.620  12.812  22.683  0.00  0.00    +0.000 N 
ATOM      9  C   UNL     1      -2.877  12.789  23.330  0.00  0.00    +0.000 C 
ATOM     10  O   UNL     1      -3.348  11.799  23.891  0.00  0.00    +0.000 OA
ATOM     11  C   UNL     1      -0.907  11.673  22.253  0.00  0.00    +0.000 C 
ATOM     12  S   UNL     1      -0.799  10.209  23.097  0.00  0.00    +0.000 S 
ENDROOT
BRANCH   9  13
ATOM     13  C   UNL     1      -3.770  14.032  23.329  0.00  0.00    +0.000 A 
ATOM     14  C   UNL     1      -3.975  14.909  24.408  0.00  0.00    +0.000 A 
ATOM     15  C   UNL     1      -4.728  16.077  24.296  0.00  0.00    +0.000 A 
ATOM     16  C   UNL     1      -5.339  16.392  23.095  0.00  0.00    +0.000 A 
ATOM     17 CL   UNL     1      -6.262  17.832  22.969  0.00  0.00    +0.000 Cl
ATOM     18  C   UNL     1      -5.195  15.536  22.005  0.00  0.00    +0.000 A 
ATOM     19  C   UNL     1      -4.415  14.369  22.124  0.00  0.00    +0.000 A 
ENDBRANCH   9  13
BRANCH   1  25
ATOM     20  C   UNL     1      -1.251  10.936  19.095  0.00  0.00    +0.000 A 
ATOM     21  C   UNL     1      -1.164  10.187  17.907  0.00  0.00    +0.000 A 
ATOM     22  C   UNL     1       0.008   9.523  17.565  0.00  0.00    +0.000 A 
ATOM     23  C   UNL     1       1.113   9.613  18.399  0.00  0.00    +0.000 A 
ATOM     24  C   UNL     1       1.049  10.378  19.567  0.00  0.00    +0.000 A 
ATOM     25  C   UNL     1      -0.119  11.069  19.938  0.00  0.00    +0.000 A 
BRANCH  20  27
ATOM     26  C   UNL     1      -3.364  11.618  18.305  0.00  0.00    +0.000 C 
ATOM     27  O   UNL     1      -2.400  11.639  19.368  0.00  0.00    +0.000 OA
ENDBRANCH  20  27
ENDBRANCH   1  25
TORSDOF 3
ENDMDL
MODEL 2
REMARK VINA RESULT:      -5.8      1.135      1.869
REMARK  Name = 
REMARK  6 active torsions:
REMARK  status: ('A' for Active; 'I' for Inactive)
REMARK    1  A    between atoms: C_1  and  O_2
REMARK    2  A    between atoms: O_2  and  C_3
REMARK    3  A    between atoms: C_8  and  N_9
REMARK    4  A    between atoms: C_11  and  C_12
REMARK    5  A    between atoms: C_11  and  C_13
REMARK    6  A    between atoms: C_17  and  C_19
REMARK                            x       y       z     vdW  Elec       q    Type
REMARK                         _______ _______ _______ _____ _____    ______ ____
ROOT
ATOM      1  N   UNL     1      -0.607  12.511  20.969  0.00  0.00    +0.000 N 
ATOM      2  C   UNL     1       0.243  13.707  20.882  0.00  0.00    +0.000 C 
ATOM      3  C   UNL     1      -0.487  14.924  21.429  0.00  0.00    +0.000 C 
ATOM      4  C   UNL     1      -1.632  15.328  20.477  0.00  0.00    +0.000 C 
ATOM      5  C   UNL     1       0.449  16.134  21.594  0.00  0.00    +0.000 C 
ATOM      6  C   UNL     1      -0.959  14.470  22.807  0.00  0.00    +0.000 C 
ATOM      7  O   UNL     1      -0.500  14.961  23.841  0.00  0.00    +0.000 OA
ATOM      8  N   UNL     1      -1.793  13.389  22.817  0.00  0.00    +0.000 N 
ATOM      9  C   UNL     1      -2.927  13.399  23.659  0.00  0.00    +0.000 C 
ATOM     10  O   UNL     1      -3.369  12.404  24.236  0.00  0.00    +0.000 OA
ATOM     11  C   UNL     1      -1.239  12.241  22.212  0.00  0.00    +0.000 C 
ATOM     12  S   UNL     1      -1.098  10.721  22.946  0.00  0.00    +0.000 S 
ENDROOT
BRANCH   9  13
ATOM     13  C   UNL     1      -3.721  14.690  23.875  0.00  0.00    +0.000 A 
ATOM     14  C   UNL     1      -3.618  15.554  24.977  0.00  0.00    +0.000 A 
ATOM     15  C   UNL     1      -4.305  16.766  25.052  0.00  0.00    +0.000 A 
ATOM     16  C   UNL     1      -5.158  17.139  24.028  0.00  0.00    +0.000 A 
ATOM     17 CL   UNL     1      -5.997  18.631  24.129  0.00  0.00    +0.000 Cl
ATOM     18  C   UNL     1      -5.321  16.299  22.927  0.00  0.00    +0.000 A 
ATOM     19  C   UNL     1      -4.605  15.088  22.854  0.00  0.00    +0.000 A 
ENDBRANCH   9  13
BRANCH   1  25
ATOM     20  C   UNL     1      -0.028  10.716  19.292  0.00  0.00    +0.000 A 
ATOM     21  C   UNL     1      -0.414   9.935  18.188  0.00  0.00    +0.000 A 
ATOM     22  C   UNL     1      -1.603  10.188  17.514  0.00  0.00    +0.000 A 
ATOM     23  C   UNL     1      -2.428  11.215  17.946  0.00  0.00    +0.000 A 
ATOM     24  C   UNL     1      -2.071  11.980  19.061  0.00  0.00    +0.000 A 
ATOM     25  C   UNL     1      -0.878  11.744  19.770  0.00  0.00    +0.000 A 
BRANCH  20  27
ATOM     26  C   UNL     1       1.138   9.050  20.482  0.00  0.00    +0.000 C 
ATOM     27  O   UNL     1       1.117  10.394  19.980  0.00  0.00    +0.000 OA
ENDBRANCH  20  27
ENDBRANCH   1  25
TORSDOF 3
ENDMDL
MODEL 3
REMARK VINA RESULT:      -5.6      7.787      9.601
REMARK  Name = 
REMARK  6 active torsions:
REMARK  status: ('A' for Active; 'I' for Inactive)
REMARK    1  A    between atoms: C_1  and  O_2
REMARK    2  A    between atoms: O_2  and  C_3
REMARK    3  A    between atoms: C_8  and  N_9
REMARK    4  A    between atoms: C_11  and  C_12
REMARK    5  A    between atoms: C_11  and  C_13
REMARK    6  A    between atoms: C_17  and  C_19
REMARK                            x       y       z     vdW  Elec       q    Type
REMARK                         _______ _______ _______ _____ _____    ______ ____
ROOT
ATOM      1  N   UNL     1       8.808  14.675  20.543  0.00  0.00    +0.000 N 
ATOM      2  C   UNL     1       9.258  16.059  20.335  0.00  0.00    +0.000 C 
ATOM      3  C   UNL     1       8.162  16.888  19.684  0.00  0.00    +0.000 C 
ATOM      4  C   UNL     1       7.956  16.441  18.222  0.00  0.00    +0.000 C 
ATOM      5  C   UNL     1       8.495  18.390  19.685  0.00  0.00    +0.000 C 
ATOM      6  C   UNL     1       6.951  16.648  20.581  0.00  0.00    +0.000 C 
ATOM      7  O   UNL     1       6.469  17.550  21.271  0.00  0.00    +0.000 OA
ATOM      8  N   UNL     1       6.546  15.349  20.688  0.00  0.00    +0.000 N 
ATOM      9  C   UNL     1       5.166  15.049  20.631  0.00  0.00    +0.000 C 
ATOM     10  O   UNL     1       4.625  14.155  21.284  0.00  0.00    +0.000 OA
ATOM     11  C   UNL     1       7.547  14.480  21.170  0.00  0.00    +0.000 C 
ATOM     12  S   UNL     1       7.393  13.458  22.511  0.00  0.00    +0.000 S 
ENDROOT
BRANCH   9  13
ATOM     13  C   UNL     1       4.242  15.823  19.687  0.00  0.00    +0.000 A 
ATOM     14  C   UNL     1       4.257  15.771  18.284  0.00  0.00    +0.000 A 
ATOM     15  C   UNL     1       3.315  16.432  17.495  0.00  0.00    +0.000 A 
ATOM     16  C   UNL     1       2.336  17.206  18.094  0.00  0.00    +0.000 A 
ATOM     17 CL   UNL     1       1.182  18.013  17.115  0.00  0.00    +0.000 Cl
ATOM     18  C   UNL     1       2.300  17.317  19.483  0.00  0.00    +0.000 A 
ATOM     19  C   UNL     1       3.244  16.628  20.269  0.00  0.00    +0.000 A 
ENDBRANCH   9  13
BRANCH   1  25
ATOM     20  C   UNL     1       9.296  12.986  18.733  0.00  0.00    +0.000 A 
ATOM     21  C   UNL     1      10.161  12.012  18.201  0.00  0.00    +0.000 A 
ATOM     22  C   UNL     1      11.275  11.582  18.910  0.00  0.00    +0.000 A 
ATOM     23  C   UNL     1      11.548  12.131  20.154  0.00  0.00    +0.000 A 
ATOM     24  C   UNL     1      10.713  13.121  20.682  0.00  0.00    +0.000 A 
ATOM     25  C   UNL     1       9.582  13.585  19.986  0.00  0.00    +0.000 A 
BRANCH  20  27
ATOM     26  C   UNL     1       7.661  12.444  17.126  0.00  0.00    +0.000 C 
ATOM     27  O   UNL     1       8.244  13.442  17.975  0.00  0.00    +0.000 OA
ENDBRANCH  20  27
ENDBRANCH   1  25
TORSDOF 3
ENDMDL
MODEL 4
REMARK VINA RESULT:      -5.6      0.843      1.310
REMARK  Name = 
REMARK  6 active torsions:
REMARK  status: ('A' for Active; 'I' for Inactive)
REMARK    1  A    between atoms: C_1  and  O_2
REMARK    2  A    between atoms: O_2  and  C_3
REMARK    3  A    between atoms: C_8  and  N_9
REMARK    4  A    between atoms: C_11  and  C_12
REMARK    5  A    between atoms: C_11  and  C_13
REMARK    6  A    between atoms: C_17  and  C_19
REMARK                            x       y       z     vdW  Elec       q    Type
REMARK                         _______ _______ _______ _____ _____    ______ ____
ROOT
ATOM      1  N   UNL     1      -0.565  12.336  21.018  0.00  0.00    +0.000 N 
ATOM      2  C   UNL     1       0.325  13.498  20.874  0.00  0.00    +0.000 C 
ATOM      3  C   UNL     1      -0.379  14.770  21.322  0.00  0.00    +0.000 C 
ATOM      4  C   UNL     1      -1.488  15.145  20.317  0.00  0.00    +0.000 C 
ATOM      5  C   UNL     1       0.592  15.959  21.432  0.00  0.00    +0.000 C 
ATOM      6  C   UNL     1      -0.897  14.422  22.715  0.00  0.00    +0.000 C 
ATOM      7  O   UNL     1      -0.446  14.966  23.725  0.00  0.00    +0.000 OA
ATOM      8  N   UNL     1      -1.764  13.370  22.774  0.00  0.00    +0.000 N 
ATOM      9  C   UNL     1      -2.917  13.470  23.585  0.00  0.00    +0.000 C 
ATOM     10  O   UNL     1      -3.404  12.529  24.214  0.00  0.00    +0.000 OA
ATOM     11  C   UNL     1      -1.233  12.168  22.260  0.00  0.00    +0.000 C 
ATOM     12  S   UNL     1      -1.159  10.696  23.094  0.00  0.00    +0.000 S 
ENDROOT
BRANCH   9  13
ATOM     13  C   UNL     1      -3.674  14.796  23.696  0.00  0.00    +0.000 A 
ATOM     14  C   UNL     1      -4.536  15.344  22.732  0.00  0.00    +0.000 A 
ATOM     15  C   UNL     1      -5.267  16.511  22.951  0.00  0.00    +0.000 A 
ATOM     16  C   UNL     1      -5.129  17.197  24.145  0.00  0.00    +0.000 A 
ATOM     17 CL   UNL     1      -6.034  18.631  24.405  0.00  0.00    +0.000 Cl
ATOM     18  C   UNL     1      -4.260  16.713  25.121  0.00  0.00    +0.000 A 
ATOM     19  C   UNL     1      -3.543  15.521  24.896  0.00  0.00    +0.000 A 
ENDBRANCH   9  13
BRANCH   1  25
ATOM     20  C   UNL     1      -2.065  11.511  19.163  0.00  0.00    +0.000 A 
ATOM     21  C   UNL     1      -2.213  10.761  17.983  0.00  0.00    +0.000 A 
ATOM     22  C   UNL     1      -1.181   9.959  17.512  0.00  0.00    +0.000 A 
ATOM     23  C   UNL     1       0.018   9.909  18.207  0.00  0.00    +0.000 A 
ATOM     24  C   UNL     1       0.189  10.672  19.366  0.00  0.00    +0.000 A 
ATOM     25  C   UNL     1      -0.833  11.501  19.864  0.00  0.00    +0.000 A 
BRANCH  20  27
ATOM     26  C   UNL     1      -4.358  12.029  19.001  0.00  0.00    +0.000 C 
ATOM     27  O   UNL     1      -3.078  12.350  19.562  0.00  0.00    +0.000 OA
ENDBRANCH  20  27
ENDBRANCH   1  25
TORSDOF 3
ENDMDL
MODEL 5
REMARK VINA RESULT:      -5.6      3.308      4.937
REMARK  Name = 
REMARK  6 active torsions:
REMARK  status: ('A' for Active; 'I' for Inactive)
REMARK    1  A    between atoms: C_1  and  O_2
REMARK    2  A    between atoms: O_2  and  C_3
REMARK    3  A    between atoms: C_8  and  N_9
REMARK    4  A    between atoms: C_11  and  C_12
REMARK    5  A    between atoms: C_11  and  C_13
REMARK    6  A    between atoms: C_17  and  C_19
REMARK                            x       y       z     vdW  Elec       q    Type
REMARK                         _______ _______ _______ _____ _____    ______ ____
ROOT
ATOM      1  N   UNL     1       0.468  15.971  19.953  0.00  0.00    +0.000 N 
ATOM      2  C   UNL     1       0.752  16.504  21.293  0.00  0.00    +0.000 C 
ATOM      3  C   UNL     1      -0.427  16.271  22.225  0.00  0.00    +0.000 C 
ATOM      4  C   UNL     1      -1.613  17.170  21.815  0.00  0.00    +0.000 C 
ATOM      5  C   UNL     1      -0.075  16.578  23.691  0.00  0.00    +0.000 C 
ATOM      6  C   UNL     1      -0.706  14.777  22.084  0.00  0.00    +0.000 C 
ATOM      7  O   UNL     1      -0.515  13.994  23.017  0.00  0.00    +0.000 OA
ATOM      8  N   UNL     1      -1.021  14.354  20.825  0.00  0.00    +0.000 N 
ATOM      9  C   UNL     1      -2.081  13.435  20.650  0.00  0.00    +0.000 C 
ATOM     10  O   UNL     1      -2.090  12.543  19.801  0.00  0.00    +0.000 OA
ATOM     11  C   UNL     1      -0.029  14.643  19.865  0.00  0.00    +0.000 C 
ATOM     12  S   UNL     1       0.705  13.507  18.845  0.00  0.00    +0.000 S 
ENDROOT
BRANCH   9  13
ATOM     13  C   UNL     1      -3.340  13.531  21.515  0.00  0.00    +0.000 A 
ATOM     14  C   UNL     1      -3.645  12.734  22.631  0.00  0.00    +0.000 A 
ATOM     15  C   UNL     1      -4.769  12.951  23.428  0.00  0.00    +0.000 A 
ATOM     16  C   UNL     1      -5.656  13.964  23.107  0.00  0.00    +0.000 A 
ATOM     17 CL   UNL     1      -7.035  14.223  24.094  0.00  0.00    +0.000 Cl
ATOM     18  C   UNL     1      -5.416  14.761  21.989  0.00  0.00    +0.000 A 
ATOM     19  C   UNL     1      -4.267  14.545  21.204  0.00  0.00    +0.000 A 
ENDBRANCH   9  13
BRANCH   1  25
ATOM     20  C   UNL     1       1.775  17.079  18.100  0.00  0.00    +0.000 A 
ATOM     21  C   UNL     1       1.771  17.851  16.924  0.00  0.00    +0.000 A 
ATOM     22  C   UNL     1       0.603  18.442  16.461  0.00  0.00    +0.000 A 
ATOM     23  C   UNL     1      -0.581  18.256  17.159  0.00  0.00    +0.000 A 
ATOM     24  C   UNL     1      -0.598  17.468  18.313  0.00  0.00    +0.000 A 
ATOM     25  C   UNL     1       0.566  16.848  18.804  0.00  0.00    +0.000 A 
BRANCH  20  27
ATOM     26  C   UNL     1       3.553  15.674  17.457  0.00  0.00    +0.000 C 
ATOM     27  O   UNL     1       2.931  16.448  18.492  0.00  0.00    +0.000 OA
ENDBRANCH  20  27
ENDBRANCH   1  25
TORSDOF 3
ENDMDL
MODEL 6
REMARK VINA RESULT:      -5.5      3.981      7.519
REMARK  Name = 
REMARK  6 active torsions:
REMARK  status: ('A' for Active; 'I' for Inactive)
REMARK    1  A    between atoms: C_1  and  O_2
REMARK    2  A    between atoms: O_2  and  C_3
REMARK    3  A    between atoms: C_8  and  N_9
REMARK    4  A    between atoms: C_11  and  C_12
REMARK    5  A    between atoms: C_11  and  C_13
REMARK    6  A    between atoms: C_17  and  C_19
REMARK                            x       y       z     vdW  Elec       q    Type
REMARK                         _______ _______ _______ _____ _____    ______ ____
ROOT
ATOM      1  N   UNL     1      -1.040  12.884  20.983  0.00  0.00    +0.000 N 
ATOM      2  C   UNL     1      -1.657  12.952  19.650  0.00  0.00    +0.000 C 
ATOM      3  C   UNL     1      -0.990  11.969  18.701  0.00  0.00    +0.000 C 
ATOM      4  C   UNL     1       0.441  12.440  18.367  0.00  0.00    +0.000 C 
ATOM      5  C   UNL     1      -1.768  11.823  17.381  0.00  0.00    +0.000 C 
ATOM      6  C   UNL     1      -1.045  10.645  19.458  0.00  0.00    +0.000 C 
ATOM      7  O   UNL     1      -1.744   9.707  19.068  0.00  0.00    +0.000 OA
ATOM      8  N   UNL     1      -0.404  10.629  20.663  0.00  0.00    +0.000 N 
ATOM      9  C   UNL     1       0.393   9.514  21.007  0.00  0.00    +0.000 C 
ATOM     10  O   UNL     1       0.497   9.064  22.149  0.00  0.00    +0.000 OA
ATOM     11  C   UNL     1      -0.879  11.600  21.569  0.00  0.00    +0.000 C 
ATOM     12  S   UNL     1      -1.439  11.285  23.136  0.00  0.00    +0.000 S 
ENDROOT
BRANCH   9  13
ATOM     13  C   UNL     1       1.234   8.806  19.942  0.00  0.00    +0.000 A 
ATOM     14  C   UNL     1       1.588   9.321  18.684  0.00  0.00    +0.000 A 
ATOM     15  C   UNL     1       2.443   8.651  17.809  0.00  0.00    +0.000 A 
ATOM     16  C   UNL     1       2.950   7.410  18.154  0.00  0.00    +0.000 A 
ATOM     17 CL   UNL     1       4.002   6.596  17.072  0.00  0.00    +0.000 Cl
ATOM     18  C   UNL     1       2.602   6.841  19.378  0.00  0.00    +0.000 A 
ATOM     19  C   UNL     1       1.754   7.536  20.262  0.00  0.00    +0.000 A 
ENDBRANCH   9  13
BRANCH   1  25
ATOM     20  C   UNL     1       0.888  14.318  21.757  0.00  0.00    +0.000 A 
ATOM     21  C   UNL     1       1.345  15.560  22.232  0.00  0.00    +0.000 A 
ATOM     22  C   UNL     1       0.451  16.564  22.582  0.00  0.00    +0.000 A 
ATOM     23  C   UNL     1      -0.911  16.344  22.448  0.00  0.00    +0.000 A 
ATOM     24  C   UNL     1      -1.379  15.124  21.949  0.00  0.00    +0.000 A 
ATOM     25  C   UNL     1      -0.500  14.091  21.577  0.00  0.00    +0.000 A 
BRANCH  20  27
ATOM     26  C   UNL     1       3.057  13.918  20.928  0.00  0.00    +0.000 C 
ATOM     27  O   UNL     1       1.799  13.372  21.350  0.00  0.00    +0.000 OA
ENDBRANCH  20  27
ENDBRANCH   1  25
TORSDOF 3
ENDMDL
MODEL 7
REMARK VINA RESULT:      -5.5      3.244      6.072
REMARK  Name = 
REMARK  6 active torsions:
REMARK  status: ('A' for Active; 'I' for Inactive)
REMARK    1  A    between atoms: C_1  and  O_2
REMARK    2  A    between atoms: O_2  and  C_3
REMARK    3  A    between atoms: C_8  and  N_9
REMARK    4  A    between atoms: C_11  and  C_12
REMARK    5  A    between atoms: C_11  and  C_13
REMARK    6  A    between atoms: C_17  and  C_19
REMARK                            x       y       z     vdW  Elec       q    Type
REMARK                         _______ _______ _______ _____ _____    ______ ____
ROOT
ATOM      1  N   UNL     1      -2.215  13.547  23.421  0.00  0.00    +0.000 N 
ATOM      2  C   UNL     1      -1.458  12.427  22.842  0.00  0.00    +0.000 C 
ATOM      3  C   UNL     1      -0.720  12.869  21.589  0.00  0.00    +0.000 C 
ATOM      4  C   UNL     1      -1.724  13.142  20.449  0.00  0.00    +0.000 C 
ATOM      5  C   UNL     1       0.282  11.806  21.102  0.00  0.00    +0.000 C 
ATOM      6  C   UNL     1       0.051  14.105  22.044  0.00  0.00    +0.000 C 
ATOM      7  O   UNL     1       1.282  14.110  22.111  0.00  0.00    +0.000 OA
ATOM      8  N   UNL     1      -0.713  15.133  22.516  0.00  0.00    +0.000 N 
ATOM      9  C   UNL     1      -0.408  16.457  22.125  0.00  0.00    +0.000 C 
ATOM     10  O   UNL     1      -0.530  17.440  22.857  0.00  0.00    +0.000 OA
ATOM     11  C   UNL     1      -1.529  14.776  23.610  0.00  0.00    +0.000 C 
ATOM     12  S   UNL     1      -1.552  15.561  25.111  0.00  0.00    +0.000 S 
ENDROOT
BRANCH   9  13
ATOM     13  C   UNL     1       0.068  16.753  20.701  0.00  0.00    +0.000 A 
ATOM     14  C   UNL     1      -0.686  16.605  19.525  0.00  0.00    +0.000 A 
ATOM     15  C   UNL     1      -0.212  16.992  18.271  0.00  0.00    +0.000 A 
ATOM     16  C   UNL     1       1.064  17.514  18.148  0.00  0.00    +0.000 A 
ATOM     17 CL   UNL     1       1.637  17.988  16.603  0.00  0.00    +0.000 Cl
ATOM     18  C   UNL     1       1.865  17.649  19.281  0.00  0.00    +0.000 A 
ATOM     19  C   UNL     1       1.367  17.274  20.544  0.00  0.00    +0.000 A 
ENDBRANCH   9  13
BRANCH   1  25
ATOM     20  C   UNL     1      -4.617  14.139  22.923  0.00  0.00    +0.000 A 
ATOM     21  C   UNL     1      -5.984  13.862  23.105  0.00  0.00    +0.000 A 
ATOM     22  C   UNL     1      -6.405  12.906  24.021  0.00  0.00    +0.000 A 
ATOM     23  C   UNL     1      -5.462  12.203  24.756  0.00  0.00    +0.000 A 
ATOM     24  C   UNL     1      -4.099  12.447  24.565  0.00  0.00    +0.000 A 
ATOM     25  C   UNL     1      -3.640  13.402  23.639  0.00  0.00    +0.000 A 
BRANCH  20  27
ATOM     26  C   UNL     1      -4.535  16.403  22.277  0.00  0.00    +0.000 C 
ATOM     27  O   UNL     1      -4.232  15.038  21.958  0.00  0.00    +0.000 OA
ENDBRANCH  20  27
ENDBRANCH   1  25
TORSDOF 3
ENDMDL
MODEL 8
REMARK VINA RESULT:      -5.4      3.718      6.164
REMARK  Name = 
REMARK  6 active torsions:
REMARK  status: ('A' for Active; 'I' for Inactive)
REMARK    1  A    between atoms: C_1  and  O_2
REMARK    2  A    between atoms: O_2  and  C_3
REMARK    3  A    between atoms: C_8  and  N_9
REMARK    4  A    between atoms: C_11  and  C_12
REMARK    5  A    between atoms: C_11  and  C_13
REMARK    6  A    between atoms: C_17  and  C_19
REMARK                            x       y       z     vdW  Elec       q    Type
REMARK                         _______ _______ _______ _____ _____    ______ ____
ROOT
ATOM      1  N   UNL     1      -3.709  12.970  21.055  0.00  0.00    +0.000 N 
ATOM      2  C   UNL     1      -2.994  12.077  21.980  0.00  0.00    +0.000 C 
ATOM      3  C   UNL     1      -1.503  12.077  21.679  0.00  0.00    +0.000 C 
ATOM      4  C   UNL     1      -1.232  11.362  20.339  0.00  0.00    +0.000 C 
ATOM      5  C   UNL     1      -0.692  11.365  22.776  0.00  0.00    +0.000 C 
ATOM      6  C   UNL     1      -1.138  13.559  21.675  0.00  0.00    +0.000 C 
ATOM      7  O   UNL     1      -0.408  14.046  22.541  0.00  0.00    +0.000 OA
ATOM      8  N   UNL     1      -1.794  14.324  20.755  0.00  0.00    +0.000 N 
ATOM      9  C   UNL     1      -1.071  15.286  20.014  0.00  0.00    +0.000 C 
ATOM     10  O   UNL     1      -1.524  16.379  19.671  0.00  0.00    +0.000 OA
ATOM     11  C   UNL     1      -3.198  14.284  20.882  0.00  0.00    +0.000 C 
ATOM     12  S   UNL     1      -4.204  15.636  21.057  0.00  0.00    +0.000 S 
ENDROOT
BRANCH   9  13
ATOM     13  C   UNL     1       0.356  14.990  19.546  0.00  0.00    +0.000 A 
ATOM     14  C   UNL     1       0.755  13.932  18.713  0.00  0.00    +0.000 A 
ATOM     15  C   UNL     1       2.064  13.789  18.250  0.00  0.00    +0.000 A 
ATOM     16  C   UNL     1       3.036  14.693  18.641  0.00  0.00    +0.000 A 
ATOM     17 CL   UNL     1       4.641  14.509  18.065  0.00  0.00    +0.000 Cl
ATOM     18  C   UNL     1       2.698  15.742  19.494  0.00  0.00    +0.000 A 
ATOM     19  C   UNL     1       1.369  15.887  19.938  0.00  0.00    +0.000 A 
ENDBRANCH   9  13
BRANCH   1  25
ATOM     20  C   UNL     1      -6.087  12.166  20.793  0.00  0.00    +0.000 A 
ATOM     21  C   UNL     1      -7.132  11.768  19.941  0.00  0.00    +0.000 A 
ATOM     22  C   UNL     1      -6.916  11.587  18.580  0.00  0.00    +0.000 A 
ATOM     23  C   UNL     1      -5.654  11.818  18.052  0.00  0.00    +0.000 A 
ATOM     24  C   UNL     1      -4.613  12.242  18.883  0.00  0.00    +0.000 A 
ATOM     25  C   UNL     1      -4.802  12.443  20.263  0.00  0.00    +0.000 A 
BRANCH  20  27
ATOM     26  C   UNL     1      -7.700  12.110  22.509  0.00  0.00    +0.000 C 
ATOM     27  O   UNL     1      -6.351  12.406  22.120  0.00  0.00    +0.000 OA
ENDBRANCH  20  27
ENDBRANCH   1  25
TORSDOF 3
ENDMDL
MODEL 9
REMARK VINA RESULT:      -5.4      8.059     11.253
REMARK  Name = 
REMARK  6 active torsions:
REMARK  status: ('A' for Active; 'I' for Inactive)
REMARK    1  A    between atoms: C_1  and  O_2
REMARK    2  A    between atoms: O_2  and  C_3
REMARK    3  A    between atoms: C_8  and  N_9
REMARK    4  A    between atoms: C_11  and  C_12
REMARK    5  A    between atoms: C_11  and  C_13
REMARK    6  A    between atoms: C_17  and  C_19
REMARK                            x       y       z     vdW  Elec       q    Type
REMARK                         _______ _______ _______ _____ _____    ______ ____
ROOT
ATOM      1  N   UNL     1       6.007   4.357  15.967  0.00  0.00    +0.000 N 
ATOM      2  C   UNL     1       7.086   5.082  16.653  0.00  0.00    +0.000 C 
ATOM      3  C   UNL     1       6.524   6.244  17.457  0.00  0.00    +0.000 C 
ATOM      4  C   UNL     1       6.011   7.347  16.507  0.00  0.00    +0.000 C 
ATOM      5  C   UNL     1       7.580   6.866  18.389  0.00  0.00    +0.000 C 
ATOM      6  C   UNL     1       5.432   5.600  18.305  0.00  0.00    +0.000 C 
ATOM      7  O   UNL     1       5.533   5.513  19.531  0.00  0.00    +0.000 OA
ATOM      8  N   UNL     1       4.428   4.993  17.608  0.00  0.00    +0.000 N 
ATOM      9  C   UNL     1       3.089   5.179  18.021  0.00  0.00    +0.000 C 
ATOM     10  O   UNL     1       2.217   4.312  17.954  0.00  0.00    +0.000 OA
ATOM     11  C   UNL     1       4.875   3.977  16.738  0.00  0.00    +0.000 C 
ATOM     12  S   UNL     1       4.319   2.377  16.732  0.00  0.00    +0.000 S 
ENDROOT
BRANCH   9  13
ATOM     13  C   UNL     1       2.626   6.536  18.557  0.00  0.00    +0.000 A 
ATOM     14  C   UNL     1       2.518   7.728  17.820  0.00  0.00    +0.000 A 
ATOM     15  C   UNL     1       1.992   8.902  18.359  0.00  0.00    +0.000 A 
ATOM     16  C   UNL     1       1.584   8.932  19.681  0.00  0.00    +0.000 A 
ATOM     17 CL   UNL     1       0.937  10.380  20.333  0.00  0.00    +0.000 Cl
ATOM     18  C   UNL     1       1.702   7.785  20.464  0.00  0.00    +0.000 A 
ATOM     19  C   UNL     1       2.217   6.599  19.903  0.00  0.00    +0.000 A 
ENDBRANCH   9  13
BRANCH   1  25
ATOM     20  C   UNL     1       7.085   4.753  13.720  0.00  0.00    +0.000 A 
ATOM     21  C   UNL     1       7.150   4.447  12.349  0.00  0.00    +0.000 A 
ATOM     22  C   UNL     1       6.196   3.630  11.753  0.00  0.00    +0.000 A 
ATOM     23  C   UNL     1       5.175   3.097  12.524  0.00  0.00    +0.000 A 
ATOM     24  C   UNL     1       5.115   3.369  13.894  0.00  0.00    +0.000 A 
ATOM     25  C   UNL     1       6.070   4.185  14.530  0.00  0.00    +0.000 A 
BRANCH  20  27
ATOM     26  C   UNL     1       9.101   5.921  13.372  0.00  0.00    +0.000 C 
ATOM     27  O   UNL     1       8.084   5.504  14.293  0.00  0.00    +0.000 OA
ENDBRANCH  20  27
ENDBRANCH   1  25
TORSDOF 3
ENDMDL
