MODEL 1
REMARK VINA RESULT:      -8.1      0.000      0.000
REMARK  Name = 
REMARK  9 active torsions:
REMARK  status: ('A' for Active; 'I' for Inactive)
REMARK    1  A    between atoms: C_1  and  C_2
REMARK    2  A    between atoms: C_5  and  C_6
REMARK    3  A    between atoms: N_8  and  C_9
REMARK    4  A    between atoms: C_11  and  C_12
REMARK    5  A    between atoms: C_11  and  C_13
REMARK    6  A    between atoms: C_15  and  C_16
REMARK    7  A    between atoms: C_15  and  C_17
REMARK    8  A    between atoms: C_20  and  S_21
REMARK    9  A    between atoms: S_21  and  N_24
REMARK                            x       y       z     vdW  Elec       q    Type
REMARK                         _______ _______ _______ _____ _____    ______ ____
ROOT
ATOM      1  C   UNL     1      -1.778  11.876  22.979  0.00  0.00    +0.000 C 
ATOM      2  C   UNL     1      -0.564  11.147  22.483  0.00  0.00    +0.000 A 
ATOM      3  C   UNL     1      -0.419   9.815  22.895  0.00  0.00    +0.000 A 
ATOM      4  C   UNL     1       0.364   8.942  22.162  0.00  0.00    +0.000 A 
ATOM      5  C   UNL     1       1.013   9.399  21.014  0.00  0.00    +0.000 A 
ATOM      6  C   UNL     1       1.041  10.766  20.696  0.00  0.00    +0.000 A 
ATOM      7  C   UNL     1       0.255  11.650  21.450  0.00  0.00    +0.000 A 
ENDROOT
BRANCH   5   8
ATOM      8  C   UNL     1       1.460   8.355  20.075  0.00  0.00    +0.000 C 
ATOM      9  O   UNL     1       1.597   8.634  18.890  0.00  0.00    +0.000 OA
ATOM     10  N   UNL     1       1.709   7.117  20.593  0.00  0.00    +0.000 N 
ATOM     11  H   UNL     1       1.343   6.869  21.502  0.00  0.00    +0.000 HD
BRANCH  10  12
ATOM     12  C   UNL     1       2.193   6.072  19.715  0.00  0.00    +0.000 C 
ATOM     13  C   UNL     1       1.673   4.703  20.137  0.00  0.00    +0.000 C 
ATOM     14  C   UNL     1       2.188   3.596  19.200  0.00  0.00    +0.000 C 
ATOM     15  C   UNL     1       1.911   2.236  19.879  0.00  0.00    +0.000 C 
ATOM     16  C   UNL     1       1.412   3.591  17.868  0.00  0.00    +0.000 C 
ATOM     17  N   UNL     1       3.644   3.682  19.002  0.00  0.00    +0.000 NA
ATOM     18  C   UNL     1       4.263   4.997  18.769  0.00  0.00    +0.000 C 
ATOM     19  C   UNL     1       5.762   4.848  19.093  0.00  0.00    +0.000 C 
ATOM     20  C   UNL     1       4.153   5.448  17.300  0.00  0.00    +0.000 C 
ATOM     21  C   UNL     1       3.711   6.074  19.713  0.00  0.00    +0.000 C 
ATOM     22  H   UNL     1       3.946   3.013  18.292  0.00  0.00    +0.000 HD
ENDBRANCH  10  12
ENDBRANCH   5   8
BRANCH   7  23
ATOM     23  S   UNL     1       0.353  13.417  21.120  0.00  0.00    +0.000 S 
ATOM     24  O   UNL     1      -0.813  13.742  20.319  0.00  0.00    +0.000 OA
ATOM     25  O   UNL     1       0.597  14.089  22.378  0.00  0.00    +0.000 OA
BRANCH  23  26
ATOM     26  N   UNL     1       1.733  13.574  20.176  0.00  0.00    +0.000 NA
ATOM     27  C   UNL     1       2.985  14.021  20.827  0.00  0.00    +0.000 C 
ATOM     28  C   UNL     1       3.166  15.532  20.654  0.00  0.00    +0.000 C 
ATOM     29  O   UNL     1       3.219  15.871  19.261  0.00  0.00    +0.000 OA
ATOM     30  C   UNL     1       2.006  15.514  18.586  0.00  0.00    +0.000 C 
ATOM     31  C   UNL     1       1.622  14.040  18.768  0.00  0.00    +0.000 C 
ENDBRANCH  23  26
ENDBRANCH   7  23
TORSDOF 4
ENDMDL
MODEL 2
REMARK VINA RESULT:      -8.0      3.446      8.464
REMARK  Name = 
REMARK  9 active torsions:
REMARK  status: ('A' for Active; 'I' for Inactive)
REMARK    1  A    between atoms: C_1  and  C_2
REMARK    2  A    between atoms: C_5  and  C_6
REMARK    3  A    between atoms: N_8  and  C_9
REMARK    4  A    between atoms: C_11  and  C_12
REMARK    5  A    between atoms: C_11  and  C_13
REMARK    6  A    between atoms: C_15  and  C_16
REMARK    7  A    between atoms: C_15  and  C_17
REMARK    8  A    between atoms: C_20  and  S_21
REMARK    9  A    between atoms: S_21  and  N_24
REMARK                            x       y       z     vdW  Elec       q    Type
REMARK                         _______ _______ _______ _____ _____    ______ ____
ROOT
ATOM      1  C   UNL     1       3.409   2.580  20.803  0.00  0.00    +0.000 C 
ATOM      2  C   UNL     1       2.762   3.821  20.261  0.00  0.00    +0.000 A 
ATOM      3  C   UNL     1       1.522   4.175  20.812  0.00  0.00    +0.000 A 
ATOM      4  C   UNL     1       1.076   5.481  20.738  0.00  0.00    +0.000 A 
ATOM      5  C   UNL     1       1.866   6.442  20.103  0.00  0.00    +0.000 A 
ATOM      6  C   UNL     1       3.009   6.072  19.378  0.00  0.00    +0.000 A 
ATOM      7  C   UNL     1       3.451   4.744  19.446  0.00  0.00    +0.000 A 
ENDROOT
BRANCH   5   8
ATOM      8  C   UNL     1       1.549   7.844  20.427  0.00  0.00    +0.000 C 
ATOM      9  O   UNL     1       1.636   8.225  21.588  0.00  0.00    +0.000 OA
ATOM     10  N   UNL     1       1.178   8.653  19.392  0.00  0.00    +0.000 N 
ATOM     11  H   UNL     1       0.874   8.246  18.518  0.00  0.00    +0.000 HD
BRANCH  10  12
ATOM     12  C   UNL     1       0.900  10.049  19.657  0.00  0.00    +0.000 C 
ATOM     13  C   UNL     1      -0.566  10.384  19.407  0.00  0.00    +0.000 C 
ATOM     14  C   UNL     1      -0.857  11.868  19.692  0.00  0.00    +0.000 C 
ATOM     15  C   UNL     1      -2.244  12.200  19.098  0.00  0.00    +0.000 C 
ATOM     16  C   UNL     1      -0.951  12.134  21.207  0.00  0.00    +0.000 C 
ATOM     17  N   UNL     1       0.112  12.753  19.024  0.00  0.00    +0.000 NA
ATOM     18  C   UNL     1       1.543  12.408  19.057  0.00  0.00    +0.000 C 
ATOM     19  C   UNL     1       2.216  13.187  17.911  0.00  0.00    +0.000 C 
ATOM     20  C   UNL     1       2.224  12.843  20.369  0.00  0.00    +0.000 C 
ATOM     21  C   UNL     1       1.788  10.918  18.784  0.00  0.00    +0.000 C 
ATOM     22  H   UNL     1      -0.030  13.721  19.317  0.00  0.00    +0.000 HD
ENDBRANCH  10  12
ENDBRANCH   5   8
BRANCH   7  23
ATOM     23  S   UNL     1       4.857   4.229  18.446  0.00  0.00    +0.000 S 
ATOM     24  O   UNL     1       5.959   4.035  19.371  0.00  0.00    +0.000 OA
ATOM     25  O   UNL     1       4.416   3.154  17.584  0.00  0.00    +0.000 OA
BRANCH  23  26
ATOM     26  N   UNL     1       5.174   5.566  17.481  0.00  0.00    +0.000 NA
ATOM     27  C   UNL     1       5.274   5.371  16.017  0.00  0.00    +0.000 C 
ATOM     28  C   UNL     1       6.739   5.208  15.600  0.00  0.00    +0.000 C 
ATOM     29  O   UNL     1       7.493   6.372  15.966  0.00  0.00    +0.000 OA
ATOM     30  C   UNL     1       7.482   6.581  17.384  0.00  0.00    +0.000 C 
ATOM     31  C   UNL     1       6.068   6.647  17.976  0.00  0.00    +0.000 C 
ENDBRANCH  23  26
ENDBRANCH   7  23
TORSDOF 4
ENDMDL
MODEL 3
REMARK VINA RESULT:      -7.5      3.487      9.158
REMARK  Name = 
REMARK  9 active torsions:
REMARK  status: ('A' for Active; 'I' for Inactive)
REMARK    1  A    between atoms: C_1  and  C_2
REMARK    2  A    between atoms: C_5  and  C_6
REMARK    3  A    between atoms: N_8  and  C_9
REMARK    4  A    between atoms: C_11  and  C_12
REMARK    5  A    between atoms: C_11  and  C_13
REMARK    6  A    between atoms: C_15  and  C_16
REMARK    7  A    between atoms: C_15  and  C_17
REMARK    8  A    between atoms: C_20  and  S_21
REMARK    9  A    between atoms: S_21  and  N_24
REMARK                            x       y       z     vdW  Elec       q    Type
REMARK                         _______ _______ _______ _____ _____    ______ ____
ROOT
ATOM      1  C   UNL     1       4.768   4.228  16.221  0.00  0.00    +0.000 C 
ATOM      2  C   UNL     1       4.172   5.203  17.193  0.00  0.00    +0.000 A 
ATOM      3  C   UNL     1       4.862   6.411  17.373  0.00  0.00    +0.000 A 
ATOM      4  C   UNL     1       4.198   7.524  17.855  0.00  0.00    +0.000 A 
ATOM      5  C   UNL     1       2.841   7.434  18.169  0.00  0.00    +0.000 A 
ATOM      6  C   UNL     1       2.185   6.193  18.183  0.00  0.00    +0.000 A 
ATOM      7  C   UNL     1       2.865   5.065  17.704  0.00  0.00    +0.000 A 
ENDROOT
BRANCH   5   8
ATOM      8  C   UNL     1       2.121   8.716  18.261  0.00  0.00    +0.000 C 
ATOM      9  O   UNL     1       2.179   9.504  17.325  0.00  0.00    +0.000 OA
ATOM     10  N   UNL     1       1.409   8.949  19.402  0.00  0.00    +0.000 N 
ATOM     11  H   UNL     1       1.595   8.403  20.232  0.00  0.00    +0.000 HD
BRANCH  10  12
ATOM     12  C   UNL     1       0.649  10.176  19.518  0.00  0.00    +0.000 C 
ATOM     13  C   UNL     1       0.359  10.518  20.974  0.00  0.00    +0.000 C 
ATOM     14  C   UNL     1      -0.447  11.824  21.093  0.00  0.00    +0.000 C 
ATOM     15  C   UNL     1      -0.987  11.917  22.537  0.00  0.00    +0.000 C 
ATOM     16  C   UNL     1       0.457  13.055  20.879  0.00  0.00    +0.000 C 
ATOM     17  N   UNL     1      -1.619  11.825  20.201  0.00  0.00    +0.000 NA
ATOM     18  C   UNL     1      -1.473  11.336  18.820  0.00  0.00    +0.000 C 
ATOM     19  C   UNL     1      -2.889  10.994  18.317  0.00  0.00    +0.000 C 
ATOM     20  C   UNL     1      -0.897  12.407  17.874  0.00  0.00    +0.000 C 
ATOM     21  C   UNL     1      -0.651  10.043  18.746  0.00  0.00    +0.000 C 
ATOM     22  H   UNL     1      -2.071  12.741  20.211  0.00  0.00    +0.000 HD
ENDBRANCH  10  12
ENDBRANCH   5   8
BRANCH   7  23
ATOM     23  S   UNL     1       2.075   3.450  17.805  0.00  0.00    +0.000 S 
ATOM     24  O   UNL     1       0.653   3.705  17.944  0.00  0.00    +0.000 OA
ATOM     25  O   UNL     1       2.580   2.642  16.717  0.00  0.00    +0.000 OA
BRANCH  23  26
ATOM     26  N   UNL     1       2.663   2.805  19.240  0.00  0.00    +0.000 NA
ATOM     27  C   UNL     1       1.775   1.926  20.035  0.00  0.00    +0.000 C 
ATOM     28  C   UNL     1       1.077   2.729  21.135  0.00  0.00    +0.000 C 
ATOM     29  O   UNL     1       2.046   3.323  22.010  0.00  0.00    +0.000 OA
ATOM     30  C   UNL     1       2.901   4.233  21.307  0.00  0.00    +0.000 C 
ATOM     31  C   UNL     1       3.590   3.600  20.090  0.00  0.00    +0.000 C 
ENDBRANCH  23  26
ENDBRANCH   7  23
TORSDOF 4
ENDMDL
MODEL 4
REMARK VINA RESULT:      -7.5      1.577      1.867
REMARK  Name = 
REMARK  9 active torsions:
REMARK  status: ('A' for Active; 'I' for Inactive)
REMARK    1  A    between atoms: C_1  and  C_2
REMARK    2  A    between atoms: C_5  and  C_6
REMARK    3  A    between atoms: N_8  and  C_9
REMARK    4  A    between atoms: C_11  and  C_12
REMARK    5  A    between atoms: C_11  and  C_13
REMARK    6  A    between atoms: C_15  and  C_16
REMARK    7  A    between atoms: C_15  and  C_17
REMARK    8  A    between atoms: C_20  and  S_21
REMARK    9  A    between atoms: S_21  and  N_24
REMARK                            x       y       z     vdW  Elec       q    Type
REMARK                         _______ _______ _______ _____ _____    ______ ____
ROOT
ATOM      1  C   UNL     1      -1.172  10.666  22.820  0.00  0.00    +0.000 C 
ATOM      2  C   UNL     1      -0.014  10.286  21.945  0.00  0.00    +0.000 A 
ATOM      3  C   UNL     1       0.801   9.240  22.402  0.00  0.00    +0.000 A 
ATOM      4  C   UNL     1       1.574   8.522  21.508  0.00  0.00    +0.000 A 
ATOM      5  C   UNL     1       1.542   8.850  20.152  0.00  0.00    +0.000 A 
ATOM      6  C   UNL     1       0.890  10.010  19.706  0.00  0.00    +0.000 A 
ATOM      7  C   UNL     1       0.117  10.742  20.617  0.00  0.00    +0.000 A 
ENDROOT
BRANCH   5   8
ATOM      8  C   UNL     1       2.033   7.809  19.232  0.00  0.00    +0.000 C 
ATOM      9  O   UNL     1       1.924   7.978  18.024  0.00  0.00    +0.000 OA
ATOM     10  N   UNL     1       2.600   6.700  19.792  0.00  0.00    +0.000 N 
ATOM     11  H   UNL     1       2.437   6.490  20.767  0.00  0.00    +0.000 HD
BRANCH  10  12
ATOM     12  C   UNL     1       3.136   5.672  18.925  0.00  0.00    +0.000 C 
ATOM     13  C   UNL     1       2.826   4.277  19.455  0.00  0.00    +0.000 C 
ATOM     14  C   UNL     1       3.396   3.187  18.530  0.00  0.00    +0.000 C 
ATOM     15  C   UNL     1       3.345   1.846  19.293  0.00  0.00    +0.000 C 
ATOM     16  C   UNL     1       2.521   3.014  17.272  0.00  0.00    +0.000 C 
ATOM     17  N   UNL     1       4.809   3.434  18.201  0.00  0.00    +0.000 NA
ATOM     18  C   UNL     1       5.240   4.799  17.853  0.00  0.00    +0.000 C 
ATOM     19  C   UNL     1       6.767   4.848  18.051  0.00  0.00    +0.000 C 
ATOM     20  C   UNL     1       4.956   5.148  16.380  0.00  0.00    +0.000 C 
ATOM     21  C   UNL     1       4.637   5.854  18.790  0.00  0.00    +0.000 C 
ATOM     22  H   UNL     1       5.133   2.767  17.500  0.00  0.00    +0.000 HD
ENDBRANCH  10  12
ENDBRANCH   5   8
BRANCH   7  23
ATOM     23  S   UNL     1      -0.646  12.284  20.087  0.00  0.00    +0.000 S 
ATOM     24  O   UNL     1      -0.237  12.483  18.709  0.00  0.00    +0.000 OA
ATOM     25  O   UNL     1      -2.047  12.230  20.443  0.00  0.00    +0.000 OA
BRANCH  23  26
ATOM     26  N   UNL     1       0.085  13.447  21.053  0.00  0.00    +0.000 NA
ATOM     27  C   UNL     1      -0.678  14.673  21.382  0.00  0.00    +0.000 C 
ATOM     28  C   UNL     1      -0.312  15.803  20.417  0.00  0.00    +0.000 C 
ATOM     29  O   UNL     1       1.090  16.094  20.498  0.00  0.00    +0.000 OA
ATOM     30  C   UNL     1       1.885  14.958  20.133  0.00  0.00    +0.000 C 
ATOM     31  C   UNL     1       1.547  13.697  20.940  0.00  0.00    +0.000 C 
ENDBRANCH  23  26
ENDBRANCH   7  23
TORSDOF 4
ENDMDL
MODEL 5
REMARK VINA RESULT:      -7.4      1.387      1.718
REMARK  Name = 
REMARK  9 active torsions:
REMARK  status: ('A' for Active; 'I' for Inactive)
REMARK    1  A    between atoms: C_1  and  C_2
REMARK    2  A    between atoms: C_5  and  C_6
REMARK    3  A    between atoms: N_8  and  C_9
REMARK    4  A    between atoms: C_11  and  C_12
REMARK    5  A    between atoms: C_11  and  C_13
REMARK    6  A    between atoms: C_15  and  C_16
REMARK    7  A    between atoms: C_15  and  C_17
REMARK    8  A    between atoms: C_20  and  S_21
REMARK    9  A    between atoms: S_21  and  N_24
REMARK                            x       y       z     vdW  Elec       q    Type
REMARK                         _______ _______ _______ _____ _____    ______ ____
ROOT
ATOM      1  C   UNL     1      -1.748  11.505  23.181  0.00  0.00    +0.000 C 
ATOM      2  C   UNL     1      -0.531  10.965  22.491  0.00  0.00    +0.000 A 
ATOM      3  C   UNL     1      -0.029   9.745  22.966  0.00  0.00    +0.000 A 
ATOM      4  C   UNL     1       0.758   8.952  22.151  0.00  0.00    +0.000 A 
ATOM      5  C   UNL     1       1.055   9.380  20.856  0.00  0.00    +0.000 A 
ATOM      6  C   UNL     1       0.729  10.678  20.432  0.00  0.00    +0.000 A 
ATOM      7  C   UNL     1      -0.059  11.482  21.266  0.00  0.00    +0.000 A 
ENDROOT
BRANCH   5   8
ATOM      8  C   UNL     1       1.516   8.332  19.928  0.00  0.00    +0.000 C 
ATOM      9  O   UNL     1       1.627   8.594  18.736  0.00  0.00    +0.000 OA
ATOM     10  N   UNL     1       1.807   7.110  20.464  0.00  0.00    +0.000 N 
ATOM     11  H   UNL     1       1.461   6.868  21.382  0.00  0.00    +0.000 HD
BRANCH  10  12
ATOM     12  C   UNL     1       2.306   6.064  19.596  0.00  0.00    +0.000 C 
ATOM     13  C   UNL     1       1.784   4.695  20.015  0.00  0.00    +0.000 C 
ATOM     14  C   UNL     1       2.315   3.586  19.089  0.00  0.00    +0.000 C 
ATOM     15  C   UNL     1       2.031   2.228  19.769  0.00  0.00    +0.000 C 
ATOM     16  C   UNL     1       1.558   3.575  17.746  0.00  0.00    +0.000 C 
ATOM     17  N   UNL     1       3.773   3.675  18.912  0.00  0.00    +0.000 NA
ATOM     18  C   UNL     1       4.392   4.991  18.684  0.00  0.00    +0.000 C 
ATOM     19  C   UNL     1       5.887   4.847  19.029  0.00  0.00    +0.000 C 
ATOM     20  C   UNL     1       4.303   5.437  17.212  0.00  0.00    +0.000 C 
ATOM     21  C   UNL     1       3.824   6.070  19.616  0.00  0.00    +0.000 C 
ATOM     22  H   UNL     1       4.087   3.005  18.209  0.00  0.00    +0.000 HD
ENDBRANCH  10  12
ENDBRANCH   5   8
BRANCH   7  23
ATOM     23  S   UNL     1      -0.404  13.182  20.783  0.00  0.00    +0.000 S 
ATOM     24  O   UNL     1       0.291  13.392  19.527  0.00  0.00    +0.000 OA
ATOM     25  O   UNL     1      -1.833  13.388  20.882  0.00  0.00    +0.000 OA
BRANCH  23  26
ATOM     26  N   UNL     1       0.331  14.098  21.983  0.00  0.00    +0.000 NA
ATOM     27  C   UNL     1      -0.516  14.980  22.817  0.00  0.00    +0.000 C 
ATOM     28  C   UNL     1      -0.506  16.407  22.262  0.00  0.00    +0.000 C 
ATOM     29  O   UNL     1       0.831  16.927  22.247  0.00  0.00    +0.000 OA
ATOM     30  C   UNL     1       1.689  16.145  21.406  0.00  0.00    +0.000 C 
ATOM     31  C   UNL     1       1.694  14.653  21.765  0.00  0.00    +0.000 C 
ENDBRANCH  23  26
ENDBRANCH   7  23
TORSDOF 4
ENDMDL
MODEL 6
REMARK VINA RESULT:      -7.4      1.562      2.306
REMARK  Name = 
REMARK  9 active torsions:
REMARK  status: ('A' for Active; 'I' for Inactive)
REMARK    1  A    between atoms: C_1  and  C_2
REMARK    2  A    between atoms: C_5  and  C_6
REMARK    3  A    between atoms: N_8  and  C_9
REMARK    4  A    between atoms: C_11  and  C_12
REMARK    5  A    between atoms: C_11  and  C_13
REMARK    6  A    between atoms: C_15  and  C_16
REMARK    7  A    between atoms: C_15  and  C_17
REMARK    8  A    between atoms: C_20  and  S_21
REMARK    9  A    between atoms: S_21  and  N_24
REMARK                            x       y       z     vdW  Elec       q    Type
REMARK                         _______ _______ _______ _____ _____    ______ ____
ROOT
ATOM      1  C   UNL     1      -1.912  11.698  23.081  0.00  0.00    +0.000 C 
ATOM      2  C   UNL     1      -0.678  10.990  22.606  0.00  0.00    +0.000 A 
ATOM      3  C   UNL     1      -0.573   9.628  22.925  0.00  0.00    +0.000 A 
ATOM      4  C   UNL     1       0.243   8.800  22.177  0.00  0.00    +0.000 A 
ATOM      5  C   UNL     1       0.968   9.332  21.109  0.00  0.00    +0.000 A 
ATOM      6  C   UNL     1       1.031  10.718  20.898  0.00  0.00    +0.000 A 
ATOM      7  C   UNL     1       0.210  11.555  21.667  0.00  0.00    +0.000 A 
ENDROOT
BRANCH   5   8
ATOM      8  C   UNL     1       1.461   8.354  20.123  0.00  0.00    +0.000 C 
ATOM      9  O   UNL     1       1.628   8.706  18.962  0.00  0.00    +0.000 OA
ATOM     10  N   UNL     1       1.715   7.090  20.573  0.00  0.00    +0.000 N 
ATOM     11  H   UNL     1       1.326   6.781  21.453  0.00  0.00    +0.000 HD
BRANCH  10  12
ATOM     12  C   UNL     1       2.243   6.109  19.649  0.00  0.00    +0.000 C 
ATOM     13  C   UNL     1       1.746   4.707  19.980  0.00  0.00    +0.000 C 
ATOM     14  C   UNL     1       2.308   3.667  18.994  0.00  0.00    +0.000 C 
ATOM     15  C   UNL     1       2.048   2.264  19.587  0.00  0.00    +0.000 C 
ATOM     16  C   UNL     1       1.563   3.721  17.646  0.00  0.00    +0.000 C 
ATOM     17  N   UNL     1       3.766   3.796  18.836  0.00  0.00    +0.000 NA
ATOM     18  C   UNL     1       4.359   5.135  18.693  0.00  0.00    +0.000 C 
ATOM     19  C   UNL     1       5.854   5.002  19.043  0.00  0.00    +0.000 C 
ATOM     20  C   UNL     1       4.272   5.667  17.250  0.00  0.00    +0.000 C 
ATOM     21  C   UNL     1       3.761   6.144  19.683  0.00  0.00    +0.000 C 
ATOM     22  H   UNL     1       4.100   3.175  18.096  0.00  0.00    +0.000 HD
ENDBRANCH  10  12
ENDBRANCH   5   8
BRANCH   7  23
ATOM     23  S   UNL     1       0.347  13.340  21.478  0.00  0.00    +0.000 S 
ATOM     24  O   UNL     1      -0.321  13.919  22.629  0.00  0.00    +0.000 OA
ATOM     25  O   UNL     1       1.731  13.649  21.193  0.00  0.00    +0.000 OA
BRANCH  23  26
ATOM     26  N   UNL     1      -0.549  13.668  20.096  0.00  0.00    +0.000 NA
ATOM     27  C   UNL     1      -2.025  13.683  20.200  0.00  0.00    +0.000 C 
ATOM     28  C   UNL     1      -2.602  12.328  19.781  0.00  0.00    +0.000 C 
ATOM     29  O   UNL     1      -2.234  12.026  18.428  0.00  0.00    +0.000 OA
ATOM     30  C   UNL     1      -0.812  11.940  18.277  0.00  0.00    +0.000 C 
ATOM     31  C   UNL     1      -0.073  13.191  18.770  0.00  0.00    +0.000 C 
ENDBRANCH  23  26
ENDBRANCH   7  23
TORSDOF 4
ENDMDL
MODEL 7
REMARK VINA RESULT:      -7.4      1.543      1.863
REMARK  Name = 
REMARK  9 active torsions:
REMARK  status: ('A' for Active; 'I' for Inactive)
REMARK    1  A    between atoms: C_1  and  C_2
REMARK    2  A    between atoms: C_5  and  C_6
REMARK    3  A    between atoms: N_8  and  C_9
REMARK    4  A    between atoms: C_11  and  C_12
REMARK    5  A    between atoms: C_11  and  C_13
REMARK    6  A    between atoms: C_15  and  C_16
REMARK    7  A    between atoms: C_15  and  C_17
REMARK    8  A    between atoms: C_20  and  S_21
REMARK    9  A    between atoms: S_21  and  N_24
REMARK                            x       y       z     vdW  Elec       q    Type
REMARK                         _______ _______ _______ _____ _____    ______ ____
ROOT
ATOM      1  C   UNL     1      -1.315  10.636  23.106  0.00  0.00    +0.000 C 
ATOM      2  C   UNL     1      -0.209  10.358  22.132  0.00  0.00    +0.000 A 
ATOM      3  C   UNL     1       0.785   9.462  22.550  0.00  0.00    +0.000 A 
ATOM      4  C   UNL     1       1.557   8.796  21.616  0.00  0.00    +0.000 A 
ATOM      5  C   UNL     1       1.344   9.028  20.256  0.00  0.00    +0.000 A 
ATOM      6  C   UNL     1       0.496  10.059  19.825  0.00  0.00    +0.000 A 
ATOM      7  C   UNL     1      -0.276  10.740  20.776  0.00  0.00    +0.000 A 
ENDROOT
BRANCH   5   8
ATOM      8  C   UNL     1       1.881   8.004  19.343  0.00  0.00    +0.000 C 
ATOM      9  O   UNL     1       1.880   8.218  18.136  0.00  0.00    +0.000 OA
ATOM     10  N   UNL     1       2.364   6.858  19.907  0.00  0.00    +0.000 N 
ATOM     11  H   UNL     1       2.113   6.620  20.856  0.00  0.00    +0.000 HD
BRANCH  10  12
ATOM     12  C   UNL     1       2.942   5.844  19.050  0.00  0.00    +0.000 C 
ATOM     13  C   UNL     1       2.581   4.441  19.525  0.00  0.00    +0.000 C 
ATOM     14  C   UNL     1       3.195   3.366  18.611  0.00  0.00    +0.000 C 
ATOM     15  C   UNL     1       3.080   2.007  19.337  0.00  0.00    +0.000 C 
ATOM     16  C   UNL     1       2.399   3.234  17.298  0.00  0.00    +0.000 C 
ATOM     17  N   UNL     1       4.630   3.601  18.378  0.00  0.00    +0.000 NA
ATOM     18  C   UNL     1       5.098   4.967  18.092  0.00  0.00    +0.000 C 
ATOM     19  C   UNL     1       6.610   4.991  18.385  0.00  0.00    +0.000 C 
ATOM     20  C   UNL     1       4.912   5.355  16.612  0.00  0.00    +0.000 C 
ATOM     21  C   UNL     1       4.451   6.008  19.014  0.00  0.00    +0.000 C 
ATOM     22  H   UNL     1       4.989   2.946  17.682  0.00  0.00    +0.000 HD
ENDBRANCH  10  12
ENDBRANCH   5   8
BRANCH   7  23
ATOM     23  S   UNL     1      -1.295  12.129  20.254  0.00  0.00    +0.000 S 
ATOM     24  O   UNL     1      -1.799  11.786  18.936  0.00  0.00    +0.000 OA
ATOM     25  O   UNL     1      -2.204  12.442  21.335  0.00  0.00    +0.000 OA
BRANCH  23  26
ATOM     26  N   UNL     1      -0.204  13.398  20.115  0.00  0.00    +0.000 NA
ATOM     27  C   UNL     1       0.228  13.812  18.761  0.00  0.00    +0.000 C 
ATOM     28  C   UNL     1       1.557  13.143  18.399  0.00  0.00    +0.000 C 
ATOM     29  O   UNL     1       2.573  13.508  19.343  0.00  0.00    +0.000 OA
ATOM     30  C   UNL     1       2.237  13.080  20.669  0.00  0.00    +0.000 C 
ATOM     31  C   UNL     1       0.863  13.578  21.136  0.00  0.00    +0.000 C 
ENDBRANCH  23  26
ENDBRANCH   7  23
TORSDOF 4
ENDMDL
MODEL 8
REMARK VINA RESULT:      -7.4      3.465      8.737
REMARK  Name = 
REMARK  9 active torsions:
REMARK  status: ('A' for Active; 'I' for Inactive)
REMARK    1  A    between atoms: C_1  and  C_2
REMARK    2  A    between atoms: C_5  and  C_6
REMARK    3  A    between atoms: N_8  and  C_9
REMARK    4  A    between atoms: C_11  and  C_12
REMARK    5  A    between atoms: C_11  and  C_13
REMARK    6  A    between atoms: C_15  and  C_16
REMARK    7  A    between atoms: C_15  and  C_17
REMARK    8  A    between atoms: C_20  and  S_21
REMARK    9  A    between atoms: S_21  and  N_24
REMARK                            x       y       z     vdW  Elec       q    Type
REMARK                         _______ _______ _______ _____ _____    ______ ____
ROOT
ATOM      1  C   UNL     1       2.676   2.824  18.956  0.00  0.00    +0.000 C 
ATOM      2  C   UNL     1       2.755   4.203  18.370  0.00  0.00    +0.000 A 
ATOM      3  C   UNL     1       1.588   4.697  17.769  0.00  0.00    +0.000 A 
ATOM      4  C   UNL     1       1.405   6.060  17.625  0.00  0.00    +0.000 A 
ATOM      5  C   UNL     1       2.394   6.938  18.073  0.00  0.00    +0.000 A 
ATOM      6  C   UNL     1       3.645   6.462  18.494  0.00  0.00    +0.000 A 
ATOM      7  C   UNL     1       3.830   5.078  18.628  0.00  0.00    +0.000 A 
ENDROOT
BRANCH   5   8
ATOM      8  C   UNL     1       1.964   8.332  18.278  0.00  0.00    +0.000 C 
ATOM      9  O   UNL     1       2.339   9.196  17.494  0.00  0.00    +0.000 OA
ATOM     10  N   UNL     1       1.148   8.582  19.344  0.00  0.00    +0.000 N 
ATOM     11  H   UNL     1       1.078   7.907  20.093  0.00  0.00    +0.000 HD
BRANCH  10  12
ATOM     12  C   UNL     1       0.665   9.930  19.558  0.00  0.00    +0.000 C 
ATOM     13  C   UNL     1       0.333  10.178  21.025  0.00  0.00    +0.000 C 
ATOM     14  C   UNL     1      -0.178  11.613  21.248  0.00  0.00    +0.000 C 
ATOM     15  C   UNL     1      -0.807  11.676  22.658  0.00  0.00    +0.000 C 
ATOM     16  C   UNL     1       0.985  12.624  21.236  0.00  0.00    +0.000 C 
ATOM     17  N   UNL     1      -1.242  11.968  20.294  0.00  0.00    +0.000 NA
ATOM     18  C   UNL     1      -1.089  11.602  18.876  0.00  0.00    +0.000 C 
ATOM     19  C   UNL     1      -2.497  11.639  18.251  0.00  0.00    +0.000 C 
ATOM     20  C   UNL     1      -0.216  12.606  18.099  0.00  0.00    +0.000 C 
ATOM     21  C   UNL     1      -0.563  10.172  18.699  0.00  0.00    +0.000 C 
ATOM     22  H   UNL     1      -1.485  12.956  20.385  0.00  0.00    +0.000 HD
ENDBRANCH  10  12
ENDBRANCH   5   8
BRANCH   7  23
ATOM     23  S   UNL     1       5.456   4.445  19.071  0.00  0.00    +0.000 S 
ATOM     24  O   UNL     1       6.134   5.526  19.762  0.00  0.00    +0.000 OA
ATOM     25  O   UNL     1       5.271   3.160  19.709  0.00  0.00    +0.000 OA
BRANCH  23  26
ATOM     26  N   UNL     1       6.202   4.181  17.590  0.00  0.00    +0.000 NA
ATOM     27  C   UNL     1       7.494   4.852  17.321  0.00  0.00    +0.000 C 
ATOM     28  C   UNL     1       7.269   6.147  16.538  0.00  0.00    +0.000 C 
ATOM     29  O   UNL     1       6.622   5.869  15.289  0.00  0.00    +0.000 OA
ATOM     30  C   UNL     1       5.334   5.270  15.485  0.00  0.00    +0.000 C 
ATOM     31  C   UNL     1       5.379   4.011  16.362  0.00  0.00    +0.000 C 
ENDBRANCH  23  26
ENDBRANCH   7  23
TORSDOF 4
ENDMDL
MODEL 9
REMARK VINA RESULT:      -7.4      1.696      2.178
REMARK  Name = 
REMARK  9 active torsions:
REMARK  status: ('A' for Active; 'I' for Inactive)
REMARK    1  A    between atoms: C_1  and  C_2
REMARK    2  A    between atoms: C_5  and  C_6
REMARK    3  A    between atoms: N_8  and  C_9
REMARK    4  A    between atoms: C_11  and  C_12
REMARK    5  A    between atoms: C_11  and  C_13
REMARK    6  A    between atoms: C_15  and  C_16
REMARK    7  A    between atoms: C_15  and  C_17
REMARK    8  A    between atoms: C_20  and  S_21
REMARK    9  A    between atoms: S_21  and  N_24
REMARK                            x       y       z     vdW  Elec       q    Type
REMARK                         _______ _______ _______ _____ _____    ______ ____
ROOT
ATOM      1  C   UNL     1      -1.212  11.464  20.936  0.00  0.00    +0.000 C 
ATOM      2  C   UNL     1       0.048  10.718  20.612  0.00  0.00    +0.000 A 
ATOM      3  C   UNL     1       0.256   9.510  21.295  0.00  0.00    +0.000 A 
ATOM      4  C   UNL     1       1.098   8.549  20.766  0.00  0.00    +0.000 A 
ATOM      5  C   UNL     1       1.744   8.793  19.553  0.00  0.00    +0.000 A 
ATOM      6  C   UNL     1       1.705  10.064  18.957  0.00  0.00    +0.000 A 
ATOM      7  C   UNL     1       0.859  11.039  19.503  0.00  0.00    +0.000 A 
ENDROOT
BRANCH   5   8
ATOM      8  C   UNL     1       2.264   7.604  18.856  0.00  0.00    +0.000 C 
ATOM      9  O   UNL     1       2.064   7.478  17.654  0.00  0.00    +0.000 OA
ATOM     10  N   UNL     1       2.959   6.698  19.605  0.00  0.00    +0.000 N 
ATOM     11  H   UNL     1       2.878   6.710  20.612  0.00  0.00    +0.000 HD
BRANCH  10  12
ATOM     12  C   UNL     1       3.527   5.537  18.953  0.00  0.00    +0.000 C 
ATOM     13  C   UNL     1       3.507   4.318  19.868  0.00  0.00    +0.000 C 
ATOM     14  C   UNL     1       4.108   3.085  19.171  0.00  0.00    +0.000 C 
ATOM     15  C   UNL     1       4.366   2.010  20.251  0.00  0.00    +0.000 C 
ATOM     16  C   UNL     1       3.111   2.473  18.167  0.00  0.00    +0.000 C 
ATOM     17  N   UNL     1       5.411   3.387  18.556  0.00  0.00    +0.000 NA
ATOM     18  C   UNL     1       5.578   4.640  17.801  0.00  0.00    +0.000 C 
ATOM     19  C   UNL     1       7.092   4.913  17.718  0.00  0.00    +0.000 C 
ATOM     20  C   UNL     1       5.051   4.534  16.357  0.00  0.00    +0.000 C 
ATOM     21  C   UNL     1       4.951   5.840  18.523  0.00  0.00    +0.000 C 
ATOM     22  H   UNL     1       5.737   2.591  18.005  0.00  0.00    +0.000 HD
ENDBRANCH  10  12
ENDBRANCH   5   8
BRANCH   7  23
ATOM     23  S   UNL     1       0.868  12.701  18.813  0.00  0.00    +0.000 S 
ATOM     24  O   UNL     1       2.054  12.785  17.980  0.00  0.00    +0.000 OA
ATOM     25  O   UNL     1      -0.444  12.959  18.261  0.00  0.00    +0.000 OA
BRANCH  23  26
ATOM     26  N   UNL     1       1.065  13.693  20.154  0.00  0.00    +0.000 NA
ATOM     27  C   UNL     1       0.215  14.900  20.270  0.00  0.00    +0.000 C 
ATOM     28  C   UNL     1       0.959  16.128  19.738  0.00  0.00    +0.000 C 
ATOM     29  O   UNL     1       2.168  16.338  20.481  0.00  0.00    +0.000 OA
ATOM     30  C   UNL     1       3.061  15.223  20.358  0.00  0.00    +0.000 C 
ATOM     31  C   UNL     1       2.416  13.886  20.746  0.00  0.00    +0.000 C 
ENDBRANCH  23  26
ENDBRANCH   7  23
TORSDOF 4
ENDMDL
