MODEL 1
REMARK VINA RESULT:      -9.0      0.000      0.000
REMARK  Name = 
REMARK  2 active torsions:
REMARK  status: ('A' for Active; 'I' for Inactive)
REMARK    1  A    between atoms: C_7  and  C_8
REMARK    2  A    between atoms: C_9  and  C_10
REMARK                            x       y       z     vdW  Elec       q    Type
REMARK                         _______ _______ _______ _____ _____    ______ ____
ROOT
ATOM      1  C   UNL     1       3.216   5.987  19.245  0.00  0.00    +0.000 A 
ATOM      2  C   UNL     1       3.952   6.181  18.057  0.00  0.00    +0.000 A 
ATOM      3  N   UNL     1       3.560   7.390  17.523  0.00  0.00    +0.000 N 
ATOM      4  C   UNL     1       2.639   8.025  18.302  0.00  0.00    +0.000 A 
ATOM      5  C   UNL     1       2.026   9.274  18.106  0.00  0.00    +0.000 A 
ATOM      6  C   UNL     1       1.134   9.725  19.073  0.00  0.00    +0.000 A 
ATOM      7 CL   UNL     1       0.365  11.255  18.885  0.00  0.00    +0.000 Cl
ATOM      8  C   UNL     1       0.862   8.956  20.191  0.00  0.00    +0.000 A 
ATOM      9  C   UNL     1       1.488   7.717  20.370  0.00  0.00    +0.000 A 
ATOM     10  C   UNL     1       2.397   7.201  19.407  0.00  0.00    +0.000 A 
ATOM     11  H   UNL     1       3.941   7.785  16.674  0.00  0.00    +0.000 HD
ENDROOT
BRANCH   1  18
ATOM     12  F   UNL     1       2.342   3.616  22.062  0.00  0.00    +0.000 F 
ATOM     13  C   UNL     1       2.031   4.504  21.064  0.00  0.00    +0.000 C 
ATOM     14  C   UNL     1       0.925   3.885  20.213  0.00  0.00    +0.000 C 
ATOM     15  C   UNL     1       1.417   2.617  19.519  0.00  0.00    +0.000 C 
ATOM     16  N   UNL     1       2.666   2.828  18.793  0.00  0.00    +0.000 NA
ATOM     17  C   UNL     1       3.682   3.403  19.679  0.00  0.00    +0.000 C 
ATOM     18  C   UNL     1       3.304   4.796  20.248  0.00  0.00    +0.000 C 
ATOM     19  H   UNL     1       2.519   3.466  18.011  0.00  0.00    +0.000 HD
ENDBRANCH   1  18
BRANCH   2  20
ATOM     20  C   UNL     1       4.969   5.396  17.325  0.00  0.00    +0.000 A 
ATOM     21  C   UNL     1       6.299   5.335  17.784  0.00  0.00    +0.000 A 
ATOM     22  C   UNL     1       7.298   4.709  17.031  0.00  0.00    +0.000 A 
ATOM     23  C   UNL     1       6.990   4.155  15.795  0.00  0.00    +0.000 A 
ATOM     24  C   UNL     1       5.668   4.139  15.362  0.00  0.00    +0.000 A 
ATOM     25  C   UNL     1       4.659   4.704  16.151  0.00  0.00    +0.000 A 
ENDBRANCH   2  20
TORSDOF 2
ENDMDL
MODEL 2
REMARK VINA RESULT:      -8.7      0.289      1.035
REMARK  Name = 
REMARK  2 active torsions:
REMARK  status: ('A' for Active; 'I' for Inactive)
REMARK    1  A    between atoms: C_7  and  C_8
REMARK    2  A    between atoms: C_9  and  C_10
REMARK                            x       y       z     vdW  Elec       q    Type
REMARK                         _______ _______ _______ _____ _____    ______ ____
ROOT
ATOM      1  C   UNL     1       3.126   6.139  19.292  0.00  0.00    +0.000 A 
ATOM      2  C   UNL     1       3.832   6.429  18.105  0.00  0.00    +0.000 A 
ATOM      3  N   UNL     1       3.372   7.642  17.640  0.00  0.00    +0.000 N 
ATOM      4  C   UNL     1       2.433   8.190  18.462  0.00  0.00    +0.000 A 
ATOM      5  C   UNL     1       1.756   9.414  18.338  0.00  0.00    +0.000 A 
ATOM      6  C   UNL     1       0.858   9.771  19.339  0.00  0.00    +0.000 A 
ATOM      7 CL   UNL     1       0.011  11.267  19.240  0.00  0.00    +0.000 Cl
ATOM      8  C   UNL     1       0.642   8.933  20.420  0.00  0.00    +0.000 A 
ATOM      9  C   UNL     1       1.332   7.720  20.527  0.00  0.00    +0.000 A 
ATOM     10  C   UNL     1       2.250   7.300  19.526  0.00  0.00    +0.000 A 
ATOM     11  H   UNL     1       3.720   8.099  16.807  0.00  0.00    +0.000 HD
ENDROOT
BRANCH   1  18
ATOM     12  F   UNL     1       2.433   3.609  22.020  0.00  0.00    +0.000 F 
ATOM     13  C   UNL     1       2.057   4.533  21.079  0.00  0.00    +0.000 C 
ATOM     14  C   UNL     1       0.937   3.921  20.241  0.00  0.00    +0.000 C 
ATOM     15  C   UNL     1       1.439   2.705  19.467  0.00  0.00    +0.000 C 
ATOM     16  N   UNL     1       2.652   2.989  18.706  0.00  0.00    +0.000 NA
ATOM     17  C   UNL     1       3.684   3.553  19.580  0.00  0.00    +0.000 C 
ATOM     18  C   UNL     1       3.288   4.904  20.230  0.00  0.00    +0.000 C 
ATOM     19  H   UNL     1       2.455   3.659  17.963  0.00  0.00    +0.000 HD
ENDBRANCH   1  18
BRANCH   2  20
ATOM     20  C   UNL     1       4.875   5.735  17.320  0.00  0.00    +0.000 A 
ATOM     21  C   UNL     1       4.529   4.905  16.237  0.00  0.00    +0.000 A 
ATOM     22  C   UNL     1       5.492   4.139  15.572  0.00  0.00    +0.000 A 
ATOM     23  C   UNL     1       6.815   4.170  15.996  0.00  0.00    +0.000 A 
ATOM     24  C   UNL     1       7.188   5.042  17.014  0.00  0.00    +0.000 A 
ATOM     25  C   UNL     1       6.233   5.860  17.629  0.00  0.00    +0.000 A 
ENDBRANCH   2  20
TORSDOF 2
ENDMDL
MODEL 3
REMARK VINA RESULT:      -8.7      2.604      5.501
REMARK  Name = 
REMARK  2 active torsions:
REMARK  status: ('A' for Active; 'I' for Inactive)
REMARK    1  A    between atoms: C_7  and  C_8
REMARK    2  A    between atoms: C_9  and  C_10
REMARK                            x       y       z     vdW  Elec       q    Type
REMARK                         _______ _______ _______ _____ _____    ______ ____
ROOT
ATOM      1  C   UNL     1       2.618   5.436  18.327  0.00  0.00    +0.000 A 
ATOM      2  C   UNL     1       2.746   6.834  18.471  0.00  0.00    +0.000 A 
ATOM      3  N   UNL     1       3.853   7.222  17.748  0.00  0.00    +0.000 N 
ATOM      4  C   UNL     1       4.444   6.176  17.105  0.00  0.00    +0.000 A 
ATOM      5  C   UNL     1       5.568   6.177  16.261  0.00  0.00    +0.000 A 
ATOM      6  C   UNL     1       5.960   4.971  15.691  0.00  0.00    +0.000 A 
ATOM      7 CL   UNL     1       7.324   4.921  14.640  0.00  0.00    +0.000 Cl
ATOM      8  C   UNL     1       5.259   3.807  15.956  0.00  0.00    +0.000 A 
ATOM      9  C   UNL     1       4.138   3.829  16.795  0.00  0.00    +0.000 A 
ATOM     10  C   UNL     1       3.702   5.031  17.416  0.00  0.00    +0.000 A 
ATOM     11  H   UNL     1       4.169   8.179  17.665  0.00  0.00    +0.000 HD
ENDROOT
BRANCH   1  18
ATOM     12  F   UNL     1       0.591   2.330  19.080  0.00  0.00    +0.000 F 
ATOM     13  C   UNL     1       1.746   2.992  18.751  0.00  0.00    +0.000 C 
ATOM     14  C   UNL     1       2.859   2.474  19.658  0.00  0.00    +0.000 C 
ATOM     15  C   UNL     1       2.573   2.815  21.119  0.00  0.00    +0.000 C 
ATOM     16  N   UNL     1       2.271   4.230  21.312  0.00  0.00    +0.000 NA
ATOM     17  C   UNL     1       1.182   4.647  20.424  0.00  0.00    +0.000 C 
ATOM     18  C   UNL     1       1.513   4.506  18.915  0.00  0.00    +0.000 C 
ATOM     19  H   UNL     1       3.092   4.799  21.108  0.00  0.00    +0.000 HD
ENDBRANCH   1  18
BRANCH   2  20
ATOM     20  C   UNL     1       1.992   7.877  19.200  0.00  0.00    +0.000 A 
ATOM     21  C   UNL     1       1.776   7.773  20.587  0.00  0.00    +0.000 A 
ATOM     22  C   UNL     1       0.953   8.680  21.264  0.00  0.00    +0.000 A 
ATOM     23  C   UNL     1       0.312   9.692  20.559  0.00  0.00    +0.000 A 
ATOM     24  C   UNL     1       0.576   9.856  19.203  0.00  0.00    +0.000 A 
ATOM     25  C   UNL     1       1.456   8.989  18.544  0.00  0.00    +0.000 A 
ENDBRANCH   2  20
TORSDOF 2
ENDMDL
MODEL 4
REMARK VINA RESULT:      -8.7      2.599      5.536
REMARK  Name = 
REMARK  2 active torsions:
REMARK  status: ('A' for Active; 'I' for Inactive)
REMARK    1  A    between atoms: C_7  and  C_8
REMARK    2  A    between atoms: C_9  and  C_10
REMARK                            x       y       z     vdW  Elec       q    Type
REMARK                         _______ _______ _______ _____ _____    ______ ____
ROOT
ATOM      1  C   UNL     1       2.604   5.420  18.337  0.00  0.00    +0.000 A 
ATOM      2  C   UNL     1       2.714   6.819  18.481  0.00  0.00    +0.000 A 
ATOM      3  N   UNL     1       3.820   7.220  17.763  0.00  0.00    +0.000 N 
ATOM      4  C   UNL     1       4.427   6.180  17.123  0.00  0.00    +0.000 A 
ATOM      5  C   UNL     1       5.554   6.195  16.284  0.00  0.00    +0.000 A 
ATOM      6  C   UNL     1       5.963   4.993  15.716  0.00  0.00    +0.000 A 
ATOM      7 CL   UNL     1       7.332   4.960  14.671  0.00  0.00    +0.000 Cl
ATOM      8  C   UNL     1       5.274   3.822  15.978  0.00  0.00    +0.000 A 
ATOM      9  C   UNL     1       4.150   3.830  16.812  0.00  0.00    +0.000 A 
ATOM     10  C   UNL     1       3.697   5.027  17.430  0.00  0.00    +0.000 A 
ATOM     11  H   UNL     1       4.126   8.180  17.681  0.00  0.00    +0.000 HD
ENDROOT
BRANCH   1  18
ATOM     12  F   UNL     1       0.607   2.292  19.077  0.00  0.00    +0.000 F 
ATOM     13  C   UNL     1       1.756   2.965  18.752  0.00  0.00    +0.000 C 
ATOM     14  C   UNL     1       2.873   2.456  19.660  0.00  0.00    +0.000 C 
ATOM     15  C   UNL     1       2.580   2.790  21.120  0.00  0.00    +0.000 C 
ATOM     16  N   UNL     1       2.264   4.201  21.318  0.00  0.00    +0.000 NA
ATOM     17  C   UNL     1       1.173   4.609  20.429  0.00  0.00    +0.000 C 
ATOM     18  C   UNL     1       1.507   4.477  18.920  0.00  0.00    +0.000 C 
ATOM     19  H   UNL     1       3.079   4.779  21.116  0.00  0.00    +0.000 HD
ENDBRANCH   1  18
BRANCH   2  20
ATOM     20  C   UNL     1       1.945   7.854  19.206  0.00  0.00    +0.000 A 
ATOM     21  C   UNL     1       1.434   8.977  18.528  0.00  0.00    +0.000 A 
ATOM     22  C   UNL     1       0.822  10.027  19.223  0.00  0.00    +0.000 A 
ATOM     23  C   UNL     1       0.734   9.981  20.609  0.00  0.00    +0.000 A 
ATOM     24  C   UNL     1       1.163   8.845  21.286  0.00  0.00    +0.000 A 
ATOM     25  C   UNL     1       1.710   7.766  20.581  0.00  0.00    +0.000 A 
ENDBRANCH   2  20
TORSDOF 2
ENDMDL
MODEL 5
REMARK VINA RESULT:      -8.5      2.425      5.317
REMARK  Name = 
REMARK  2 active torsions:
REMARK  status: ('A' for Active; 'I' for Inactive)
REMARK    1  A    between atoms: C_7  and  C_8
REMARK    2  A    between atoms: C_9  and  C_10
REMARK                            x       y       z     vdW  Elec       q    Type
REMARK                         _______ _______ _______ _____ _____    ______ ____
ROOT
ATOM      1  C   UNL     1       3.258   5.458  18.785  0.00  0.00    +0.000 A 
ATOM      2  C   UNL     1       2.978   6.820  18.544  0.00  0.00    +0.000 A 
ATOM      3  N   UNL     1       3.710   7.200  17.440  0.00  0.00    +0.000 N 
ATOM      4  C   UNL     1       4.429   6.168  16.914  0.00  0.00    +0.000 A 
ATOM      5  C   UNL     1       5.268   6.158  15.787  0.00  0.00    +0.000 A 
ATOM      6  C   UNL     1       5.869   4.957  15.428  0.00  0.00    +0.000 A 
ATOM      7 CL   UNL     1       6.897   4.890  14.047  0.00  0.00    +0.000 Cl
ATOM      8  C   UNL     1       5.644   3.810  16.169  0.00  0.00    +0.000 A 
ATOM      9  C   UNL     1       4.800   3.840  17.285  0.00  0.00    +0.000 A 
ATOM     10  C   UNL     1       4.171   5.044  17.705  0.00  0.00    +0.000 A 
ATOM     11  H   UNL     1       3.687   8.127  17.036  0.00  0.00    +0.000 HD
ENDROOT
BRANCH   1  18
ATOM     12  F   UNL     1       0.752   3.535  20.870  0.00  0.00    +0.000 F 
ATOM     13  C   UNL     1       1.193   4.117  19.709  0.00  0.00    +0.000 C 
ATOM     14  C   UNL     1       1.015   3.105  18.579  0.00  0.00    +0.000 C 
ATOM     15  C   UNL     1       1.896   1.879  18.804  0.00  0.00    +0.000 C 
ATOM     16  N   UNL     1       3.289   2.231  19.060  0.00  0.00    +0.000 NA
ATOM     17  C   UNL     1       3.380   3.187  20.167  0.00  0.00    +0.000 C 
ATOM     18  C   UNL     1       2.665   4.535  19.894  0.00  0.00    +0.000 C 
ATOM     19  H   UNL     1       3.706   2.655  18.231  0.00  0.00    +0.000 HD
ENDBRANCH   1  18
BRANCH   2  20
ATOM     20  C   UNL     1       2.131   7.838  19.200  0.00  0.00    +0.000 A 
ATOM     21  C   UNL     1       1.746   7.696  20.547  0.00  0.00    +0.000 A 
ATOM     22  C   UNL     1       0.838   8.580  21.139  0.00  0.00    +0.000 A 
ATOM     23  C   UNL     1       0.279   9.606  20.387  0.00  0.00    +0.000 A 
ATOM     24  C   UNL     1       0.706   9.808  19.079  0.00  0.00    +0.000 A 
ATOM     25  C   UNL     1       1.669   8.964  18.512  0.00  0.00    +0.000 A 
ENDBRANCH   2  20
TORSDOF 2
ENDMDL
MODEL 6
REMARK VINA RESULT:      -8.5      2.418      5.350
REMARK  Name = 
REMARK  2 active torsions:
REMARK  status: ('A' for Active; 'I' for Inactive)
REMARK    1  A    between atoms: C_7  and  C_8
REMARK    2  A    between atoms: C_9  and  C_10
REMARK                            x       y       z     vdW  Elec       q    Type
REMARK                         _______ _______ _______ _____ _____    ______ ____
ROOT
ATOM      1  C   UNL     1       3.366   5.467  18.680  0.00  0.00    +0.000 A 
ATOM      2  C   UNL     1       3.027   6.809  18.405  0.00  0.00    +0.000 A 
ATOM      3  N   UNL     1       3.741   7.192  17.289  0.00  0.00    +0.000 N 
ATOM      4  C   UNL     1       4.502   6.178  16.788  0.00  0.00    +0.000 A 
ATOM      5  C   UNL     1       5.338   6.176  15.660  0.00  0.00    +0.000 A 
ATOM      6  C   UNL     1       5.990   4.992  15.330  0.00  0.00    +0.000 A 
ATOM      7 CL   UNL     1       7.017   4.933  13.949  0.00  0.00    +0.000 Cl
ATOM      8  C   UNL     1       5.815   3.856  16.101  0.00  0.00    +0.000 A 
ATOM      9  C   UNL     1       4.973   3.878  17.218  0.00  0.00    +0.000 A 
ATOM     10  C   UNL     1       4.293   5.065  17.609  0.00  0.00    +0.000 A 
ATOM     11  H   UNL     1       3.677   8.106  16.862  0.00  0.00    +0.000 HD
ENDROOT
BRANCH   1  18
ATOM     12  F   UNL     1       0.935   3.630  20.924  0.00  0.00    +0.000 F 
ATOM     13  C   UNL     1       1.311   4.217  19.744  0.00  0.00    +0.000 C 
ATOM     14  C   UNL     1       0.983   3.248  18.611  0.00  0.00    +0.000 C 
ATOM     15  C   UNL     1       1.808   1.969  18.733  0.00  0.00    +0.000 C 
ATOM     16  N   UNL     1       3.235   2.237  18.879  0.00  0.00    +0.000 NA
ATOM     17  C   UNL     1       3.471   3.157  19.996  0.00  0.00    +0.000 C 
ATOM     18  C   UNL     1       2.814   4.549  19.814  0.00  0.00    +0.000 C 
ATOM     19  H   UNL     1       3.606   2.660  18.028  0.00  0.00    +0.000 HD
ENDBRANCH   1  18
BRANCH   2  20
ATOM     20  C   UNL     1       2.138   7.808  19.037  0.00  0.00    +0.000 A 
ATOM     21  C   UNL     1       1.631   8.892  18.295  0.00  0.00    +0.000 A 
ATOM     22  C   UNL     1       0.901   9.914  18.911  0.00  0.00    +0.000 A 
ATOM     23  C   UNL     1       0.686   9.881  20.284  0.00  0.00    +0.000 A 
ATOM     24  C   UNL     1       1.113   8.780  21.018  0.00  0.00    +0.000 A 
ATOM     25  C   UNL     1       1.782   7.725  20.385  0.00  0.00    +0.000 A 
ENDBRANCH   2  20
TORSDOF 2
ENDMDL
MODEL 7
REMARK VINA RESULT:      -7.4      1.523      2.085
REMARK  Name = 
REMARK  2 active torsions:
REMARK  status: ('A' for Active; 'I' for Inactive)
REMARK    1  A    between atoms: C_7  and  C_8
REMARK    2  A    between atoms: C_9  and  C_10
REMARK                            x       y       z     vdW  Elec       q    Type
REMARK                         _______ _______ _______ _____ _____    ______ ____
ROOT
ATOM      1  C   UNL     1       3.923   4.555  18.075  0.00  0.00    +0.000 A 
ATOM      2  C   UNL     1       4.491   5.272  17.000  0.00  0.00    +0.000 A 
ATOM      3  N   UNL     1       4.021   6.566  17.076  0.00  0.00    +0.000 N 
ATOM      4  C   UNL     1       3.208   6.760  18.153  0.00  0.00    +0.000 A 
ATOM      5  C   UNL     1       2.565   7.935  18.575  0.00  0.00    +0.000 A 
ATOM      6  C   UNL     1       1.808   7.885  19.740  0.00  0.00    +0.000 A 
ATOM      7 CL   UNL     1       1.009   9.302  20.306  0.00  0.00    +0.000 Cl
ATOM      8  C   UNL     1       1.695   6.705  20.455  0.00  0.00    +0.000 A 
ATOM      9  C   UNL     1       2.349   5.547  20.020  0.00  0.00    +0.000 A 
ATOM     10  C   UNL     1       3.124   5.537  18.828  0.00  0.00    +0.000 A 
ATOM     11  H   UNL     1       4.281   7.302  16.433  0.00  0.00    +0.000 HD
ENDROOT
BRANCH   1  18
ATOM     12  F   UNL     1       4.617   1.473  20.158  0.00  0.00    +0.000 F 
ATOM     13  C   UNL     1       4.154   2.750  19.974  0.00  0.00    +0.000 C 
ATOM     14  C   UNL     1       2.757   2.836  20.584  0.00  0.00    +0.000 C 
ATOM     15  C   UNL     1       1.785   1.918  19.847  0.00  0.00    +0.000 C 
ATOM     16  N   UNL     1       1.806   2.126  18.403  0.00  0.00    +0.000 NA
ATOM     17  C   UNL     1       3.173   2.009  17.889  0.00  0.00    +0.000 C 
ATOM     18  C   UNL     1       4.154   3.063  18.465  0.00  0.00    +0.000 C 
ATOM     19  H   UNL     1       1.452   3.055  18.173  0.00  0.00    +0.000 HD
ENDBRANCH   1  18
BRANCH   2  20
ATOM     20  C   UNL     1       5.406   4.929  15.891  0.00  0.00    +0.000 A 
ATOM     21  C   UNL     1       6.715   5.447  15.852  0.00  0.00    +0.000 A 
ATOM     22  C   UNL     1       7.544   5.241  14.744  0.00  0.00    +0.000 A 
ATOM     23  C   UNL     1       7.069   4.534  13.646  0.00  0.00    +0.000 A 
ATOM     24  C   UNL     1       5.808   3.950  13.700  0.00  0.00    +0.000 A 
ATOM     25  C   UNL     1       5.008   4.099  14.839  0.00  0.00    +0.000 A 
ENDBRANCH   2  20
TORSDOF 2
ENDMDL
MODEL 8
REMARK VINA RESULT:      -7.4      2.270      4.648
REMARK  Name = 
REMARK  2 active torsions:
REMARK  status: ('A' for Active; 'I' for Inactive)
REMARK    1  A    between atoms: C_7  and  C_8
REMARK    2  A    between atoms: C_9  and  C_10
REMARK                            x       y       z     vdW  Elec       q    Type
REMARK                         _______ _______ _______ _____ _____    ______ ____
ROOT
ATOM      1  C   UNL     1       2.651   6.769  18.479  0.00  0.00    +0.000 A 
ATOM      2  C   UNL     1       2.023   6.198  19.606  0.00  0.00    +0.000 A 
ATOM      3  N   UNL     1       1.387   7.217  20.283  0.00  0.00    +0.000 N 
ATOM      4  C   UNL     1       1.524   8.420  19.655  0.00  0.00    +0.000 A 
ATOM      5  C   UNL     1       1.004   9.672  20.021  0.00  0.00    +0.000 A 
ATOM      6  C   UNL     1       1.257  10.756  19.187  0.00  0.00    +0.000 A 
ATOM      7 CL   UNL     1       0.631  12.310  19.585  0.00  0.00    +0.000 Cl
ATOM      8  C   UNL     1       2.004  10.595  18.033  0.00  0.00    +0.000 A 
ATOM      9  C   UNL     1       2.508   9.337  17.684  0.00  0.00    +0.000 A 
ATOM     10  C   UNL     1       2.292   8.198  18.507  0.00  0.00    +0.000 A 
ATOM     11  H   UNL     1       0.844   7.085  21.125  0.00  0.00    +0.000 HD
ENDROOT
BRANCH   1  18
ATOM     12  F   UNL     1       5.044   6.207  15.602  0.00  0.00    +0.000 F 
ATOM     13  C   UNL     1       4.595   6.876  16.711  0.00  0.00    +0.000 C 
ATOM     14  C   UNL     1       5.783   7.088  17.646  0.00  0.00    +0.000 C 
ATOM     15  C   UNL     1       6.328   5.752  18.144  0.00  0.00    +0.000 C 
ATOM     16  N   UNL     1       5.285   4.899  18.707  0.00  0.00    +0.000 NA
ATOM     17  C   UNL     1       4.192   4.727  17.747  0.00  0.00    +0.000 C 
ATOM     18  C   UNL     1       3.473   6.048  17.368  0.00  0.00    +0.000 C 
ATOM     19  H   UNL     1       4.907   5.317  19.558  0.00  0.00    +0.000 HD
ENDBRANCH   1  18
BRANCH   2  20
ATOM     20  C   UNL     1       1.933   4.832  20.165  0.00  0.00    +0.000 A 
ATOM     21  C   UNL     1       1.196   3.831  19.504  0.00  0.00    +0.000 A 
ATOM     22  C   UNL     1       0.992   2.575  20.087  0.00  0.00    +0.000 A 
ATOM     23  C   UNL     1       1.501   2.309  21.353  0.00  0.00    +0.000 A 
ATOM     24  C   UNL     1       2.296   3.259  21.986  0.00  0.00    +0.000 A 
ATOM     25  C   UNL     1       2.557   4.487  21.367  0.00  0.00    +0.000 A 
ENDBRANCH   2  20
TORSDOF 2
ENDMDL
MODEL 9
REMARK VINA RESULT:      -7.3      2.257      4.483
REMARK  Name = 
REMARK  2 active torsions:
REMARK  status: ('A' for Active; 'I' for Inactive)
REMARK    1  A    between atoms: C_7  and  C_8
REMARK    2  A    between atoms: C_9  and  C_10
REMARK                            x       y       z     vdW  Elec       q    Type
REMARK                         _______ _______ _______ _____ _____    ______ ____
ROOT
ATOM      1  C   UNL     1       2.561   6.742  18.537  0.00  0.00    +0.000 A 
ATOM      2  C   UNL     1       1.913   6.198  19.666  0.00  0.00    +0.000 A 
ATOM      3  N   UNL     1       1.304   7.240  20.331  0.00  0.00    +0.000 N 
ATOM      4  C   UNL     1       1.478   8.433  19.695  0.00  0.00    +0.000 A 
ATOM      5  C   UNL     1       0.993   9.703  20.050  0.00  0.00    +0.000 A 
ATOM      6  C   UNL     1       1.281  10.772  19.208  0.00  0.00    +0.000 A 
ATOM      7 CL   UNL     1       0.699  12.347  19.592  0.00  0.00    +0.000 Cl
ATOM      8  C   UNL     1       2.028  10.581  18.059  0.00  0.00    +0.000 A 
ATOM      9  C   UNL     1       2.496   9.306  17.721  0.00  0.00    +0.000 A 
ATOM     10  C   UNL     1       2.244   8.180  18.552  0.00  0.00    +0.000 A 
ATOM     11  H   UNL     1       0.754   7.131  21.172  0.00  0.00    +0.000 HD
ENDROOT
BRANCH   1  18
ATOM     12  F   UNL     1       4.956   6.086  15.680  0.00  0.00    +0.000 F 
ATOM     13  C   UNL     1       4.521   6.775  16.784  0.00  0.00    +0.000 C 
ATOM     14  C   UNL     1       5.709   6.949  17.727  0.00  0.00    +0.000 C 
ATOM     15  C   UNL     1       6.203   5.597  18.235  0.00  0.00    +0.000 C 
ATOM     16  N   UNL     1       5.128   4.783  18.793  0.00  0.00    +0.000 NA
ATOM     17  C   UNL     1       4.037   4.645  17.825  0.00  0.00    +0.000 C 
ATOM     18  C   UNL     1       3.367   5.988  17.434  0.00  0.00    +0.000 C 
ATOM     19  H   UNL     1       4.758   5.216  19.638  0.00  0.00    +0.000 HD
ENDBRANCH   1  18
BRANCH   2  20
ATOM     20  C   UNL     1       1.781   4.839  20.235  0.00  0.00    +0.000 A 
ATOM     21  C   UNL     1       2.469   4.481  21.410  0.00  0.00    +0.000 A 
ATOM     22  C   UNL     1       2.460   3.165  21.884  0.00  0.00    +0.000 A 
ATOM     23  C   UNL     1       1.784   2.179  21.175  0.00  0.00    +0.000 A 
ATOM     24  C   UNL     1       1.036   2.529  20.056  0.00  0.00    +0.000 A 
ATOM     25  C   UNL     1       0.990   3.861  19.626  0.00  0.00    +0.000 A 
ENDBRANCH   2  20
TORSDOF 2
ENDMDL
