MODEL 1
REMARK VINA RESULT:      -7.6      0.000      0.000
REMARK  Name = 
REMARK  7 active torsions:
REMARK  status: ('A' for Active; 'I' for Inactive)
REMARK    1  A    between atoms: C_1  and  C_2
REMARK    2  A    between atoms: C_8  and  C_9
REMARK    3  A    between atoms: C_9  and  N_10
REMARK    4  A    between atoms: N_10  and  C_11
REMARK    5  A    between atoms: N_14  and  C_15
REMARK    6  A    between atoms: C_15  and  C_16
REMARK    7  A    between atoms: C_16  and  C_17
REMARK                            x       y       z     vdW  Elec       q    Type
REMARK                         _______ _______ _______ _____ _____    ______ ____
ROOT
ATOM      1  N   UNL     1       2.324   5.359  20.994  0.00  0.00    +0.000 NA
ATOM      2  H   UNL     1       2.528   5.783  21.900  0.00  0.00    +0.000 HD
ENDROOT
BRANCH   1   3
ATOM      3  C   UNL     1       1.714   4.034  21.211  0.00  0.00    +0.000 C 
ATOM      4  C   UNL     1       2.843   3.018  21.411  0.00  0.00    +0.000 C 
ATOM      5  C   UNL     1       3.623   2.777  20.115  0.00  0.00    +0.000 C 
ATOM      6  N   UNL     1       2.753   2.328  19.013  0.00  0.00    +0.000 NA
ATOM      7  C   UNL     1       1.670   3.303  18.782  0.00  0.00    +0.000 C 
ATOM      8  C   UNL     1       0.845   3.529  20.050  0.00  0.00    +0.000 C 
BRANCH   6   9
ATOM      9  C   UNL     1       3.522   2.141  17.765  0.00  0.00    +0.000 C 
BRANCH   9  10
ATOM     10  C   UNL     1       3.373   3.319  16.787  0.00  0.00    +0.000 C 
BRANCH  10  11
ATOM     11  C   UNL     1       4.587   4.209  16.754  0.00  0.00    +0.000 A 
ATOM     12  C   UNL     1       4.617   5.392  17.507  0.00  0.00    +0.000 A 
ATOM     13  C   UNL     1       5.752   6.201  17.506  0.00  0.00    +0.000 A 
ATOM     14  C   UNL     1       6.863   5.843  16.744  0.00  0.00    +0.000 A 
ATOM     15  C   UNL     1       6.838   4.676  15.979  0.00  0.00    +0.000 A 
ATOM     16  C   UNL     1       5.702   3.865  15.980  0.00  0.00    +0.000 A 
ENDBRANCH  10  11
ENDBRANCH   9  10
ENDBRANCH   6   9
ENDBRANCH   1   3
BRANCH   1  17
ATOM     17  C   UNL     1       1.509   6.270  20.197  0.00  0.00    +0.000 C 
BRANCH  17  25
ATOM     18  C   UNL     1      -1.287  12.269  18.072  0.00  0.00    +0.000 C 
ATOM     19  C   UNL     1      -0.594  11.260  18.904  0.00  0.00    +0.000 A 
ATOM     20  C   UNL     1      -0.647  11.106  20.314  0.00  0.00    +0.000 A 
ATOM     21  C   UNL     1       0.212  10.073  20.588  0.00  0.00    +0.000 A 
ATOM     22  N   UNL     1       0.684   9.653  19.383  0.00  0.00    +0.000 N 
ATOM     23  N   UNL     1       0.219  10.359  18.335  0.00  0.00    +0.000 NA
ATOM     24  C   UNL     1       1.654   8.605  19.202  0.00  0.00    +0.000 C 
ATOM     25  C   UNL     1       1.910   7.738  20.453  0.00  0.00    +0.000 C 
ATOM     26  C   UNL     1       1.230   8.197  21.760  0.00  0.00    +0.000 C 
ATOM     27  N   UNL     1       0.632   9.519  21.742  0.00  0.00    +0.000 N 
ATOM     28  H   UNL     1       0.144   9.769  22.601  0.00  0.00    +0.000 HD
ENDBRANCH  17  25
ENDBRANCH   1  17
TORSDOF 6
ENDMDL
MODEL 2
REMARK VINA RESULT:      -7.5      3.817      7.051
REMARK  Name = 
REMARK  7 active torsions:
REMARK  status: ('A' for Active; 'I' for Inactive)
REMARK    1  A    between atoms: C_1  and  C_2
REMARK    2  A    between atoms: C_8  and  C_9
REMARK    3  A    between atoms: C_9  and  N_10
REMARK    4  A    between atoms: N_10  and  C_11
REMARK    5  A    between atoms: N_14  and  C_15
REMARK    6  A    between atoms: C_15  and  C_16
REMARK    7  A    between atoms: C_16  and  C_17
REMARK                            x       y       z     vdW  Elec       q    Type
REMARK                         _______ _______ _______ _____ _____    ______ ____
ROOT
ATOM      1  N   UNL     1       5.563   4.093  17.499  0.00  0.00    +0.000 NA
ATOM      2  H   UNL     1       5.549   3.226  18.038  0.00  0.00    +0.000 HD
ENDROOT
BRANCH   1   3
ATOM      3  C   UNL     1       6.841   4.185  16.771  0.00  0.00    +0.000 C 
ATOM      4  C   UNL     1       7.933   4.574  17.773  0.00  0.00    +0.000 C 
ATOM      5  C   UNL     1       7.765   6.016  18.260  0.00  0.00    +0.000 C 
ATOM      6  N   UNL     1       7.756   6.985  17.149  0.00  0.00    +0.000 NA
ATOM      7  C   UNL     1       6.695   6.648  16.180  0.00  0.00    +0.000 C 
ATOM      8  C   UNL     1       6.864   5.225  15.642  0.00  0.00    +0.000 C 
BRANCH   6   9
ATOM      9  C   UNL     1       7.553   8.364  17.640  0.00  0.00    +0.000 C 
BRANCH   9  10
ATOM     10  C   UNL     1       8.608   8.793  18.676  0.00  0.00    +0.000 C 
BRANCH  10  11
ATOM     11  C   UNL     1       8.978  10.248  18.567  0.00  0.00    +0.000 A 
ATOM     12  C   UNL     1       8.269  11.095  17.703  0.00  0.00    +0.000 A 
ATOM     13  C   UNL     1       8.587  12.450  17.624  0.00  0.00    +0.000 A 
ATOM     14  C   UNL     1       9.623  12.969  18.398  0.00  0.00    +0.000 A 
ATOM     15  C   UNL     1      10.346  12.131  19.249  0.00  0.00    +0.000 A 
ATOM     16  C   UNL     1      10.027  10.775  19.330  0.00  0.00    +0.000 A 
ENDBRANCH  10  11
ENDBRANCH   9  10
ENDBRANCH   6   9
ENDBRANCH   1   3
BRANCH   1  17
ATOM     17  C   UNL     1       4.381   4.162  16.646  0.00  0.00    +0.000 C 
BRANCH  17  25
ATOM     18  C   UNL     1       1.028   2.249  22.428  0.00  0.00    +0.000 C 
ATOM     19  C   UNL     1       1.631   3.087  21.366  0.00  0.00    +0.000 A 
ATOM     20  C   UNL     1       2.287   4.337  21.508  0.00  0.00    +0.000 A 
ATOM     21  C   UNL     1       2.603   4.716  20.229  0.00  0.00    +0.000 A 
ATOM     22  N   UNL     1       2.178   3.704  19.426  0.00  0.00    +0.000 N 
ATOM     23  N   UNL     1       1.574   2.697  20.086  0.00  0.00    +0.000 NA
ATOM     24  C   UNL     1       2.273   3.700  17.989  0.00  0.00    +0.000 C 
ATOM     25  C   UNL     1       3.190   4.792  17.400  0.00  0.00    +0.000 C 
ATOM     26  C   UNL     1       3.750   5.831  18.393  0.00  0.00    +0.000 C 
ATOM     27  N   UNL     1       3.164   5.830  19.721  0.00  0.00    +0.000 N 
ATOM     28  H   UNL     1       3.594   6.490  20.368  0.00  0.00    +0.000 HD
ENDBRANCH  17  25
ENDBRANCH   1  17
TORSDOF 6
ENDMDL
MODEL 3
REMARK VINA RESULT:      -7.3      1.724      4.591
REMARK  Name = 
REMARK  7 active torsions:
REMARK  status: ('A' for Active; 'I' for Inactive)
REMARK    1  A    between atoms: C_1  and  C_2
REMARK    2  A    between atoms: C_8  and  C_9
REMARK    3  A    between atoms: C_9  and  N_10
REMARK    4  A    between atoms: N_10  and  C_11
REMARK    5  A    between atoms: N_14  and  C_15
REMARK    6  A    between atoms: C_15  and  C_16
REMARK    7  A    between atoms: C_16  and  C_17
REMARK                            x       y       z     vdW  Elec       q    Type
REMARK                         _______ _______ _______ _____ _____    ______ ____
ROOT
ATOM      1  N   UNL     1       4.397   7.244  16.697  0.00  0.00    +0.000 NA
ATOM      2  H   UNL     1       4.360   8.121  16.176  0.00  0.00    +0.000 HD
ENDROOT
BRANCH   1   3
ATOM      3  C   UNL     1       5.729   6.637  16.520  0.00  0.00    +0.000 C 
ATOM      4  C   UNL     1       5.630   5.591  15.405  0.00  0.00    +0.000 C 
ATOM      5  C   UNL     1       4.805   4.376  15.841  0.00  0.00    +0.000 C 
ATOM      6  N   UNL     1       5.343   3.741  17.058  0.00  0.00    +0.000 NA
ATOM      7  C   UNL     1       5.425   4.723  18.158  0.00  0.00    +0.000 C 
ATOM      8  C   UNL     1       6.282   5.928  17.765  0.00  0.00    +0.000 C 
BRANCH   6   9
ATOM      9  C   UNL     1       4.509   2.597  17.481  0.00  0.00    +0.000 C 
BRANCH   9  10
ATOM     10  C   UNL     1       3.005   2.922  17.490  0.00  0.00    +0.000 C 
BRANCH  10  11
ATOM     11  C   UNL     1       2.438   3.029  18.881  0.00  0.00    +0.000 A 
ATOM     12  C   UNL     1       3.129   2.477  19.970  0.00  0.00    +0.000 A 
ATOM     13  C   UNL     1       2.624   2.603  21.264  0.00  0.00    +0.000 A 
ATOM     14  C   UNL     1       1.420   3.272  21.479  0.00  0.00    +0.000 A 
ATOM     15  C   UNL     1       0.717   3.811  20.401  0.00  0.00    +0.000 A 
ATOM     16  C   UNL     1       1.222   3.685  19.106  0.00  0.00    +0.000 A 
ENDBRANCH  10  11
ENDBRANCH   9  10
ENDBRANCH   6   9
ENDBRANCH   1   3
BRANCH   1  17
ATOM     17  C   UNL     1       4.027   7.481  18.088  0.00  0.00    +0.000 C 
BRANCH  17  25
ATOM     18  C   UNL     1      -0.017   9.676  23.300  0.00  0.00    +0.000 C 
ATOM     19  C   UNL     1       0.474   9.368  21.937  0.00  0.00    +0.000 A 
ATOM     20  C   UNL     1       0.289  10.124  20.751  0.00  0.00    +0.000 A 
ATOM     21  C   UNL     1       0.883   9.382  19.763  0.00  0.00    +0.000 A 
ATOM     22  N   UNL     1       1.407   8.290  20.383  0.00  0.00    +0.000 N 
ATOM     23  N   UNL     1       1.170   8.246  21.709  0.00  0.00    +0.000 NA
ATOM     24  C   UNL     1       2.091   7.215  19.714  0.00  0.00    +0.000 C 
ATOM     25  C   UNL     1       2.493   7.515  18.255  0.00  0.00    +0.000 C 
ATOM     26  C   UNL     1       1.977   8.840  17.656  0.00  0.00    +0.000 C 
ATOM     27  N   UNL     1       0.970   9.544  18.429  0.00  0.00    +0.000 N 
ATOM     28  H   UNL     1       0.692  10.441  18.034  0.00  0.00    +0.000 HD
ENDBRANCH  17  25
ENDBRANCH   1  17
TORSDOF 6
ENDMDL
MODEL 4
REMARK VINA RESULT:      -7.3      2.440      6.710
REMARK  Name = 
REMARK  7 active torsions:
REMARK  status: ('A' for Active; 'I' for Inactive)
REMARK    1  A    between atoms: C_1  and  C_2
REMARK    2  A    between atoms: C_8  and  C_9
REMARK    3  A    between atoms: C_9  and  N_10
REMARK    4  A    between atoms: N_10  and  C_11
REMARK    5  A    between atoms: N_14  and  C_15
REMARK    6  A    between atoms: C_15  and  C_16
REMARK    7  A    between atoms: C_16  and  C_17
REMARK                            x       y       z     vdW  Elec       q    Type
REMARK                         _______ _______ _______ _____ _____    ______ ____
ROOT
ATOM      1  N   UNL     1       4.167   2.836  18.662  0.00  0.00    +0.000 NA
ATOM      2  H   UNL     1       4.643   2.168  18.054  0.00  0.00    +0.000 HD
ENDROOT
BRANCH   1   3
ATOM      3  C   UNL     1       3.129   2.129  19.434  0.00  0.00    +0.000 C 
ATOM      4  C   UNL     1       1.779   2.376  18.752  0.00  0.00    +0.000 C 
ATOM      5  C   UNL     1       1.326   3.831  18.908  0.00  0.00    +0.000 C 
ATOM      6  N   UNL     1       1.241   4.242  20.321  0.00  0.00    +0.000 NA
ATOM      7  C   UNL     1       2.538   4.038  20.996  0.00  0.00    +0.000 C 
ATOM      8  C   UNL     1       2.994   2.581  20.894  0.00  0.00    +0.000 C 
BRANCH   6   9
ATOM      9  C   UNL     1       0.840   5.660  20.445  0.00  0.00    +0.000 C 
BRANCH   9  10
ATOM     10  C   UNL     1       2.039   6.624  20.455  0.00  0.00    +0.000 C 
BRANCH  10  11
ATOM     11  C   UNL     1       1.724   7.957  19.830  0.00  0.00    +0.000 A 
ATOM     12  C   UNL     1       2.079   8.215  18.498  0.00  0.00    +0.000 A 
ATOM     13  C   UNL     1       1.759   9.436  17.906  0.00  0.00    +0.000 A 
ATOM     14  C   UNL     1       1.091  10.413  18.642  0.00  0.00    +0.000 A 
ATOM     15  C   UNL     1       0.747  10.173  19.973  0.00  0.00    +0.000 A 
ATOM     16  C   UNL     1       1.066   8.951  20.566  0.00  0.00    +0.000 A 
ENDBRANCH  10  11
ENDBRANCH   9  10
ENDBRANCH   6   9
ENDBRANCH   1   3
BRANCH   1  17
ATOM     17  C   UNL     1       5.148   3.539  19.483  0.00  0.00    +0.000 C 
BRANCH  17  25
ATOM     18  C   UNL     1       7.581   4.857  13.105  0.00  0.00    +0.000 C 
ATOM     19  C   UNL     1       6.881   5.011  14.401  0.00  0.00    +0.000 A 
ATOM     20  C   UNL     1       5.640   5.653  14.651  0.00  0.00    +0.000 A 
ATOM     21  C   UNL     1       5.471   5.573  16.010  0.00  0.00    +0.000 A 
ATOM     22  N   UNL     1       6.546   4.884  16.479  0.00  0.00    +0.000 N 
ATOM     23  N   UNL     1       7.430   4.532  15.526  0.00  0.00    +0.000 NA
ATOM     24  C   UNL     1       6.798   4.602  17.868  0.00  0.00    +0.000 C 
ATOM     25  C   UNL     1       5.598   4.851  18.805  0.00  0.00    +0.000 C 
ATOM     26  C   UNL     1       4.356   5.512  18.174  0.00  0.00    +0.000 C 
ATOM     27  N   UNL     1       4.528   6.059  16.840  0.00  0.00    +0.000 N 
ATOM     28  H   UNL     1       3.675   6.438  16.431  0.00  0.00    +0.000 HD
ENDBRANCH  17  25
ENDBRANCH   1  17
TORSDOF 6
ENDMDL
MODEL 5
REMARK VINA RESULT:      -7.3      0.697      1.026
REMARK  Name = 
REMARK  7 active torsions:
REMARK  status: ('A' for Active; 'I' for Inactive)
REMARK    1  A    between atoms: C_1  and  C_2
REMARK    2  A    between atoms: C_8  and  C_9
REMARK    3  A    between atoms: C_9  and  N_10
REMARK    4  A    between atoms: N_10  and  C_11
REMARK    5  A    between atoms: N_14  and  C_15
REMARK    6  A    between atoms: C_15  and  C_16
REMARK    7  A    between atoms: C_16  and  C_17
REMARK                            x       y       z     vdW  Elec       q    Type
REMARK                         _______ _______ _______ _____ _____    ______ ____
ROOT
ATOM      1  N   UNL     1       2.132   5.529  20.879  0.00  0.00    +0.000 NA
ATOM      2  H   UNL     1       2.825   5.744  21.597  0.00  0.00    +0.000 HD
ENDROOT
BRANCH   1   3
ATOM      3  C   UNL     1       1.606   4.172  21.111  0.00  0.00    +0.000 C 
ATOM      4  C   UNL     1       2.795   3.234  21.342  0.00  0.00    +0.000 C 
ATOM      5  C   UNL     1       3.606   3.022  20.060  0.00  0.00    +0.000 C 
ATOM      6  N   UNL     1       2.781   2.500  18.956  0.00  0.00    +0.000 NA
ATOM      7  C   UNL     1       1.640   3.399  18.695  0.00  0.00    +0.000 C 
ATOM      8  C   UNL     1       0.786   3.593  19.949  0.00  0.00    +0.000 C 
BRANCH   6   9
ATOM      9  C   UNL     1       3.576   2.342  17.720  0.00  0.00    +0.000 C 
BRANCH   9  10
ATOM     10  C   UNL     1       3.560   3.598  16.832  0.00  0.00    +0.000 C 
BRANCH  10  11
ATOM     11  C   UNL     1       4.941   4.068  16.456  0.00  0.00    +0.000 A 
ATOM     12  C   UNL     1       5.282   4.253  15.109  0.00  0.00    +0.000 A 
ATOM     13  C   UNL     1       6.549   4.720  14.759  0.00  0.00    +0.000 A 
ATOM     14  C   UNL     1       7.487   4.996  15.751  0.00  0.00    +0.000 A 
ATOM     15  C   UNL     1       7.163   4.801  17.094  0.00  0.00    +0.000 A 
ATOM     16  C   UNL     1       5.896   4.334  17.445  0.00  0.00    +0.000 A 
ENDBRANCH  10  11
ENDBRANCH   9  10
ENDBRANCH   6   9
ENDBRANCH   1   3
BRANCH   1  17
ATOM     17  C   UNL     1       1.111   6.570  20.852  0.00  0.00    +0.000 C 
BRANCH  17  25
ATOM     18  C   UNL     1      -1.015  12.526  17.962  0.00  0.00    +0.000 C 
ATOM     19  C   UNL     1      -0.379  11.564  18.891  0.00  0.00    +0.000 A 
ATOM     20  C   UNL     1      -0.278  11.652  20.304  0.00  0.00    +0.000 A 
ATOM     21  C   UNL     1       0.448  10.549  20.674  0.00  0.00    +0.000 A 
ATOM     22  N   UNL     1       0.698   9.866  19.526  0.00  0.00    +0.000 N 
ATOM     23  N   UNL     1       0.214  10.460  18.418  0.00  0.00    +0.000 NA
ATOM     24  C   UNL     1       1.472   8.655  19.443  0.00  0.00    +0.000 C 
ATOM     25  C   UNL     1       1.752   7.974  20.798  0.00  0.00    +0.000 C 
ATOM     26  C   UNL     1       1.317   8.746  22.061  0.00  0.00    +0.000 C 
ATOM     27  N   UNL     1       0.923  10.128  21.863  0.00  0.00    +0.000 N 
ATOM     28  H   UNL     1       0.589  10.593  22.706  0.00  0.00    +0.000 HD
ENDBRANCH  17  25
ENDBRANCH   1  17
TORSDOF 6
ENDMDL
MODEL 6
REMARK VINA RESULT:      -7.2      0.714      1.210
REMARK  Name = 
REMARK  7 active torsions:
REMARK  status: ('A' for Active; 'I' for Inactive)
REMARK    1  A    between atoms: C_1  and  C_2
REMARK    2  A    between atoms: C_8  and  C_9
REMARK    3  A    between atoms: C_9  and  N_10
REMARK    4  A    between atoms: N_10  and  C_11
REMARK    5  A    between atoms: N_14  and  C_15
REMARK    6  A    between atoms: C_15  and  C_16
REMARK    7  A    between atoms: C_16  and  C_17
REMARK                            x       y       z     vdW  Elec       q    Type
REMARK                         _______ _______ _______ _____ _____    ______ ____
ROOT
ATOM      1  N   UNL     1       2.192   5.441  21.051  0.00  0.00    +0.000 NA
ATOM      2  H   UNL     1       2.055   5.959  21.920  0.00  0.00    +0.000 HD
ENDROOT
BRANCH   1   3
ATOM      3  C   UNL     1       1.488   4.149  21.149  0.00  0.00    +0.000 C 
ATOM      4  C   UNL     1       2.529   3.060  21.426  0.00  0.00    +0.000 C 
ATOM      5  C   UNL     1       3.430   2.816  20.211  0.00  0.00    +0.000 C 
ATOM      6  N   UNL     1       2.659   2.458  19.006  0.00  0.00    +0.000 NA
ATOM      7  C   UNL     1       1.664   3.505  18.701  0.00  0.00    +0.000 C 
ATOM      8  C   UNL     1       0.722   3.738  19.884  0.00  0.00    +0.000 C 
BRANCH   6   9
ATOM      9  C   UNL     1       3.546   2.267  17.839  0.00  0.00    +0.000 C 
BRANCH   9  10
ATOM     10  C   UNL     1       4.903   2.976  17.994  0.00  0.00    +0.000 C 
BRANCH  10  11
ATOM     11  C   UNL     1       5.008   4.227  17.163  0.00  0.00    +0.000 A 
ATOM     12  C   UNL     1       5.479   4.162  15.844  0.00  0.00    +0.000 A 
ATOM     13  C   UNL     1       5.547   5.313  15.060  0.00  0.00    +0.000 A 
ATOM     14  C   UNL     1       5.153   6.540  15.590  0.00  0.00    +0.000 A 
ATOM     15  C   UNL     1       4.697   6.619  16.907  0.00  0.00    +0.000 A 
ATOM     16  C   UNL     1       4.629   5.468  17.691  0.00  0.00    +0.000 A 
ENDBRANCH  10  11
ENDBRANCH   9  10
ENDBRANCH   6   9
ENDBRANCH   1   3
BRANCH   1  17
ATOM     17  C   UNL     1       1.781   6.262  19.917  0.00  0.00    +0.000 C 
BRANCH  17  25
ATOM     18  C   UNL     1      -1.561  12.037  17.965  0.00  0.00    +0.000 C 
ATOM     19  C   UNL     1      -0.762  11.078  18.762  0.00  0.00    +0.000 A 
ATOM     20  C   UNL     1      -0.759  10.902  20.170  0.00  0.00    +0.000 A 
ATOM     21  C   UNL     1       0.190   9.940  20.403  0.00  0.00    +0.000 A 
ATOM     22  N   UNL     1       0.658   9.575  19.179  0.00  0.00    +0.000 N 
ATOM     23  N   UNL     1       0.104  10.254  18.156  0.00  0.00    +0.000 NA
ATOM     24  C   UNL     1       1.704   8.613  18.954  0.00  0.00    +0.000 C 
ATOM     25  C   UNL     1       2.068   7.755  20.183  0.00  0.00    +0.000 C 
ATOM     26  C   UNL     1       1.394   8.140  21.516  0.00  0.00    +0.000 C 
ATOM     27  N   UNL     1       0.689   9.409  21.536  0.00  0.00    +0.000 N 
ATOM     28  H   UNL     1       0.209   9.607  22.413  0.00  0.00    +0.000 HD
ENDBRANCH  17  25
ENDBRANCH   1  17
TORSDOF 6
ENDMDL
MODEL 7
REMARK VINA RESULT:      -7.2      0.954      1.300
REMARK  Name = 
REMARK  7 active torsions:
REMARK  status: ('A' for Active; 'I' for Inactive)
REMARK    1  A    between atoms: C_1  and  C_2
REMARK    2  A    between atoms: C_8  and  C_9
REMARK    3  A    between atoms: C_9  and  N_10
REMARK    4  A    between atoms: N_10  and  C_11
REMARK    5  A    between atoms: N_14  and  C_15
REMARK    6  A    between atoms: C_15  and  C_16
REMARK    7  A    between atoms: C_16  and  C_17
REMARK                            x       y       z     vdW  Elec       q    Type
REMARK                         _______ _______ _______ _____ _____    ______ ____
ROOT
ATOM      1  N   UNL     1       2.055   5.787  20.709  0.00  0.00    +0.000 NA
ATOM      2  H   UNL     1       2.912   5.817  21.261  0.00  0.00    +0.000 HD
ENDROOT
BRANCH   1   3
ATOM      3  C   UNL     1       1.547   4.403  20.687  0.00  0.00    +0.000 C 
ATOM      4  C   UNL     1       2.702   3.467  21.057  0.00  0.00    +0.000 C 
ATOM      5  C   UNL     1       3.761   3.411  19.952  0.00  0.00    +0.000 C 
ATOM      6  N   UNL     1       3.195   2.998  18.655  0.00  0.00    +0.000 NA
ATOM      7  C   UNL     1       2.095   3.901  18.262  0.00  0.00    +0.000 C 
ATOM      8  C   UNL     1       1.000   3.940  19.330  0.00  0.00    +0.000 C 
BRANCH   6   9
ATOM      9  C   UNL     1       4.227   2.991  17.597  0.00  0.00    +0.000 C 
BRANCH   9  10
ATOM     10  C   UNL     1       4.305   4.320  16.826  0.00  0.00    +0.000 C 
BRANCH  10  11
ATOM     11  C   UNL     1       5.464   5.180  17.256  0.00  0.00    +0.000 A 
ATOM     12  C   UNL     1       6.532   4.619  17.972  0.00  0.00    +0.000 A 
ATOM     13  C   UNL     1       7.623   5.404  18.343  0.00  0.00    +0.000 A 
ATOM     14  C   UNL     1       7.652   6.758  18.012  0.00  0.00    +0.000 A 
ATOM     15  C   UNL     1       6.587   7.329  17.314  0.00  0.00    +0.000 A 
ATOM     16  C   UNL     1       5.495   6.544  16.942  0.00  0.00    +0.000 A 
ENDBRANCH  10  11
ENDBRANCH   9  10
ENDBRANCH   6   9
ENDBRANCH   1   3
BRANCH   1  17
ATOM     17  C   UNL     1       1.103   6.765  21.224  0.00  0.00    +0.000 C 
BRANCH  17  25
ATOM     18  C   UNL     1      -1.696  12.069  17.706  0.00  0.00    +0.000 C 
ATOM     19  C   UNL     1      -0.940  11.300  18.720  0.00  0.00    +0.000 A 
ATOM     20  C   UNL     1      -0.807  11.577  20.105  0.00  0.00    +0.000 A 
ATOM     21  C   UNL     1       0.037  10.606  20.580  0.00  0.00    +0.000 A 
ATOM     22  N   UNL     1       0.321   9.808  19.516  0.00  0.00    +0.000 N 
ATOM     23  N   UNL     1      -0.252  10.206  18.363  0.00  0.00    +0.000 NA
ATOM     24  C   UNL     1       1.211   8.677  19.552  0.00  0.00    +0.000 C 
ATOM     25  C   UNL     1       1.597   8.205  20.969  0.00  0.00    +0.000 C 
ATOM     26  C   UNL     1       1.124   9.087  22.143  0.00  0.00    +0.000 C 
ATOM     27  N   UNL     1       0.586  10.388  21.790  0.00  0.00    +0.000 N 
ATOM     28  H   UNL     1       0.231  10.922  22.583  0.00  0.00    +0.000 HD
ENDBRANCH  17  25
ENDBRANCH   1  17
TORSDOF 6
ENDMDL
MODEL 8
REMARK VINA RESULT:      -7.1      2.130      8.310
REMARK  Name = 
REMARK  7 active torsions:
REMARK  status: ('A' for Active; 'I' for Inactive)
REMARK    1  A    between atoms: C_1  and  C_2
REMARK    2  A    between atoms: C_8  and  C_9
REMARK    3  A    between atoms: C_9  and  N_10
REMARK    4  A    between atoms: N_10  and  C_11
REMARK    5  A    between atoms: N_14  and  C_15
REMARK    6  A    between atoms: C_15  and  C_16
REMARK    7  A    between atoms: C_16  and  C_17
REMARK                            x       y       z     vdW  Elec       q    Type
REMARK                         _______ _______ _______ _____ _____    ______ ____
ROOT
ATOM      1  N   UNL     1       2.096   5.601  18.145  0.00  0.00    +0.000 NA
ATOM      2  H   UNL     1       1.173   6.037  18.155  0.00  0.00    +0.000 HD
ENDROOT
BRANCH   1   3
ATOM      3  C   UNL     1       3.098   6.590  18.583  0.00  0.00    +0.000 C 
ATOM      4  C   UNL     1       2.714   7.067  19.987  0.00  0.00    +0.000 C 
ATOM      5  C   UNL     1       1.442   7.923  19.965  0.00  0.00    +0.000 C 
ATOM      6  N   UNL     1       1.568   9.088  19.072  0.00  0.00    +0.000 NA
ATOM      7  C   UNL     1       1.913   8.654  17.703  0.00  0.00    +0.000 C 
ATOM      8  C   UNL     1       3.205   7.835  17.690  0.00  0.00    +0.000 C 
BRANCH   6   9
ATOM      9  C   UNL     1       0.317   9.875  19.037  0.00  0.00    +0.000 C 
BRANCH   9  10
ATOM     10  C   UNL     1       0.460  11.258  19.696  0.00  0.00    +0.000 C 
BRANCH  10  11
ATOM     11  C   UNL     1      -0.398  11.413  20.924  0.00  0.00    +0.000 A 
ATOM     12  C   UNL     1      -1.356  12.434  20.993  0.00  0.00    +0.000 A 
ATOM     13  C   UNL     1      -2.175  12.560  22.114  0.00  0.00    +0.000 A 
ATOM     14  C   UNL     1      -2.037  11.673  23.181  0.00  0.00    +0.000 A 
ATOM     15  C   UNL     1      -1.075  10.663  23.129  0.00  0.00    +0.000 A 
ATOM     16  C   UNL     1      -0.256  10.536  22.007  0.00  0.00    +0.000 A 
ENDBRANCH  10  11
ENDBRANCH   9  10
ENDBRANCH   6   9
ENDBRANCH   1   3
BRANCH   1  17
ATOM     17  C   UNL     1       2.073   4.380  18.942  0.00  0.00    +0.000 C 
BRANCH  17  25
ATOM     18  C   UNL     1       7.152   5.007  14.236  0.00  0.00    +0.000 C 
ATOM     19  C   UNL     1       6.409   4.622  15.458  0.00  0.00    +0.000 A 
ATOM     20  C   UNL     1       6.907   4.504  16.781  0.00  0.00    +0.000 A 
ATOM     21  C   UNL     1       5.839   4.065  17.521  0.00  0.00    +0.000 A 
ATOM     22  N   UNL     1       4.794   3.986  16.655  0.00  0.00    +0.000 N 
ATOM     23  N   UNL     1       5.107   4.312  15.386  0.00  0.00    +0.000 NA
ATOM     24  C   UNL     1       3.475   3.526  17.001  0.00  0.00    +0.000 C 
ATOM     25  C   UNL     1       3.204   3.420  18.516  0.00  0.00    +0.000 C 
ATOM     26  C   UNL     1       4.409   3.657  19.449  0.00  0.00    +0.000 C 
ATOM     27  N   UNL     1       5.713   3.707  18.814  0.00  0.00    +0.000 N 
ATOM     28  H   UNL     1       6.480   3.920  19.450  0.00  0.00    +0.000 HD
ENDBRANCH  17  25
ENDBRANCH   1  17
TORSDOF 6
ENDMDL
MODEL 9
REMARK VINA RESULT:      -7.1      4.231      6.310
REMARK  Name = 
REMARK  7 active torsions:
REMARK  status: ('A' for Active; 'I' for Inactive)
REMARK    1  A    between atoms: C_1  and  C_2
REMARK    2  A    between atoms: C_8  and  C_9
REMARK    3  A    between atoms: C_9  and  N_10
REMARK    4  A    between atoms: N_10  and  C_11
REMARK    5  A    between atoms: N_14  and  C_15
REMARK    6  A    between atoms: C_15  and  C_16
REMARK    7  A    between atoms: C_16  and  C_17
REMARK                            x       y       z     vdW  Elec       q    Type
REMARK                         _______ _______ _______ _____ _____    ______ ____
ROOT
ATOM      1  N   UNL     1       5.407   5.162  18.964  0.00  0.00    +0.000 NA
ATOM      2  H   UNL     1       5.820   5.246  19.894  0.00  0.00    +0.000 HD
ENDROOT
BRANCH   1   3
ATOM      3  C   UNL     1       6.476   4.880  17.988  0.00  0.00    +0.000 C 
ATOM      4  C   UNL     1       7.819   5.223  18.641  0.00  0.00    +0.000 C 
ATOM      5  C   UNL     1       7.984   6.734  18.834  0.00  0.00    +0.000 C 
ATOM      6  N   UNL     1       7.854   7.477  17.568  0.00  0.00    +0.000 NA
ATOM      7  C   UNL     1       6.555   7.184  16.930  0.00  0.00    +0.000 C 
ATOM      8  C   UNL     1       6.383   5.684  16.684  0.00  0.00    +0.000 C 
BRANCH   6   9
ATOM      9  C   UNL     1       7.977   8.934  17.786  0.00  0.00    +0.000 C 
BRANCH   9  10
ATOM     10  C   UNL     1       8.942   9.290  18.930  0.00  0.00    +0.000 C 
BRANCH  10  11
ATOM     11  C   UNL     1       9.345  10.741  18.926  0.00  0.00    +0.000 A 
ATOM     12  C   UNL     1       8.930  11.587  17.888  0.00  0.00    +0.000 A 
ATOM     13  C   UNL     1       9.272  12.939  17.898  0.00  0.00    +0.000 A 
ATOM     14  C   UNL     1      10.040  13.455  18.940  0.00  0.00    +0.000 A 
ATOM     15  C   UNL     1      10.471  12.618  19.971  0.00  0.00    +0.000 A 
ATOM     16  C   UNL     1      10.129  11.266  19.961  0.00  0.00    +0.000 A 
ENDBRANCH  10  11
ENDBRANCH   9  10
ENDBRANCH   6   9
ENDBRANCH   1   3
BRANCH   1  17
ATOM     17  C   UNL     1       4.341   4.167  18.987  0.00  0.00    +0.000 C 
BRANCH  17  25
ATOM     18  C   UNL     1       0.699   9.163  22.168  0.00  0.00    +0.000 C 
ATOM     19  C   UNL     1       1.271   8.298  21.111  0.00  0.00    +0.000 A 
ATOM     20  C   UNL     1       1.677   8.672  19.803  0.00  0.00    +0.000 A 
ATOM     21  C   UNL     1       2.074   7.501  19.210  0.00  0.00    +0.000 A 
ATOM     22  N   UNL     1       1.932   6.537  20.158  0.00  0.00    +0.000 N 
ATOM     23  N   UNL     1       1.437   6.986  21.328  0.00  0.00    +0.000 NA
ATOM     24  C   UNL     1       2.198   5.137  19.953  0.00  0.00    +0.000 C 
ATOM     25  C   UNL     1       2.976   4.811  18.661  0.00  0.00    +0.000 C 
ATOM     26  C   UNL     1       3.223   5.984  17.690  0.00  0.00    +0.000 C 
ATOM     27  N   UNL     1       2.490   7.207  17.963  0.00  0.00    +0.000 N 
ATOM     28  H   UNL     1       2.717   7.979  17.337  0.00  0.00    +0.000 HD
ENDBRANCH  17  25
ENDBRANCH   1  17
TORSDOF 6
ENDMDL
