MODEL 1
REMARK VINA RESULT:      -6.0      0.000      0.000
REMARK  Name = 
REMARK  14 active torsions:
REMARK  status: ('A' for Active; 'I' for Inactive)
REMARK    1  A    between atoms: C_1  and  O_2
REMARK    2  A    between atoms: O_2  and  C_3
REMARK    3  A    between atoms: C_5  and  C_6
REMARK    4  A    between atoms: C_6  and  O_8
REMARK    5  A    between atoms: O_8  and  C_9
REMARK    6  A    between atoms: C_9  and  C_10
REMARK    7  A    between atoms: C_10  and  C_11
REMARK    8  A    between atoms: C_11  and  N_12
REMARK    9  A    between atoms: N_12  and  C_13
REMARK   10  A    between atoms: N_12  and  C_14
REMARK   11  A    between atoms: C_16  and  O_17
REMARK   12  A    between atoms: O_17  and  C_18
REMARK   13  A    between atoms: C_19  and  O_20
REMARK   14  A    between atoms: O_20  and  C_21
REMARK                            x       y       z     vdW  Elec       q    Type
REMARK                         _______ _______ _______ _____ _____    ______ ____
ROOT
ATOM      1  C   UNL     1       3.978   6.338  17.489  0.00  0.00    +0.000 A 
ATOM      2  C   UNL     1       3.173   5.202  17.739  0.00  0.00    +0.000 A 
ATOM      3  C   UNL     1       3.573   3.924  17.343  0.00  0.00    +0.000 A 
ATOM      4  C   UNL     1       4.785   3.768  16.670  0.00  0.00    +0.000 A 
ATOM      5  C   UNL     1       5.612   4.868  16.411  0.00  0.00    +0.000 A 
ATOM      6  C   UNL     1       5.224   6.151  16.822  0.00  0.00    +0.000 A 
ENDROOT
BRANCH   1   8
ATOM      7  C   UNL     1       2.375   7.846  18.533  0.00  0.00    +0.000 C 
ATOM      8  O   UNL     1       3.579   7.572  17.900  0.00  0.00    +0.000 OA
ENDBRANCH   1   8
BRANCH   3   9
ATOM      9  C   UNL     1       2.768   2.725  17.677  0.00  0.00    +0.000 C 
ATOM     10  O   UNL     1       3.306   1.638  17.839  0.00  0.00    +0.000 OA
BRANCH   9  11
ATOM     11  O   UNL     1       1.417   2.822  17.684  0.00  0.00    +0.000 OA
BRANCH  11  12
ATOM     12  C   UNL     1       0.635   2.436  18.753  0.00  0.00    +0.000 C 
BRANCH  12  13
ATOM     13  C   UNL     1       0.689   3.461  19.879  0.00  0.00    +0.000 C 
BRANCH  13  14
ATOM     14  C   UNL     1       1.099   2.760  21.187  0.00  0.00    +0.000 C 
BRANCH  14  15
ATOM     15  N   UNL     1       2.409   3.210  21.708  0.00  0.00    +0.000 NA
ATOM     16  C   UNL     1       3.524   2.396  21.195  0.00  0.00    +0.000 C 
ATOM     17  C   UNL     1       2.619   4.617  21.331  0.00  0.00    +0.000 C 
ENDBRANCH  14  15
ENDBRANCH  13  14
ENDBRANCH  12  13
ENDBRANCH  11  12
ENDBRANCH   9  11
ENDBRANCH   3   9
BRANCH   5  18
ATOM     18  O   UNL     1       6.805   4.722  15.773  0.00  0.00    +0.000 OA
ATOM     19  C   UNL     1       6.977   4.564  14.412  0.00  0.00    +0.000 C 
ENDBRANCH   5  18
BRANCH   6  20
ATOM     20  O   UNL     1       6.121   7.148  16.550  0.00  0.00    +0.000 OA
ATOM     21  C   UNL     1       7.132   7.673  17.323  0.00  0.00    +0.000 C 
ENDBRANCH   6  20
TORSDOF 9
ENDMDL
MODEL 2
REMARK VINA RESULT:      -5.8      1.573      3.505
REMARK  Name = 
REMARK  14 active torsions:
REMARK  status: ('A' for Active; 'I' for Inactive)
REMARK    1  A    between atoms: C_1  and  O_2
REMARK    2  A    between atoms: O_2  and  C_3
REMARK    3  A    between atoms: C_5  and  C_6
REMARK    4  A    between atoms: C_6  and  O_8
REMARK    5  A    between atoms: O_8  and  C_9
REMARK    6  A    between atoms: C_9  and  C_10
REMARK    7  A    between atoms: C_10  and  C_11
REMARK    8  A    between atoms: C_11  and  N_12
REMARK    9  A    between atoms: N_12  and  C_13
REMARK   10  A    between atoms: N_12  and  C_14
REMARK   11  A    between atoms: C_16  and  O_17
REMARK   12  A    between atoms: O_17  and  C_18
REMARK   13  A    between atoms: C_19  and  O_20
REMARK   14  A    between atoms: O_20  and  C_21
REMARK                            x       y       z     vdW  Elec       q    Type
REMARK                         _______ _______ _______ _____ _____    ______ ____
ROOT
ATOM      1  C   UNL     1       6.116   4.127  14.645  0.00  0.00    +0.000 A 
ATOM      2  C   UNL     1       5.013   3.904  15.501  0.00  0.00    +0.000 A 
ATOM      3  C   UNL     1       4.826   4.662  16.660  0.00  0.00    +0.000 A 
ATOM      4  C   UNL     1       5.759   5.646  16.988  0.00  0.00    +0.000 A 
ATOM      5  C   UNL     1       6.859   5.900  16.160  0.00  0.00    +0.000 A 
ATOM      6  C   UNL     1       7.042   5.155  14.986  0.00  0.00    +0.000 A 
ENDROOT
BRANCH   1   8
ATOM      7  C   UNL     1       5.393   3.398  12.435  0.00  0.00    +0.000 C 
ATOM      8  O   UNL     1       6.270   3.391  13.511  0.00  0.00    +0.000 OA
ENDBRANCH   1   8
BRANCH   3   9
ATOM      9  C   UNL     1       3.629   4.484  17.515  0.00  0.00    +0.000 C 
ATOM     10  O   UNL     1       2.899   5.432  17.773  0.00  0.00    +0.000 OA
BRANCH   9  11
ATOM     11  O   UNL     1       3.415   3.283  18.105  0.00  0.00    +0.000 OA
BRANCH  11  12
ATOM     12  C   UNL     1       2.418   2.413  17.714  0.00  0.00    +0.000 C 
BRANCH  12  13
ATOM     13  C   UNL     1       1.122   2.678  18.470  0.00  0.00    +0.000 C 
BRANCH  13  14
ATOM     14  C   UNL     1       1.206   2.034  19.866  0.00  0.00    +0.000 C 
BRANCH  14  15
ATOM     15  N   UNL     1       1.203   3.019  20.969  0.00  0.00    +0.000 NA
ATOM     16  C   UNL     1       2.473   3.027  21.714  0.00  0.00    +0.000 C 
ATOM     17  C   UNL     1       0.956   4.360  20.415  0.00  0.00    +0.000 C 
ENDBRANCH  14  15
ENDBRANCH  13  14
ENDBRANCH  12  13
ENDBRANCH  11  12
ENDBRANCH   9  11
ENDBRANCH   3   9
BRANCH   5  18
ATOM     18  O   UNL     1       7.763   6.872  16.461  0.00  0.00    +0.000 OA
ATOM     19  C   UNL     1       7.669   7.762  17.512  0.00  0.00    +0.000 C 
ENDBRANCH   5  18
BRANCH   6  20
ATOM     20  O   UNL     1       8.129   5.508  14.233  0.00  0.00    +0.000 OA
ATOM     21  C   UNL     1       8.241   5.736  12.881  0.00  0.00    +0.000 C 
ENDBRANCH   6  20
TORSDOF 9
ENDMDL
MODEL 3
REMARK VINA RESULT:      -5.8      3.261      7.084
REMARK  Name = 
REMARK  14 active torsions:
REMARK  status: ('A' for Active; 'I' for Inactive)
REMARK    1  A    between atoms: C_1  and  O_2
REMARK    2  A    between atoms: O_2  and  C_3
REMARK    3  A    between atoms: C_5  and  C_6
REMARK    4  A    between atoms: C_6  and  O_8
REMARK    5  A    between atoms: O_8  and  C_9
REMARK    6  A    between atoms: C_9  and  C_10
REMARK    7  A    between atoms: C_10  and  C_11
REMARK    8  A    between atoms: C_11  and  N_12
REMARK    9  A    between atoms: N_12  and  C_13
REMARK   10  A    between atoms: N_12  and  C_14
REMARK   11  A    between atoms: C_16  and  O_17
REMARK   12  A    between atoms: O_17  and  C_18
REMARK   13  A    between atoms: C_19  and  O_20
REMARK   14  A    between atoms: O_20  and  C_21
REMARK                            x       y       z     vdW  Elec       q    Type
REMARK                         _______ _______ _______ _____ _____    ______ ____
ROOT
ATOM      1  C   UNL     1       4.089   3.951  18.626  0.00  0.00    +0.000 A 
ATOM      2  C   UNL     1       5.321   4.302  18.028  0.00  0.00    +0.000 A 
ATOM      3  C   UNL     1       5.518   5.556  17.445  0.00  0.00    +0.000 A 
ATOM      4  C   UNL     1       4.468   6.475  17.437  0.00  0.00    +0.000 A 
ATOM      5  C   UNL     1       3.236   6.166  18.026  0.00  0.00    +0.000 A 
ATOM      6  C   UNL     1       3.038   4.915  18.629  0.00  0.00    +0.000 A 
ENDROOT
BRANCH   1   8
ATOM      7  C   UNL     1       3.433   1.606  18.557  0.00  0.00    +0.000 C 
ATOM      8  O   UNL     1       3.923   2.731  19.205  0.00  0.00    +0.000 OA
ENDBRANCH   1   8
BRANCH   3   9
ATOM      9  C   UNL     1       6.834   5.952  16.890  0.00  0.00    +0.000 C 
ATOM     10  O   UNL     1       7.626   5.106  16.498  0.00  0.00    +0.000 OA
BRANCH   9  11
ATOM     11  O   UNL     1       7.198   7.257  16.930  0.00  0.00    +0.000 OA
BRANCH  11  12
ATOM     12  C   UNL     1       8.027   7.782  17.899  0.00  0.00    +0.000 C 
BRANCH  12  13
ATOM     13  C   UNL     1       8.046   9.305  17.848  0.00  0.00    +0.000 C 
BRANCH  13  14
ATOM     14  C   UNL     1       9.077   9.836  18.861  0.00  0.00    +0.000 C 
BRANCH  14  15
ATOM     15  N   UNL     1       9.241  11.305  18.818  0.00  0.00    +0.000 NA
ATOM     16  C   UNL     1       9.472  11.881  20.153  0.00  0.00    +0.000 C 
ATOM     17  C   UNL     1      10.376  11.637  17.941  0.00  0.00    +0.000 C 
ENDBRANCH  14  15
ENDBRANCH  13  14
ENDBRANCH  12  13
ENDBRANCH  11  12
ENDBRANCH   9  11
ENDBRANCH   3   9
BRANCH   5  18
ATOM     18  O   UNL     1       2.213   7.064  18.041  0.00  0.00    +0.000 OA
ATOM     19  C   UNL     1       2.341   8.429  18.205  0.00  0.00    +0.000 C 
ENDBRANCH   5  18
BRANCH   6  20
ATOM     20  O   UNL     1       1.811   4.731  19.204  0.00  0.00    +0.000 OA
ATOM     21  C   UNL     1       1.425   4.799  20.523  0.00  0.00    +0.000 C 
ENDBRANCH   6  20
TORSDOF 9
ENDMDL
MODEL 4
REMARK VINA RESULT:      -5.8      3.194      6.679
REMARK  Name = 
REMARK  14 active torsions:
REMARK  status: ('A' for Active; 'I' for Inactive)
REMARK    1  A    between atoms: C_1  and  O_2
REMARK    2  A    between atoms: O_2  and  C_3
REMARK    3  A    between atoms: C_5  and  C_6
REMARK    4  A    between atoms: C_6  and  O_8
REMARK    5  A    between atoms: O_8  and  C_9
REMARK    6  A    between atoms: C_9  and  C_10
REMARK    7  A    between atoms: C_10  and  C_11
REMARK    8  A    between atoms: C_11  and  N_12
REMARK    9  A    between atoms: N_12  and  C_13
REMARK   10  A    between atoms: N_12  and  C_14
REMARK   11  A    between atoms: C_16  and  O_17
REMARK   12  A    between atoms: O_17  and  C_18
REMARK   13  A    between atoms: C_19  and  O_20
REMARK   14  A    between atoms: O_20  and  C_21
REMARK                            x       y       z     vdW  Elec       q    Type
REMARK                         _______ _______ _______ _____ _____    ______ ____
ROOT
ATOM      1  C   UNL     1       3.449   6.317  18.268  0.00  0.00    +0.000 A 
ATOM      2  C   UNL     1       4.682   6.630  17.652  0.00  0.00    +0.000 A 
ATOM      3  C   UNL     1       5.680   5.667  17.487  0.00  0.00    +0.000 A 
ATOM      4  C   UNL     1       5.462   4.372  17.960  0.00  0.00    +0.000 A 
ATOM      5  C   UNL     1       4.250   4.023  18.570  0.00  0.00    +0.000 A 
ATOM      6  C   UNL     1       3.237   4.981  18.721  0.00  0.00    +0.000 A 
ENDROOT
BRANCH   1   8
ATOM      7  C   UNL     1       2.468   8.483  17.737  0.00  0.00    +0.000 C 
ATOM      8  O   UNL     1       2.482   7.265  18.402  0.00  0.00    +0.000 OA
ENDBRANCH   1   8
BRANCH   3   9
ATOM      9  C   UNL     1       6.940   5.974  16.769  0.00  0.00    +0.000 C 
ATOM     10  O   UNL     1       7.554   5.094  16.183  0.00  0.00    +0.000 OA
BRANCH   9  11
ATOM     11  O   UNL     1       7.465   7.219  16.868  0.00  0.00    +0.000 OA
BRANCH  11  12
ATOM     12  C   UNL     1       8.015   7.719  18.030  0.00  0.00    +0.000 C 
BRANCH  12  13
ATOM     13  C   UNL     1       8.217   9.227  17.944  0.00  0.00    +0.000 C 
BRANCH  13  14
ATOM     14  C   UNL     1       9.095   9.691  19.122  0.00  0.00    +0.000 C 
BRANCH  14  15
ATOM     15  N   UNL     1       9.203  11.162  19.231  0.00  0.00    +0.000 NA
ATOM     16  C   UNL     1      10.507  11.588  19.764  0.00  0.00    +0.000 C 
ATOM     17  C   UNL     1       9.002  11.759  17.900  0.00  0.00    +0.000 C 
ENDBRANCH  14  15
ENDBRANCH  13  14
ENDBRANCH  12  13
ENDBRANCH  11  12
ENDBRANCH   9  11
ENDBRANCH   3   9
BRANCH   5  18
ATOM     18  O   UNL     1       4.020   2.758  19.015  0.00  0.00    +0.000 OA
ATOM     19  C   UNL     1       3.535   1.712  18.256  0.00  0.00    +0.000 C 
ENDBRANCH   5  18
BRANCH   6  20
ATOM     20  O   UNL     1       2.083   4.526  19.297  0.00  0.00    +0.000 OA
ATOM     21  C   UNL     1       1.540   4.788  20.534  0.00  0.00    +0.000 C 
ENDBRANCH   6  20
TORSDOF 9
ENDMDL
MODEL 5
REMARK VINA RESULT:      -5.8      3.526      7.386
REMARK  Name = 
REMARK  14 active torsions:
REMARK  status: ('A' for Active; 'I' for Inactive)
REMARK    1  A    between atoms: C_1  and  O_2
REMARK    2  A    between atoms: O_2  and  C_3
REMARK    3  A    between atoms: C_5  and  C_6
REMARK    4  A    between atoms: C_6  and  O_8
REMARK    5  A    between atoms: O_8  and  C_9
REMARK    6  A    between atoms: C_9  and  C_10
REMARK    7  A    between atoms: C_10  and  C_11
REMARK    8  A    between atoms: C_11  and  N_12
REMARK    9  A    between atoms: N_12  and  C_13
REMARK   10  A    between atoms: N_12  and  C_14
REMARK   11  A    between atoms: C_16  and  O_17
REMARK   12  A    between atoms: O_17  and  C_18
REMARK   13  A    between atoms: C_19  and  O_20
REMARK   14  A    between atoms: O_20  and  C_21
REMARK                            x       y       z     vdW  Elec       q    Type
REMARK                         _______ _______ _______ _____ _____    ______ ____
ROOT
ATOM      1  C   UNL     1       4.246   4.150  18.362  0.00  0.00    +0.000 A 
ATOM      2  C   UNL     1       5.487   4.641  17.897  0.00  0.00    +0.000 A 
ATOM      3  C   UNL     1       5.646   5.976  17.514  0.00  0.00    +0.000 A 
ATOM      4  C   UNL     1       4.549   6.836  17.575  0.00  0.00    +0.000 A 
ATOM      5  C   UNL     1       3.306   6.387  18.038  0.00  0.00    +0.000 A 
ATOM      6  C   UNL     1       3.146   5.053  18.441  0.00  0.00    +0.000 A 
ENDROOT
BRANCH   1   8
ATOM      7  C   UNL     1       4.393   2.371  20.021  0.00  0.00    +0.000 C 
ATOM      8  O   UNL     1       4.117   2.851  18.748  0.00  0.00    +0.000 OA
ENDBRANCH   1   8
BRANCH   3   9
ATOM      9  C   UNL     1       6.965   6.510  17.104  0.00  0.00    +0.000 C 
ATOM     10  O   UNL     1       7.489   6.145  16.060  0.00  0.00    +0.000 OA
BRANCH   9  11
ATOM     11  O   UNL     1       7.641   7.320  17.955  0.00  0.00    +0.000 OA
BRANCH  11  12
ATOM     12  C   UNL     1       7.939   8.636  17.673  0.00  0.00    +0.000 C 
BRANCH  12  13
ATOM     13  C   UNL     1       8.822   9.249  18.752  0.00  0.00    +0.000 C 
BRANCH  13  14
ATOM     14  C   UNL     1       9.080  10.730  18.419  0.00  0.00    +0.000 C 
BRANCH  14  15
ATOM     15  N   UNL     1      10.458  11.171  18.726  0.00  0.00    +0.000 NA
ATOM     16  C   UNL     1      10.996  12.079  17.698  0.00  0.00    +0.000 C 
ATOM     17  C   UNL     1      10.465  11.854  20.030  0.00  0.00    +0.000 C 
ENDBRANCH  14  15
ENDBRANCH  13  14
ENDBRANCH  12  13
ENDBRANCH  11  12
ENDBRANCH   9  11
ENDBRANCH   3   9
BRANCH   5  18
ATOM     18  O   UNL     1       2.236   7.224  18.120  0.00  0.00    +0.000 OA
ATOM     19  C   UNL     1       2.240   8.569  17.808  0.00  0.00    +0.000 C 
ENDBRANCH   5  18
BRANCH   6  20
ATOM     20  O   UNL     1       1.901   4.729  18.907  0.00  0.00    +0.000 OA
ATOM     21  C   UNL     1       1.439   4.600  20.197  0.00  0.00    +0.000 C 
ENDBRANCH   6  20
TORSDOF 9
ENDMDL
MODEL 6
REMARK VINA RESULT:      -5.7      1.849      3.525
REMARK  Name = 
REMARK  14 active torsions:
REMARK  status: ('A' for Active; 'I' for Inactive)
REMARK    1  A    between atoms: C_1  and  O_2
REMARK    2  A    between atoms: O_2  and  C_3
REMARK    3  A    between atoms: C_5  and  C_6
REMARK    4  A    between atoms: C_6  and  O_8
REMARK    5  A    between atoms: O_8  and  C_9
REMARK    6  A    between atoms: C_9  and  C_10
REMARK    7  A    between atoms: C_10  and  C_11
REMARK    8  A    between atoms: C_11  and  N_12
REMARK    9  A    between atoms: N_12  and  C_13
REMARK   10  A    between atoms: N_12  and  C_14
REMARK   11  A    between atoms: C_16  and  O_17
REMARK   12  A    between atoms: O_17  and  C_18
REMARK   13  A    between atoms: C_19  and  O_20
REMARK   14  A    between atoms: O_20  and  C_21
REMARK                            x       y       z     vdW  Elec       q    Type
REMARK                         _______ _______ _______ _____ _____    ______ ____
ROOT
ATOM      1  C   UNL     1       6.272   3.940  14.525  0.00  0.00    +0.000 A 
ATOM      2  C   UNL     1       5.367   3.431  15.484  0.00  0.00    +0.000 A 
ATOM      3  C   UNL     1       5.271   3.986  16.763  0.00  0.00    +0.000 A 
ATOM      4  C   UNL     1       6.101   5.054  17.105  0.00  0.00    +0.000 A 
ATOM      5  C   UNL     1       7.005   5.590  16.179  0.00  0.00    +0.000 A 
ATOM      6  C   UNL     1       7.092   5.049  14.888  0.00  0.00    +0.000 A 
ENDROOT
BRANCH   1   8
ATOM      7  C   UNL     1       5.301   3.408  12.355  0.00  0.00    +0.000 C 
ATOM      8  O   UNL     1       6.336   3.398  13.279  0.00  0.00    +0.000 OA
ENDBRANCH   1   8
BRANCH   3   9
ATOM      9  C   UNL     1       4.267   3.505  17.741  0.00  0.00    +0.000 C 
ATOM     10  O   UNL     1       4.548   3.408  18.927  0.00  0.00    +0.000 OA
BRANCH   9  11
ATOM     11  O   UNL     1       3.069   3.062  17.288  0.00  0.00    +0.000 OA
BRANCH  11  12
ATOM     12  C   UNL     1       1.866   3.632  17.649  0.00  0.00    +0.000 C 
BRANCH  12  13
ATOM     13  C   UNL     1       1.035   2.681  18.503  0.00  0.00    +0.000 C 
BRANCH  13  14
ATOM     14  C   UNL     1       0.750   3.338  19.866  0.00  0.00    +0.000 C 
BRANCH  14  15
ATOM     15  N   UNL     1       1.954   3.477  20.714  0.00  0.00    +0.000 NA
ATOM     16  C   UNL     1       2.168   4.865  21.157  0.00  0.00    +0.000 C 
ATOM     17  C   UNL     1       1.815   2.606  21.892  0.00  0.00    +0.000 C 
ENDBRANCH  14  15
ENDBRANCH  13  14
ENDBRANCH  12  13
ENDBRANCH  11  12
ENDBRANCH   9  11
ENDBRANCH   3   9
BRANCH   5  18
ATOM     18  O   UNL     1       7.803   6.645  16.498  0.00  0.00    +0.000 OA
ATOM     19  C   UNL     1       7.584   7.540  17.525  0.00  0.00    +0.000 C 
ENDBRANCH   5  18
BRANCH   6  20
ATOM     20  O   UNL     1       7.981   5.669  14.054  0.00  0.00    +0.000 OA
ATOM     21  C   UNL     1       8.091   5.633  12.682  0.00  0.00    +0.000 C 
ENDBRANCH   6  20
TORSDOF 9
ENDMDL
MODEL 7
REMARK VINA RESULT:      -5.7      2.671      6.219
REMARK  Name = 
REMARK  14 active torsions:
REMARK  status: ('A' for Active; 'I' for Inactive)
REMARK    1  A    between atoms: C_1  and  O_2
REMARK    2  A    between atoms: O_2  and  C_3
REMARK    3  A    between atoms: C_5  and  C_6
REMARK    4  A    between atoms: C_6  and  O_8
REMARK    5  A    between atoms: O_8  and  C_9
REMARK    6  A    between atoms: C_9  and  C_10
REMARK    7  A    between atoms: C_10  and  C_11
REMARK    8  A    between atoms: C_11  and  N_12
REMARK    9  A    between atoms: N_12  and  C_13
REMARK   10  A    between atoms: N_12  and  C_14
REMARK   11  A    between atoms: C_16  and  O_17
REMARK   12  A    between atoms: O_17  and  C_18
REMARK   13  A    between atoms: C_19  and  O_20
REMARK   14  A    between atoms: O_20  and  C_21
REMARK                            x       y       z     vdW  Elec       q    Type
REMARK                         _______ _______ _______ _____ _____    ______ ____
ROOT
ATOM      1  C   UNL     1       2.695   6.168  18.990  0.00  0.00    +0.000 A 
ATOM      2  C   UNL     1       3.690   6.692  18.132  0.00  0.00    +0.000 A 
ATOM      3  C   UNL     1       4.301   5.901  17.156  0.00  0.00    +0.000 A 
ATOM      4  C   UNL     1       3.934   4.560  17.038  0.00  0.00    +0.000 A 
ATOM      5  C   UNL     1       2.947   4.008  17.865  0.00  0.00    +0.000 A 
ATOM      6  C   UNL     1       2.317   4.802  18.835  0.00  0.00    +0.000 A 
ENDROOT
BRANCH   1   8
ATOM      7  C   UNL     1       1.731   8.283  19.720  0.00  0.00    +0.000 C 
ATOM      8  O   UNL     1       2.099   6.960  19.921  0.00  0.00    +0.000 OA
ENDBRANCH   1   8
BRANCH   3   9
ATOM      9  C   UNL     1       5.284   6.470  16.204  0.00  0.00    +0.000 C 
ATOM     10  O   UNL     1       4.914   7.142  15.252  0.00  0.00    +0.000 OA
BRANCH   9  11
ATOM     11  O   UNL     1       6.592   6.139  16.335  0.00  0.00    +0.000 OA
BRANCH  11  12
ATOM     12  C   UNL     1       7.097   4.901  15.998  0.00  0.00    +0.000 C 
BRANCH  12  13
ATOM     13  C   UNL     1       7.180   4.726  14.487  0.00  0.00    +0.000 C 
BRANCH  13  14
ATOM     14  C   UNL     1       6.089   3.742  14.028  0.00  0.00    +0.000 C 
BRANCH  14  15
ATOM     15  N   UNL     1       6.223   3.334  12.612  0.00  0.00    +0.000 NA
ATOM     16  C   UNL     1       4.931   3.334  11.906  0.00  0.00    +0.000 C 
ATOM     17  C   UNL     1       7.150   4.254  11.933  0.00  0.00    +0.000 C 
ENDBRANCH  14  15
ENDBRANCH  13  14
ENDBRANCH  12  13
ENDBRANCH  11  12
ENDBRANCH   9  11
ENDBRANCH   3   9
BRANCH   5  18
ATOM     18  O   UNL     1       2.568   2.707  17.744  0.00  0.00    +0.000 OA
ATOM     19  C   UNL     1       3.308   1.611  18.142  0.00  0.00    +0.000 C 
ENDBRANCH   5  18
BRANCH   6  20
ATOM     20  O   UNL     1       1.345   4.173  19.563  0.00  0.00    +0.000 OA
ATOM     21  C   UNL     1       1.385   3.643  20.832  0.00  0.00    +0.000 C 
ENDBRANCH   6  20
TORSDOF 9
ENDMDL
MODEL 8
REMARK VINA RESULT:      -5.6      3.384      6.889
REMARK  Name = 
REMARK  14 active torsions:
REMARK  status: ('A' for Active; 'I' for Inactive)
REMARK    1  A    between atoms: C_1  and  O_2
REMARK    2  A    between atoms: O_2  and  C_3
REMARK    3  A    between atoms: C_5  and  C_6
REMARK    4  A    between atoms: C_6  and  O_8
REMARK    5  A    between atoms: O_8  and  C_9
REMARK    6  A    between atoms: C_9  and  C_10
REMARK    7  A    between atoms: C_10  and  C_11
REMARK    8  A    between atoms: C_11  and  N_12
REMARK    9  A    between atoms: N_12  and  C_13
REMARK   10  A    between atoms: N_12  and  C_14
REMARK   11  A    between atoms: C_16  and  O_17
REMARK   12  A    between atoms: O_17  and  C_18
REMARK   13  A    between atoms: C_19  and  O_20
REMARK   14  A    between atoms: O_20  and  C_21
REMARK                            x       y       z     vdW  Elec       q    Type
REMARK                         _______ _______ _______ _____ _____    ______ ____
ROOT
ATOM      1  C   UNL     1       3.386   6.385  18.005  0.00  0.00    +0.000 A 
ATOM      2  C   UNL     1       4.666   6.832  17.604  0.00  0.00    +0.000 A 
ATOM      3  C   UNL     1       5.761   5.966  17.565  0.00  0.00    +0.000 A 
ATOM      4  C   UNL     1       5.592   4.636  17.948  0.00  0.00    +0.000 A 
ATOM      5  C   UNL     1       4.337   4.154  18.343  0.00  0.00    +0.000 A 
ATOM      6  C   UNL     1       3.230   5.014  18.367  0.00  0.00    +0.000 A 
ENDROOT
BRANCH   1   8
ATOM      7  C   UNL     1       2.071   8.168  19.017  0.00  0.00    +0.000 C 
ATOM      8  O   UNL     1       2.327   7.239  18.019  0.00  0.00    +0.000 OA
ENDBRANCH   1   8
BRANCH   3   9
ATOM      9  C   UNL     1       7.083   6.416  17.068  0.00  0.00    +0.000 C 
ATOM     10  O   UNL     1       7.549   5.960  16.033  0.00  0.00    +0.000 OA
BRANCH   9  11
ATOM     11  O   UNL     1       7.824   7.251  17.836  0.00  0.00    +0.000 OA
BRANCH  11  12
ATOM     12  C   UNL     1       7.819   8.622  17.685  0.00  0.00    +0.000 C 
BRANCH  12  13
ATOM     13  C   UNL     1       8.731   9.296  18.704  0.00  0.00    +0.000 C 
BRANCH  13  14
ATOM     14  C   UNL     1       9.186  10.661  18.155  0.00  0.00    +0.000 C 
BRANCH  14  15
ATOM     15  N   UNL     1       9.674  11.583  19.204  0.00  0.00    +0.000 NA
ATOM     16  C   UNL     1       9.046  12.912  19.115  0.00  0.00    +0.000 C 
ATOM     17  C   UNL     1       9.393  11.000  20.526  0.00  0.00    +0.000 C 
ENDBRANCH  14  15
ENDBRANCH  13  14
ENDBRANCH  12  13
ENDBRANCH  11  12
ENDBRANCH   9  11
ENDBRANCH   3   9
BRANCH   5  18
ATOM     18  O   UNL     1       4.158   2.853  18.698  0.00  0.00    +0.000 OA
ATOM     19  C   UNL     1       4.448   2.307  19.933  0.00  0.00    +0.000 C 
ENDBRANCH   5  18
BRANCH   6  20
ATOM     20  O   UNL     1       2.047   4.433  18.735  0.00  0.00    +0.000 OA
ATOM     21  C   UNL     1       1.392   4.435  19.945  0.00  0.00    +0.000 C 
ENDBRANCH   6  20
TORSDOF 9
ENDMDL
MODEL 9
REMARK VINA RESULT:      -5.6      3.461      5.806
REMARK  Name = 
REMARK  14 active torsions:
REMARK  status: ('A' for Active; 'I' for Inactive)
REMARK    1  A    between atoms: C_1  and  O_2
REMARK    2  A    between atoms: O_2  and  C_3
REMARK    3  A    between atoms: C_5  and  C_6
REMARK    4  A    between atoms: C_6  and  O_8
REMARK    5  A    between atoms: O_8  and  C_9
REMARK    6  A    between atoms: C_9  and  C_10
REMARK    7  A    between atoms: C_10  and  C_11
REMARK    8  A    between atoms: C_11  and  N_12
REMARK    9  A    between atoms: N_12  and  C_13
REMARK   10  A    between atoms: N_12  and  C_14
REMARK   11  A    between atoms: C_16  and  O_17
REMARK   12  A    between atoms: O_17  and  C_18
REMARK   13  A    between atoms: C_19  and  O_20
REMARK   14  A    between atoms: O_20  and  C_21
REMARK                            x       y       z     vdW  Elec       q    Type
REMARK                         _______ _______ _______ _____ _____    ______ ____
ROOT
ATOM      1  C   UNL     1       2.805   5.510  19.839  0.00  0.00    +0.000 A 
ATOM      2  C   UNL     1       2.210   6.785  19.703  0.00  0.00    +0.000 A 
ATOM      3  C   UNL     1       2.534   7.632  18.640  0.00  0.00    +0.000 A 
ATOM      4  C   UNL     1       3.481   7.217  17.704  0.00  0.00    +0.000 A 
ATOM      5  C   UNL     1       4.087   5.957  17.801  0.00  0.00    +0.000 A 
ATOM      6  C   UNL     1       3.751   5.096  18.855  0.00  0.00    +0.000 A 
ENDROOT
BRANCH   1   8
ATOM      7  C   UNL     1       1.358   3.851  20.882  0.00  0.00    +0.000 C 
ATOM      8  O   UNL     1       2.462   4.692  20.871  0.00  0.00    +0.000 OA
ENDBRANCH   1   8
BRANCH   3   9
ATOM      9  C   UNL     1       1.851   8.934  18.453  0.00  0.00    +0.000 C 
ATOM     10  O   UNL     1       2.090   9.629  17.475  0.00  0.00    +0.000 OA
BRANCH   9  11
ATOM     11  O   UNL     1       1.046   9.401  19.438  0.00  0.00    +0.000 OA
BRANCH  11  12
ATOM     12  C   UNL     1      -0.157  10.030  19.198  0.00  0.00    +0.000 C 
BRANCH  12  13
ATOM     13  C   UNL     1      -0.495  11.023  20.303  0.00  0.00    +0.000 C 
BRANCH  13  14
ATOM     14  C   UNL     1       0.576  10.941  21.406  0.00  0.00    +0.000 C 
BRANCH  14  15
ATOM     15  N   UNL     1       0.010  10.793  22.765  0.00  0.00    +0.000 NA
ATOM     16  C   UNL     1      -1.356  11.333  22.863  0.00  0.00    +0.000 C 
ATOM     17  C   UNL     1      -0.003   9.366  23.127  0.00  0.00    +0.000 C 
ENDBRANCH  14  15
ENDBRANCH  13  14
ENDBRANCH  12  13
ENDBRANCH  11  12
ENDBRANCH   9  11
ENDBRANCH   3   9
BRANCH   5  18
ATOM     18  O   UNL     1       4.996   5.536  16.880  0.00  0.00    +0.000 OA
ATOM     19  C   UNL     1       5.326   6.195  15.713  0.00  0.00    +0.000 C 
ENDBRANCH   5  18
BRANCH   6  20
ATOM     20  O   UNL     1       4.375   3.878  18.836  0.00  0.00    +0.000 OA
ATOM     21  C   UNL     1       3.913   2.647  18.431  0.00  0.00    +0.000 C 
ENDBRANCH   6  20
TORSDOF 9
ENDMDL
