MODEL 1
REMARK VINA RESULT:      -6.9      0.000      0.000
REMARK  Name = 
REMARK  6 active torsions:
REMARK  status: ('A' for Active; 'I' for Inactive)
REMARK    1  A    between atoms: C_2  and  C_3
REMARK    2  A    between atoms: C_3  and  N_4
REMARK    3  A    between atoms: C_7  and  N_8
REMARK    4  A    between atoms: N_8  and  C_9
REMARK    5  A    between atoms: N_12  and  C_13
REMARK    6  A    between atoms: C_18  and  C_19
REMARK                            x       y       z     vdW  Elec       q    Type
REMARK                         _______ _______ _______ _____ _____    ______ ____
ROOT
ATOM      1  N   UNL     1       2.473   7.370  18.627  0.00  0.00    +0.000 N 
ATOM      2  C   UNL     1       2.733   8.310  17.543  0.00  0.00    +0.000 C 
ATOM      3  C   UNL     1       1.784   7.666  19.802  0.00  0.00    +0.000 C 
ATOM      4  O   UNL     1       1.648   6.805  20.671  0.00  0.00    +0.000 OA
ATOM      5  N   UNL     1       1.277   8.944  19.902  0.00  0.00    +0.000 N 
ATOM      6  H   UNL     1       1.146   9.446  19.042  0.00  0.00    +0.000 HD
ENDROOT
BRANCH   5   7
ATOM      7  C   UNL     1       0.653   9.497  21.054  0.00  0.00    +0.000 A 
ATOM      8  C   UNL     1       0.896   8.986  22.332  0.00  0.00    +0.000 A 
ATOM      9  C   UNL     1       0.253   9.548  23.421  0.00  0.00    +0.000 A 
ATOM     10  N   UNL     1      -0.593  10.591  23.331  0.00  0.00    +0.000 NA
ATOM     11  C   UNL     1      -0.799  11.089  22.095  0.00  0.00    +0.000 A 
ATOM     12  C   UNL     1      -0.215  10.594  20.927  0.00  0.00    +0.000 A 
ATOM     13  C   UNL     1      -0.544  11.254  19.623  0.00  0.00    +0.000 C 
ENDBRANCH   5   7
BRANCH   1  17
ATOM     14  N   UNL     1       4.358   4.588  17.192  0.00  0.00    +0.000 N 
ATOM     15  C   UNL     1       3.133   3.890  17.493  0.00  0.00    +0.000 C 
ATOM     16  C   UNL     1       2.181   5.010  17.875  0.00  0.00    +0.000 C 
ATOM     17  C   UNL     1       3.093   6.036  18.559  0.00  0.00    +0.000 C 
ATOM     18  C   UNL     1       4.409   5.845  17.785  0.00  0.00    +0.000 C 
ATOM     19  O   UNL     1       5.338   6.635  17.730  0.00  0.00    +0.000 OA
BRANCH  14  20
ATOM     20  C   UNL     1       5.450   3.985  16.457  0.00  0.00    +0.000 C 
BRANCH  20  22
ATOM     21  C   UNL     1       6.130   3.923  14.038  0.00  0.00    +0.000 C 
ATOM     22  C   UNL     1       5.489   4.514  15.057  0.00  0.00    +0.000 C 
ENDBRANCH  20  22
ENDBRANCH  14  20
ENDBRANCH   1  17
TORSDOF 4
ENDMDL
MODEL 2
REMARK VINA RESULT:      -6.8      4.840      6.184
REMARK  Name = 
REMARK  6 active torsions:
REMARK  status: ('A' for Active; 'I' for Inactive)
REMARK    1  A    between atoms: C_2  and  C_3
REMARK    2  A    between atoms: C_3  and  N_4
REMARK    3  A    between atoms: C_7  and  N_8
REMARK    4  A    between atoms: N_8  and  C_9
REMARK    5  A    between atoms: N_12  and  C_13
REMARK    6  A    between atoms: C_18  and  C_19
REMARK                            x       y       z     vdW  Elec       q    Type
REMARK                         _______ _______ _______ _____ _____    ______ ____
ROOT
ATOM      1  N   UNL     1       5.785   4.339  17.097  0.00  0.00    +0.000 N 
ATOM      2  C   UNL     1       5.718   3.360  16.019  0.00  0.00    +0.000 C 
ATOM      3  C   UNL     1       4.976   4.344  18.232  0.00  0.00    +0.000 C 
ATOM      4  O   UNL     1       5.094   5.239  19.069  0.00  0.00    +0.000 OA
ATOM      5  N   UNL     1       4.082   3.301  18.344  0.00  0.00    +0.000 N 
ATOM      6  H   UNL     1       4.285   2.474  17.812  0.00  0.00    +0.000 HD
ENDROOT
BRANCH   5   7
ATOM      7  C   UNL     1       3.083   3.174  19.347  0.00  0.00    +0.000 A 
ATOM      8  C   UNL     1       3.376   2.641  20.606  0.00  0.00    +0.000 A 
ATOM      9  C   UNL     1       2.366   2.523  21.544  0.00  0.00    +0.000 A 
ATOM     10  N   UNL     1       1.097   2.917  21.329  0.00  0.00    +0.000 NA
ATOM     11  C   UNL     1       0.834   3.453  20.120  0.00  0.00    +0.000 A 
ATOM     12  C   UNL     1       1.771   3.608  19.095  0.00  0.00    +0.000 A 
ATOM     13  C   UNL     1       1.326   4.219  17.801  0.00  0.00    +0.000 C 
ENDBRANCH   5   7
BRANCH   1  17
ATOM     14  N   UNL     1       7.727   7.276  18.075  0.00  0.00    +0.000 N 
ATOM     15  C   UNL     1       6.918   7.881  17.045  0.00  0.00    +0.000 C 
ATOM     16  C   UNL     1       5.895   6.804  16.731  0.00  0.00    +0.000 C 
ATOM     17  C   UNL     1       6.676   5.500  16.932  0.00  0.00    +0.000 C 
ATOM     18  C   UNL     1       7.642   5.888  18.066  0.00  0.00    +0.000 C 
ATOM     19  O   UNL     1       8.245   5.120  18.798  0.00  0.00    +0.000 OA
BRANCH  14  20
ATOM     20  C   UNL     1       8.615   8.036  18.930  0.00  0.00    +0.000 C 
BRANCH  20  22
ATOM     21  C   UNL     1       9.376  10.425  19.097  0.00  0.00    +0.000 C 
ATOM     22  C   UNL     1       8.644   9.471  18.504  0.00  0.00    +0.000 C 
ENDBRANCH  20  22
ENDBRANCH  14  20
ENDBRANCH   1  17
TORSDOF 4
ENDMDL
MODEL 3
REMARK VINA RESULT:      -6.7      2.058      8.095
REMARK  Name = 
REMARK  6 active torsions:
REMARK  status: ('A' for Active; 'I' for Inactive)
REMARK    1  A    between atoms: C_2  and  C_3
REMARK    2  A    between atoms: C_3  and  N_4
REMARK    3  A    between atoms: C_7  and  N_8
REMARK    4  A    between atoms: N_8  and  C_9
REMARK    5  A    between atoms: N_12  and  C_13
REMARK    6  A    between atoms: C_18  and  C_19
REMARK                            x       y       z     vdW  Elec       q    Type
REMARK                         _______ _______ _______ _____ _____    ______ ____
ROOT
ATOM      1  N   UNL     1       1.280   8.949  19.591  0.00  0.00    +0.000 N 
ATOM      2  C   UNL     1       1.170   8.434  20.950  0.00  0.00    +0.000 C 
ATOM      3  C   UNL     1       1.989   8.345  18.555  0.00  0.00    +0.000 C 
ATOM      4  O   UNL     1       2.045   8.882  17.449  0.00  0.00    +0.000 OA
ATOM      5  N   UNL     1       2.586   7.138  18.853  0.00  0.00    +0.000 N 
ATOM      6  H   UNL     1       2.218   6.635  19.640  0.00  0.00    +0.000 HD
ENDROOT
BRANCH   5   7
ATOM      7  C   UNL     1       3.455   6.412  17.993  0.00  0.00    +0.000 A 
ATOM      8  C   UNL     1       4.609   6.994  17.461  0.00  0.00    +0.000 A 
ATOM      9  C   UNL     1       5.415   6.252  16.615  0.00  0.00    +0.000 A 
ATOM     10  N   UNL     1       5.167   4.972  16.280  0.00  0.00    +0.000 NA
ATOM     11  C   UNL     1       4.063   4.416  16.821  0.00  0.00    +0.000 A 
ATOM     12  C   UNL     1       3.174   5.073  17.674  0.00  0.00    +0.000 A 
ATOM     13  C   UNL     1       1.986   4.321  18.193  0.00  0.00    +0.000 C 
ENDBRANCH   5   7
BRANCH   1  17
ATOM     14  N   UNL     1      -0.503  12.076  20.219  0.00  0.00    +0.000 N 
ATOM     15  C   UNL     1      -1.250  11.625  19.071  0.00  0.00    +0.000 C 
ATOM     16  C   UNL     1      -0.750  10.206  18.869  0.00  0.00    +0.000 C 
ATOM     17  C   UNL     1       0.719  10.280  19.301  0.00  0.00    +0.000 C 
ATOM     18  C   UNL     1       0.662  11.343  20.413  0.00  0.00    +0.000 C 
ATOM     19  O   UNL     1       1.499  11.529  21.281  0.00  0.00    +0.000 OA
BRANCH  14  20
ATOM     20  C   UNL     1      -0.877  13.240  20.996  0.00  0.00    +0.000 C 
BRANCH  20  22
ATOM     21  C   UNL     1      -1.905  12.014  22.934  0.00  0.00    +0.000 C 
ATOM     22  C   UNL     1      -1.994  12.902  21.934  0.00  0.00    +0.000 C 
ENDBRANCH  20  22
ENDBRANCH  14  20
ENDBRANCH   1  17
TORSDOF 4
ENDMDL
MODEL 4
REMARK VINA RESULT:      -6.7      1.941      2.920
REMARK  Name = 
REMARK  6 active torsions:
REMARK  status: ('A' for Active; 'I' for Inactive)
REMARK    1  A    between atoms: C_2  and  C_3
REMARK    2  A    between atoms: C_3  and  N_4
REMARK    3  A    between atoms: C_7  and  N_8
REMARK    4  A    between atoms: N_8  and  C_9
REMARK    5  A    between atoms: N_12  and  C_13
REMARK    6  A    between atoms: C_18  and  C_19
REMARK                            x       y       z     vdW  Elec       q    Type
REMARK                         _______ _______ _______ _____ _____    ______ ____
ROOT
ATOM      1  N   UNL     1       2.914   5.204  19.971  0.00  0.00    +0.000 N 
ATOM      2  C   UNL     1       2.217   4.553  21.073  0.00  0.00    +0.000 C 
ATOM      3  C   UNL     1       2.738   6.529  19.576  0.00  0.00    +0.000 C 
ATOM      4  O   UNL     1       3.354   6.971  18.607  0.00  0.00    +0.000 OA
ATOM      5  N   UNL     1       1.863   7.276  20.337  0.00  0.00    +0.000 N 
ATOM      6  H   UNL     1       1.679   6.946  21.266  0.00  0.00    +0.000 HD
ENDROOT
BRANCH   5   7
ATOM      7  C   UNL     1       1.441   8.602  20.044  0.00  0.00    +0.000 A 
ATOM      8  C   UNL     1       1.398   9.082  18.732  0.00  0.00    +0.000 A 
ATOM      9  C   UNL     1       0.995  10.385  18.500  0.00  0.00    +0.000 A 
ATOM     10  N   UNL     1       0.613  11.233  19.473  0.00  0.00    +0.000 NA
ATOM     11  C   UNL     1       0.636  10.749  20.731  0.00  0.00    +0.000 A 
ATOM     12  C   UNL     1       1.036   9.458  21.082  0.00  0.00    +0.000 A 
ATOM     13  C   UNL     1       1.011   9.065  22.528  0.00  0.00    +0.000 C 
ENDBRANCH   5   7
BRANCH   1  17
ATOM     14  N   UNL     1       5.631   4.439  17.651  0.00  0.00    +0.000 N 
ATOM     15  C   UNL     1       4.532   3.912  16.881  0.00  0.00    +0.000 C 
ATOM     16  C   UNL     1       3.312   4.395  17.644  0.00  0.00    +0.000 C 
ATOM     17  C   UNL     1       3.776   4.380  19.106  0.00  0.00    +0.000 C 
ATOM     18  C   UNL     1       5.268   4.730  18.961  0.00  0.00    +0.000 C 
ATOM     19  O   UNL     1       6.002   5.151  19.840  0.00  0.00    +0.000 OA
BRANCH  14  20
ATOM     20  C   UNL     1       6.982   4.532  17.136  0.00  0.00    +0.000 C 
BRANCH  20  22
ATOM     21  C   UNL     1       7.511   6.982  17.321  0.00  0.00    +0.000 C 
ATOM     22  C   UNL     1       7.233   5.900  16.581  0.00  0.00    +0.000 C 
ENDBRANCH  20  22
ENDBRANCH  14  20
ENDBRANCH   1  17
TORSDOF 4
ENDMDL
MODEL 5
REMARK VINA RESULT:      -6.5      2.577      3.619
REMARK  Name = 
REMARK  6 active torsions:
REMARK  status: ('A' for Active; 'I' for Inactive)
REMARK    1  A    between atoms: C_2  and  C_3
REMARK    2  A    between atoms: C_3  and  N_4
REMARK    3  A    between atoms: C_7  and  N_8
REMARK    4  A    between atoms: N_8  and  C_9
REMARK    5  A    between atoms: N_12  and  C_13
REMARK    6  A    between atoms: C_18  and  C_19
REMARK                            x       y       z     vdW  Elec       q    Type
REMARK                         _______ _______ _______ _____ _____    ______ ____
ROOT
ATOM      1  N   UNL     1       2.251   7.444  19.108  0.00  0.00    +0.000 N 
ATOM      2  C   UNL     1       1.799   6.968  20.410  0.00  0.00    +0.000 C 
ATOM      3  C   UNL     1       1.955   8.689  18.558  0.00  0.00    +0.000 C 
ATOM      4  O   UNL     1       2.361   8.979  17.433  0.00  0.00    +0.000 OA
ATOM      5  N   UNL     1       1.213   9.540  19.349  0.00  0.00    +0.000 N 
ATOM      6  H   UNL     1       1.219   9.359  20.337  0.00  0.00    +0.000 HD
ENDROOT
BRANCH   5   7
ATOM      7  C   UNL     1       0.695  10.801  18.945  0.00  0.00    +0.000 A 
ATOM      8  C   UNL     1       1.485  11.954  18.959  0.00  0.00    +0.000 A 
ATOM      9  C   UNL     1       0.931  13.161  18.571  0.00  0.00    +0.000 A 
ATOM     10  N   UNL     1      -0.341  13.299  18.153  0.00  0.00    +0.000 NA
ATOM     11  C   UNL     1      -1.085  12.174  18.121  0.00  0.00    +0.000 A 
ATOM     12  C   UNL     1      -0.634  10.908  18.501  0.00  0.00    +0.000 A 
ATOM     13  C   UNL     1      -1.582   9.750  18.414  0.00  0.00    +0.000 C 
ENDBRANCH   5   7
BRANCH   1  17
ATOM     14  N   UNL     1       3.320   4.215  17.774  0.00  0.00    +0.000 N 
ATOM     15  C   UNL     1       4.618   4.776  18.053  0.00  0.00    +0.000 C 
ATOM     16  C   UNL     1       4.290   6.031  18.842  0.00  0.00    +0.000 C 
ATOM     17  C   UNL     1       2.965   6.501  18.229  0.00  0.00    +0.000 C 
ATOM     18  C   UNL     1       2.306   5.163  17.851  0.00  0.00    +0.000 C 
ATOM     19  O   UNL     1       1.121   4.977  17.628  0.00  0.00    +0.000 OA
BRANCH  14  20
ATOM     20  C   UNL     1       3.128   2.845  17.342  0.00  0.00    +0.000 C 
BRANCH  20  22
ATOM     21  C   UNL     1       2.125   2.130  19.533  0.00  0.00    +0.000 C 
ATOM     22  C   UNL     1       2.992   1.941  18.528  0.00  0.00    +0.000 C 
ENDBRANCH  20  22
ENDBRANCH  14  20
ENDBRANCH   1  17
TORSDOF 4
ENDMDL
MODEL 6
REMARK VINA RESULT:      -6.5      2.424      7.701
REMARK  Name = 
REMARK  6 active torsions:
REMARK  status: ('A' for Active; 'I' for Inactive)
REMARK    1  A    between atoms: C_2  and  C_3
REMARK    2  A    between atoms: C_3  and  N_4
REMARK    3  A    between atoms: C_7  and  N_8
REMARK    4  A    between atoms: N_8  and  C_9
REMARK    5  A    between atoms: N_12  and  C_13
REMARK    6  A    between atoms: C_18  and  C_19
REMARK                            x       y       z     vdW  Elec       q    Type
REMARK                         _______ _______ _______ _____ _____    ______ ____
ROOT
ATOM      1  N   UNL     1       1.173   8.866  20.398  0.00  0.00    +0.000 N 
ATOM      2  C   UNL     1       0.845   8.808  21.818  0.00  0.00    +0.000 C 
ATOM      3  C   UNL     1       1.831   7.868  19.681  0.00  0.00    +0.000 C 
ATOM      4  O   UNL     1       2.089   8.032  18.489  0.00  0.00    +0.000 OA
ATOM      5  N   UNL     1       2.144   6.724  20.384  0.00  0.00    +0.000 N 
ATOM      6  H   UNL     1       1.616   6.549  21.220  0.00  0.00    +0.000 HD
ENDROOT
BRANCH   5   7
ATOM      7  C   UNL     1       2.918   5.638  19.891  0.00  0.00    +0.000 A 
ATOM      8  C   UNL     1       4.223   5.825  19.425  0.00  0.00    +0.000 A 
ATOM      9  C   UNL     1       4.931   4.739  18.940  0.00  0.00    +0.000 A 
ATOM     10  N   UNL     1       4.444   3.485  18.904  0.00  0.00    +0.000 NA
ATOM     11  C   UNL     1       3.193   3.316  19.380  0.00  0.00    +0.000 A 
ATOM     12  C   UNL     1       2.385   4.339  19.881  0.00  0.00    +0.000 A 
ATOM     13  C   UNL     1       1.011   3.995  20.371  0.00  0.00    +0.000 C 
ENDBRANCH   5   7
BRANCH   1  17
ATOM     14  N   UNL     1      -0.068  12.258  19.846  0.00  0.00    +0.000 N 
ATOM     15  C   UNL     1      -0.709  11.606  18.731  0.00  0.00    +0.000 C 
ATOM     16  C   UNL     1      -0.458  10.134  19.000  0.00  0.00    +0.000 C 
ATOM     17  C   UNL     1       0.919  10.123  19.674  0.00  0.00    +0.000 C 
ATOM     18  C   UNL     1       0.899  11.456  20.443  0.00  0.00    +0.000 C 
ATOM     19  O   UNL     1       1.619  11.764  21.379  0.00  0.00    +0.000 OA
BRANCH  14  20
ATOM     20  C   UNL     1      -0.328  13.636  20.211  0.00  0.00    +0.000 C 
BRANCH  20  22
ATOM     21  C   UNL     1      -0.136  15.623  18.686  0.00  0.00    +0.000 C 
ATOM     22  C   UNL     1       0.411  14.563  19.297  0.00  0.00    +0.000 C 
ENDBRANCH  20  22
ENDBRANCH  14  20
ENDBRANCH   1  17
TORSDOF 4
ENDMDL
MODEL 7
REMARK VINA RESULT:      -6.5      2.285      7.978
REMARK  Name = 
REMARK  6 active torsions:
REMARK  status: ('A' for Active; 'I' for Inactive)
REMARK    1  A    between atoms: C_2  and  C_3
REMARK    2  A    between atoms: C_3  and  N_4
REMARK    3  A    between atoms: C_7  and  N_8
REMARK    4  A    between atoms: N_8  and  C_9
REMARK    5  A    between atoms: N_12  and  C_13
REMARK    6  A    between atoms: C_18  and  C_19
REMARK                            x       y       z     vdW  Elec       q    Type
REMARK                         _______ _______ _______ _____ _____    ______ ____
ROOT
ATOM      1  N   UNL     1       1.263   9.141  19.399  0.00  0.00    +0.000 N 
ATOM      2  C   UNL     1       1.075   8.706  20.778  0.00  0.00    +0.000 C 
ATOM      3  C   UNL     1       1.985   8.452  18.428  0.00  0.00    +0.000 C 
ATOM      4  O   UNL     1       2.110   8.927  17.299  0.00  0.00    +0.000 OA
ATOM      5  N   UNL     1       2.515   7.239  18.814  0.00  0.00    +0.000 N 
ATOM      6  H   UNL     1       2.093   6.795  19.609  0.00  0.00    +0.000 HD
ENDROOT
BRANCH   5   7
ATOM      7  C   UNL     1       3.385   6.432  18.030  0.00  0.00    +0.000 A 
ATOM      8  C   UNL     1       4.587   6.934  17.522  0.00  0.00    +0.000 A 
ATOM      9  C   UNL     1       5.392   6.114  16.751  0.00  0.00    +0.000 A 
ATOM     10  N   UNL     1       5.099   4.830  16.471  0.00  0.00    +0.000 NA
ATOM     11  C   UNL     1       3.949   4.352  16.988  0.00  0.00    +0.000 A 
ATOM     12  C   UNL     1       3.056   5.092  17.767  0.00  0.00    +0.000 A 
ATOM     13  C   UNL     1       1.814   4.421  18.269  0.00  0.00    +0.000 C 
ENDBRANCH   5   7
BRANCH   1  17
ATOM     14  N   UNL     1      -0.392  12.376  19.790  0.00  0.00    +0.000 N 
ATOM     15  C   UNL     1      -1.123  11.893  18.645  0.00  0.00    +0.000 C 
ATOM     16  C   UNL     1      -0.683  10.444  18.539  0.00  0.00    +0.000 C 
ATOM     17  C   UNL     1       0.774  10.477  19.016  0.00  0.00    +0.000 C 
ATOM     18  C   UNL     1       0.731  11.604  20.064  0.00  0.00    +0.000 C 
ATOM     19  O   UNL     1       1.548  11.801  20.949  0.00  0.00    +0.000 OA
BRANCH  14  20
ATOM     20  C   UNL     1      -0.735  13.598  20.488  0.00  0.00    +0.000 C 
BRANCH  20  22
ATOM     21  C   UNL     1       0.590  15.183  19.057  0.00  0.00    +0.000 C 
ATOM     22  C   UNL     1      -0.576  14.777  19.579  0.00  0.00    +0.000 C 
ENDBRANCH  20  22
ENDBRANCH  14  20
ENDBRANCH   1  17
TORSDOF 4
ENDMDL
MODEL 8
REMARK VINA RESULT:      -6.5      2.437      7.778
REMARK  Name = 
REMARK  6 active torsions:
REMARK  status: ('A' for Active; 'I' for Inactive)
REMARK    1  A    between atoms: C_2  and  C_3
REMARK    2  A    between atoms: C_3  and  N_4
REMARK    3  A    between atoms: C_7  and  N_8
REMARK    4  A    between atoms: N_8  and  C_9
REMARK    5  A    between atoms: N_12  and  C_13
REMARK    6  A    between atoms: C_18  and  C_19
REMARK                            x       y       z     vdW  Elec       q    Type
REMARK                         _______ _______ _______ _____ _____    ______ ____
ROOT
ATOM      1  N   UNL     1       1.222   8.802  20.334  0.00  0.00    +0.000 N 
ATOM      2  C   UNL     1       0.910   8.779  21.758  0.00  0.00    +0.000 C 
ATOM      3  C   UNL     1       1.868   7.785  19.634  0.00  0.00    +0.000 C 
ATOM      4  O   UNL     1       2.113   7.921  18.435  0.00  0.00    +0.000 OA
ATOM      5  N   UNL     1       2.184   6.656  20.359  0.00  0.00    +0.000 N 
ATOM      6  H   UNL     1       1.664   6.503  21.204  0.00  0.00    +0.000 HD
ENDROOT
BRANCH   5   7
ATOM      7  C   UNL     1       2.948   5.556  19.882  0.00  0.00    +0.000 A 
ATOM      8  C   UNL     1       4.272   5.714  19.462  0.00  0.00    +0.000 A 
ATOM      9  C   UNL     1       4.969   4.616  18.990  0.00  0.00    +0.000 A 
ATOM     10  N   UNL     1       4.454   3.374  18.929  0.00  0.00    +0.000 NA
ATOM     11  C   UNL     1       3.184   3.232  19.361  0.00  0.00    +0.000 A 
ATOM     12  C   UNL     1       2.384   4.270  19.844  0.00  0.00    +0.000 A 
ATOM     13  C   UNL     1       0.987   3.956  20.286  0.00  0.00    +0.000 C 
ENDBRANCH   5   7
BRANCH   1  17
ATOM     14  N   UNL     1      -0.077  12.156  19.691  0.00  0.00    +0.000 N 
ATOM     15  C   UNL     1      -0.662  11.475  18.562  0.00  0.00    +0.000 C 
ATOM     16  C   UNL     1      -0.387  10.012  18.860  0.00  0.00    +0.000 C 
ATOM     17  C   UNL     1       0.965  10.043  19.584  0.00  0.00    +0.000 C 
ATOM     18  C   UNL     1       0.886  11.385  20.333  0.00  0.00    +0.000 C 
ATOM     19  O   UNL     1       1.563  11.722  21.290  0.00  0.00    +0.000 OA
BRANCH  14  20
ATOM     20  C   UNL     1      -0.382  13.532  20.027  0.00  0.00    +0.000 C 
BRANCH  20  22
ATOM     21  C   UNL     1      -2.212  12.910  21.634  0.00  0.00    +0.000 C 
ATOM     22  C   UNL     1      -1.762  13.633  20.599  0.00  0.00    +0.000 C 
ENDBRANCH  20  22
ENDBRANCH  14  20
ENDBRANCH   1  17
TORSDOF 4
ENDMDL
MODEL 9
REMARK VINA RESULT:      -6.5      1.939      3.298
REMARK  Name = 
REMARK  6 active torsions:
REMARK  status: ('A' for Active; 'I' for Inactive)
REMARK    1  A    between atoms: C_2  and  C_3
REMARK    2  A    between atoms: C_3  and  N_4
REMARK    3  A    between atoms: C_7  and  N_8
REMARK    4  A    between atoms: N_8  and  C_9
REMARK    5  A    between atoms: N_12  and  C_13
REMARK    6  A    between atoms: C_18  and  C_19
REMARK                            x       y       z     vdW  Elec       q    Type
REMARK                         _______ _______ _______ _____ _____    ______ ____
ROOT
ATOM      1  N   UNL     1       3.662   5.571  17.528  0.00  0.00    +0.000 N 
ATOM      2  C   UNL     1       2.603   4.571  17.464  0.00  0.00    +0.000 C 
ATOM      3  C   UNL     1       3.506   6.882  17.975  0.00  0.00    +0.000 C 
ATOM      4  O   UNL     1       4.461   7.658  17.957  0.00  0.00    +0.000 OA
ATOM      5  N   UNL     1       2.250   7.220  18.433  0.00  0.00    +0.000 N 
ATOM      6  H   UNL     1       1.655   6.464  18.717  0.00  0.00    +0.000 HD
ENDROOT
BRANCH   5   7
ATOM      7  C   UNL     1       1.836   8.525  18.816  0.00  0.00    +0.000 A 
ATOM      8  C   UNL     1       1.907   9.604  17.929  0.00  0.00    +0.000 A 
ATOM      9  C   UNL     1       1.506  10.858  18.354  0.00  0.00    +0.000 A 
ATOM     10  N   UNL     1       1.022  11.111  19.584  0.00  0.00    +0.000 NA
ATOM     11  C   UNL     1       0.936  10.056  20.421  0.00  0.00    +0.000 A 
ATOM     12  C   UNL     1       1.322   8.752  20.104  0.00  0.00    +0.000 A 
ATOM     13  C   UNL     1       1.169   7.684  21.143  0.00  0.00    +0.000 C 
ENDBRANCH   5   7
BRANCH   1  17
ATOM     14  N   UNL     1       6.107   4.717  14.950  0.00  0.00    +0.000 N 
ATOM     15  C   UNL     1       6.322   3.599  15.835  0.00  0.00    +0.000 C 
ATOM     16  C   UNL     1       5.182   3.720  16.829  0.00  0.00    +0.000 C 
ATOM     17  C   UNL     1       4.976   5.235  16.954  0.00  0.00    +0.000 C 
ATOM     18  C   UNL     1       5.335   5.714  15.537  0.00  0.00    +0.000 C 
ATOM     19  O   UNL     1       5.029   6.783  15.034  0.00  0.00    +0.000 OA
BRANCH  14  20
ATOM     20  C   UNL     1       6.733   4.826  13.649  0.00  0.00    +0.000 C 
BRANCH  20  22
ATOM     21  C   UNL     1       5.133   3.482  12.252  0.00  0.00    +0.000 C 
ATOM     22  C   UNL     1       6.348   3.663  12.788  0.00  0.00    +0.000 C 
ENDBRANCH  20  22
ENDBRANCH  14  20
ENDBRANCH   1  17
TORSDOF 4
ENDMDL
