MODEL 1
REMARK VINA RESULT:      -8.3      0.000      0.000
REMARK  Name = 
REMARK  8 active torsions:
REMARK  status: ('A' for Active; 'I' for Inactive)
REMARK    1  A    between atoms: C_1  and  C_2
REMARK    2  A    between atoms: C_6  and  C_7
REMARK    3  A    between atoms: C_10  and  S_11
REMARK    4  A    between atoms: S_11  and  C_12
REMARK    5  A    between atoms: C_12  and  C_13
REMARK    6  A    between atoms: C_13  and  C_14
REMARK    7  A    between atoms: C_14  and  N_15
REMARK    8  A    between atoms: N_29  and  C_30
REMARK                            x       y       z     vdW  Elec       q    Type
REMARK                         _______ _______ _______ _____ _____    ______ ____
ROOT
ATOM      1  C   UNL     1       8.229   7.717  18.414  0.00  0.00    +0.000 C 
ENDROOT
BRANCH   1   2
ATOM      2  C   UNL     1       7.605   6.901  17.275  0.00  0.00    +0.000 C 
BRANCH   2   3
ATOM      3  S   UNL     1       5.747   7.023  17.230  0.00  0.00    +0.000 S 
BRANCH   3   7
ATOM      4  C   UNL     1       4.031   4.268  19.364  0.00  0.00    +0.000 A 
ATOM      5  N   UNL     1       5.245   3.775  19.242  0.00  0.00    +0.000 NA
ATOM      6  N   UNL     1       5.982   4.671  18.502  0.00  0.00    +0.000 NA
ATOM      7  C   UNL     1       5.227   5.683  18.201  0.00  0.00    +0.000 A 
ATOM      8  N   UNL     1       3.965   5.502  18.742  0.00  0.00    +0.000 N 
ATOM      9  C   UNL     1       2.793   6.330  18.781  0.00  0.00    +0.000 C 
BRANCH   4  15
ATOM     10  C   UNL     1       1.682   2.285  18.213  0.00  0.00    +0.000 C 
ATOM     11  C   UNL     1       1.942   2.795  19.579  0.00  0.00    +0.000 A 
ATOM     12  N   UNL     1       1.106   2.430  20.615  0.00  0.00    +0.000 NA
ATOM     13  C   UNL     1       1.645   2.997  21.661  0.00  0.00    +0.000 A 
ATOM     14  O   UNL     1       2.767   3.720  21.416  0.00  0.00    +0.000 OA
ATOM     15  C   UNL     1       2.957   3.617  20.054  0.00  0.00    +0.000 A 
ENDBRANCH   4  15
ENDBRANCH   3   7
ENDBRANCH   2   3
ENDBRANCH   1   2
BRANCH   1  16
ATOM     16  C   UNL     1       8.058   9.215  18.134  0.00  0.00    +0.000 C 
BRANCH  16  17
ATOM     17  N   UNL     1       9.250   9.987  18.483  0.00  0.00    +0.000 NA
ATOM     18  C   UNL     1       9.178  10.476  19.863  0.00  0.00    +0.000 C 
ATOM     19  C   UNL     1      10.206  11.599  19.912  0.00  0.00    +0.000 C 
ATOM     20  C   UNL     1      10.359  12.075  18.456  0.00  0.00    +0.000 C 
ATOM     21  C   UNL     1      11.820  11.918  17.941  0.00  0.00    +0.000 C 
ATOM     22  C   UNL     1      12.331  13.290  17.474  0.00  0.00    +0.000 C 
ATOM     23  C   UNL     1      11.180  14.204  17.720  0.00  0.00    +0.000 A 
ATOM     24  C   UNL     1      11.136  15.567  17.455  0.00  0.00    +0.000 A 
ATOM     25  C   UNL     1       9.966  16.270  17.748  0.00  0.00    +0.000 A 
ATOM     26  C   UNL     1       8.864  15.606  18.297  0.00  0.00    +0.000 A 
ATOM     27 BR   UNL     1       7.285  16.574  18.684  0.00  0.00    +0.000 Br
ATOM     28  C   UNL     1       8.915  14.236  18.563  0.00  0.00    +0.000 A 
ATOM     29  C   UNL     1      10.085  13.542  18.268  0.00  0.00    +0.000 A 
ATOM     30  C   UNL     1       9.380  11.198  17.664  0.00  0.00    +0.000 C 
ENDBRANCH  16  17
ENDBRANCH   1  16
TORSDOF 6
ENDMDL
MODEL 2
REMARK VINA RESULT:      -8.1      5.172      7.817
REMARK  Name = 
REMARK  8 active torsions:
REMARK  status: ('A' for Active; 'I' for Inactive)
REMARK    1  A    between atoms: C_1  and  C_2
REMARK    2  A    between atoms: C_6  and  C_7
REMARK    3  A    between atoms: C_10  and  S_11
REMARK    4  A    between atoms: S_11  and  C_12
REMARK    5  A    between atoms: C_12  and  C_13
REMARK    6  A    between atoms: C_13  and  C_14
REMARK    7  A    between atoms: C_14  and  N_15
REMARK    8  A    between atoms: N_29  and  C_30
REMARK                            x       y       z     vdW  Elec       q    Type
REMARK                         _______ _______ _______ _____ _____    ______ ____
ROOT
ATOM      1  C   UNL     1       2.451   6.143  20.036  0.00  0.00    +0.000 C 
ENDROOT
BRANCH   1   2
ATOM      2  C   UNL     1       1.738   4.975  20.730  0.00  0.00    +0.000 C 
BRANCH   2   3
ATOM      3  S   UNL     1       2.288   3.311  20.097  0.00  0.00    +0.000 S 
BRANCH   3   7
ATOM      4  C   UNL     1       5.403   4.188  17.947  0.00  0.00    +0.000 A 
ATOM      5  N   UNL     1       5.951   4.015  19.130  0.00  0.00    +0.000 NA
ATOM      6  N   UNL     1       4.945   3.682  20.008  0.00  0.00    +0.000 NA
ATOM      7  C   UNL     1       3.823   3.644  19.359  0.00  0.00    +0.000 A 
ATOM      8  N   UNL     1       4.044   3.935  18.023  0.00  0.00    +0.000 N 
ATOM      9  C   UNL     1       3.185   3.954  16.873  0.00  0.00    +0.000 C 
BRANCH   4  15
ATOM     10  C   UNL     1       7.260   6.830  17.363  0.00  0.00    +0.000 C 
ATOM     11  C   UNL     1       6.892   5.688  16.495  0.00  0.00    +0.000 A 
ATOM     12  N   UNL     1       7.364   5.636  15.199  0.00  0.00    +0.000 NA
ATOM     13  C   UNL     1       6.906   4.499  14.749  0.00  0.00    +0.000 A 
ATOM     14  O   UNL     1       6.161   3.784  15.629  0.00  0.00    +0.000 OA
ATOM     15  C   UNL     1       6.122   4.563  16.766  0.00  0.00    +0.000 A 
ENDBRANCH   4  15
ENDBRANCH   3   7
ENDBRANCH   2   3
ENDBRANCH   1   2
BRANCH   1  16
ATOM     16  C   UNL     1       1.889   7.474  20.549  0.00  0.00    +0.000 C 
BRANCH  16  17
ATOM     17  N   UNL     1       1.210   8.232  19.499  0.00  0.00    +0.000 NA
ATOM     18  C   UNL     1       2.115   8.514  18.381  0.00  0.00    +0.000 C 
ATOM     19  C   UNL     1       1.438   9.657  17.635  0.00  0.00    +0.000 C 
ATOM     20  C   UNL     1       0.535  10.344  18.677  0.00  0.00    +0.000 C 
ATOM     21  C   UNL     1      -0.964  10.319  18.256  0.00  0.00    +0.000 C 
ATOM     22  C   UNL     1      -1.488  11.763  18.205  0.00  0.00    +0.000 C 
ATOM     23  C   UNL     1      -0.307  12.587  18.590  0.00  0.00    +0.000 A 
ATOM     24  C   UNL     1      -0.266  13.972  18.700  0.00  0.00    +0.000 A 
ATOM     25  C   UNL     1       0.932  14.579  19.078  0.00  0.00    +0.000 A 
ATOM     26  C   UNL     1       2.065  13.801  19.340  0.00  0.00    +0.000 A 
ATOM     27 BR   UNL     1       3.680  14.641  19.856  0.00  0.00    +0.000 Br
ATOM     28  C   UNL     1       2.017  12.410  19.226  0.00  0.00    +0.000 A 
ATOM     29  C   UNL     1       0.819  11.811  18.848  0.00  0.00    +0.000 A 
ATOM     30  C   UNL     1       0.775   9.553  19.970  0.00  0.00    +0.000 C 
ENDBRANCH  16  17
ENDBRANCH   1  16
TORSDOF 6
ENDMDL
MODEL 3
REMARK VINA RESULT:      -8.1      1.061      1.292
REMARK  Name = 
REMARK  8 active torsions:
REMARK  status: ('A' for Active; 'I' for Inactive)
REMARK    1  A    between atoms: C_1  and  C_2
REMARK    2  A    between atoms: C_6  and  C_7
REMARK    3  A    between atoms: C_10  and  S_11
REMARK    4  A    between atoms: S_11  and  C_12
REMARK    5  A    between atoms: C_12  and  C_13
REMARK    6  A    between atoms: C_13  and  C_14
REMARK    7  A    between atoms: C_14  and  N_15
REMARK    8  A    between atoms: N_29  and  C_30
REMARK                            x       y       z     vdW  Elec       q    Type
REMARK                         _______ _______ _______ _____ _____    ______ ____
ROOT
ATOM      1  C   UNL     1       8.272   8.285  17.945  0.00  0.00    +0.000 C 
ENDROOT
BRANCH   1   2
ATOM      2  C   UNL     1       6.953   7.719  17.404  0.00  0.00    +0.000 C 
BRANCH   2   3
ATOM      3  S   UNL     1       7.082   5.926  16.913  0.00  0.00    +0.000 S 
BRANCH   3   7
ATOM      4  C   UNL     1       4.519   4.089  19.181  0.00  0.00    +0.000 A 
ATOM      5  N   UNL     1       5.601   4.036  19.926  0.00  0.00    +0.000 NA
ATOM      6  N   UNL     1       6.609   4.672  19.239  0.00  0.00    +0.000 NA
ATOM      7  C   UNL     1       6.134   5.107  18.112  0.00  0.00    +0.000 A 
ATOM      8  N   UNL     1       4.789   4.788  18.017  0.00  0.00    +0.000 N 
ATOM      9  C   UNL     1       3.781   5.091  17.041  0.00  0.00    +0.000 C 
BRANCH   4  15
ATOM     10  C   UNL     1       1.934   5.464  20.663  0.00  0.00    +0.000 C 
ATOM     11  C   UNL     1       2.162   4.079  20.190  0.00  0.00    +0.000 A 
ATOM     12  N   UNL     1       1.174   3.130  20.359  0.00  0.00    +0.000 NA
ATOM     13  C   UNL     1       1.672   2.062  19.793  0.00  0.00    +0.000 A 
ATOM     14  O   UNL     1       2.914   2.211  19.266  0.00  0.00    +0.000 OA
ATOM     15  C   UNL     1       3.256   3.518  19.543  0.00  0.00    +0.000 A 
ENDBRANCH   4  15
ENDBRANCH   3   7
ENDBRANCH   2   3
ENDBRANCH   1   2
BRANCH   1  16
ATOM     16  C   UNL     1       8.056   9.718  18.447  0.00  0.00    +0.000 C 
BRANCH  16  17
ATOM     17  N   UNL     1       9.311  10.457  18.579  0.00  0.00    +0.000 NA
ATOM     18  C   UNL     1       9.449  11.027  19.922  0.00  0.00    +0.000 C 
ATOM     19  C   UNL     1      10.512  12.107  19.759  0.00  0.00    +0.000 C 
ATOM     20  C   UNL     1      10.475  12.491  18.268  0.00  0.00    +0.000 C 
ATOM     21  C   UNL     1      11.844  12.242  17.569  0.00  0.00    +0.000 C 
ATOM     22  C   UNL     1      12.331  13.562  16.950  0.00  0.00    +0.000 C 
ATOM     23  C   UNL     1      11.258  14.538  17.294  0.00  0.00    +0.000 A 
ATOM     24  C   UNL     1      11.224  15.884  16.953  0.00  0.00    +0.000 A 
ATOM     25  C   UNL     1      10.131  16.652  17.359  0.00  0.00    +0.000 A 
ATOM     26  C   UNL     1       9.095  16.068  18.095  0.00  0.00    +0.000 A 
ATOM     27 BR   UNL     1       7.619  17.123  18.634  0.00  0.00    +0.000 Br
ATOM     28  C   UNL     1       9.136  14.714  18.437  0.00  0.00    +0.000 A 
ATOM     29  C   UNL     1      10.229  13.956  18.029  0.00  0.00    +0.000 A 
ATOM     30  C   UNL     1       9.366  11.612  17.675  0.00  0.00    +0.000 C 
ENDBRANCH  16  17
ENDBRANCH   1  16
TORSDOF 6
ENDMDL
MODEL 4
REMARK VINA RESULT:      -8.1      5.887      8.615
REMARK  Name = 
REMARK  8 active torsions:
REMARK  status: ('A' for Active; 'I' for Inactive)
REMARK    1  A    between atoms: C_1  and  C_2
REMARK    2  A    between atoms: C_6  and  C_7
REMARK    3  A    between atoms: C_10  and  S_11
REMARK    4  A    between atoms: S_11  and  C_12
REMARK    5  A    between atoms: C_12  and  C_13
REMARK    6  A    between atoms: C_13  and  C_14
REMARK    7  A    between atoms: C_14  and  N_15
REMARK    8  A    between atoms: N_29  and  C_30
REMARK                            x       y       z     vdW  Elec       q    Type
REMARK                         _______ _______ _______ _____ _____    ______ ____
ROOT
ATOM      1  C   UNL     1       2.043   5.354  20.890  0.00  0.00    +0.000 C 
ENDROOT
BRANCH   1   2
ATOM      2  C   UNL     1       1.263   4.284  20.117  0.00  0.00    +0.000 C 
BRANCH   2   3
ATOM      3  S   UNL     1       2.219   2.697  19.913  0.00  0.00    +0.000 S 
BRANCH   3   7
ATOM      4  C   UNL     1       5.296   3.986  17.924  0.00  0.00    +0.000 A 
ATOM      5  N   UNL     1       5.820   3.814  19.118  0.00  0.00    +0.000 NA
ATOM      6  N   UNL     1       4.825   3.339  19.942  0.00  0.00    +0.000 NA
ATOM      7  C   UNL     1       3.735   3.218  19.249  0.00  0.00    +0.000 A 
ATOM      8  N   UNL     1       3.969   3.594  17.937  0.00  0.00    +0.000 N 
ATOM      9  C   UNL     1       3.151   3.580  16.757  0.00  0.00    +0.000 C 
BRANCH   4  15
ATOM     10  C   UNL     1       6.910   6.817  17.535  0.00  0.00    +0.000 C 
ATOM     11  C   UNL     1       6.680   5.692  16.600  0.00  0.00    +0.000 A 
ATOM     12  N   UNL     1       7.193   5.752  15.320  0.00  0.00    +0.000 NA
ATOM     13  C   UNL     1       6.859   4.601  14.799  0.00  0.00    +0.000 A 
ATOM     14  O   UNL     1       6.159   3.776  15.617  0.00  0.00    +0.000 OA
ATOM     15  C   UNL     1       6.012   4.488  16.788  0.00  0.00    +0.000 A 
ENDBRANCH   4  15
ENDBRANCH   3   7
ENDBRANCH   2   3
ENDBRANCH   1   2
BRANCH   1  16
ATOM     16  C   UNL     1       2.267   6.581  19.998  0.00  0.00    +0.000 C 
BRANCH  16  17
ATOM     17  N   UNL     1       1.724   7.805  20.587  0.00  0.00    +0.000 NA
ATOM     18  C   UNL     1       0.393   7.573  21.154  0.00  0.00    +0.000 C 
ATOM     19  C   UNL     1      -0.202   8.970  21.287  0.00  0.00    +0.000 C 
ATOM     20  C   UNL     1       0.554   9.832  20.259  0.00  0.00    +0.000 C 
ATOM     21  C   UNL     1       1.304  11.019  20.933  0.00  0.00    +0.000 C 
ATOM     22  C   UNL     1       0.816  12.334  20.306  0.00  0.00    +0.000 C 
ATOM     23  C   UNL     1      -0.191  11.899  19.297  0.00  0.00    +0.000 A 
ATOM     24  C   UNL     1      -0.923  12.723  18.451  0.00  0.00    +0.000 A 
ATOM     25  C   UNL     1      -1.826  12.138  17.561  0.00  0.00    +0.000 A 
ATOM     26  C   UNL     1      -1.983  10.748  17.528  0.00  0.00    +0.000 A 
ATOM     27 BR   UNL     1      -3.208   9.972  16.313  0.00  0.00    +0.000 Br
ATOM     28  C   UNL     1      -1.245   9.926  18.382  0.00  0.00    +0.000 A 
ATOM     29  C   UNL     1      -0.348  10.516  19.267  0.00  0.00    +0.000 A 
ATOM     30  C   UNL     1       1.525   8.856  19.582  0.00  0.00    +0.000 C 
ENDBRANCH  16  17
ENDBRANCH   1  16
TORSDOF 6
ENDMDL
MODEL 5
REMARK VINA RESULT:      -8.0      1.198      1.480
REMARK  Name = 
REMARK  8 active torsions:
REMARK  status: ('A' for Active; 'I' for Inactive)
REMARK    1  A    between atoms: C_1  and  C_2
REMARK    2  A    between atoms: C_6  and  C_7
REMARK    3  A    between atoms: C_10  and  S_11
REMARK    4  A    between atoms: S_11  and  C_12
REMARK    5  A    between atoms: C_12  and  C_13
REMARK    6  A    between atoms: C_13  and  C_14
REMARK    7  A    between atoms: C_14  and  N_15
REMARK    8  A    between atoms: N_29  and  C_30
REMARK                            x       y       z     vdW  Elec       q    Type
REMARK                         _______ _______ _______ _____ _____    ______ ____
ROOT
ATOM      1  C   UNL     1       8.746   9.550  18.177  0.00  0.00    +0.000 C 
ENDROOT
BRANCH   1   2
ATOM      2  C   UNL     1       8.424   8.088  18.511  0.00  0.00    +0.000 C 
BRANCH   2   3
ATOM      3  S   UNL     1       7.263   7.304  17.282  0.00  0.00    +0.000 S 
BRANCH   3   7
ATOM      4  C   UNL     1       4.709   5.044  19.142  0.00  0.00    +0.000 A 
ATOM      5  N   UNL     1       5.848   4.565  19.594  0.00  0.00    +0.000 NA
ATOM      6  N   UNL     1       6.862   5.294  19.015  0.00  0.00    +0.000 NA
ATOM      7  C   UNL     1       6.338   6.197  18.245  0.00  0.00    +0.000 A 
ATOM      8  N   UNL     1       4.956   6.111  18.296  0.00  0.00    +0.000 N 
ATOM      9  C   UNL     1       3.907   6.901  17.714  0.00  0.00    +0.000 C 
BRANCH   4  15
ATOM     10  C   UNL     1       2.698   3.053  17.480  0.00  0.00    +0.000 C 
ATOM     11  C   UNL     1       2.545   3.714  18.797  0.00  0.00    +0.000 A 
ATOM     12  N   UNL     1       1.390   3.519  19.528  0.00  0.00    +0.000 NA
ATOM     13  C   UNL     1       1.607   4.183  20.632  0.00  0.00    +0.000 A 
ATOM     14  O   UNL     1       2.806   4.814  20.703  0.00  0.00    +0.000 OA
ATOM     15  C   UNL     1       3.418   4.537  19.498  0.00  0.00    +0.000 A 
ENDBRANCH   4  15
ENDBRANCH   3   7
ENDBRANCH   2   3
ENDBRANCH   1   2
BRANCH   1  16
ATOM     16  C   UNL     1       9.102  10.310  19.461  0.00  0.00    +0.000 C 
BRANCH  16  17
ATOM     17  N   UNL     1      10.229  11.223  19.274  0.00  0.00    +0.000 NA
ATOM     18  C   UNL     1      10.582  11.891  20.529  0.00  0.00    +0.000 C 
ATOM     19  C   UNL     1      11.406  13.095  20.089  0.00  0.00    +0.000 C 
ATOM     20  C   UNL     1      10.974  13.374  18.637  0.00  0.00    +0.000 C 
ATOM     21  C   UNL     1      12.169  13.274  17.644  0.00  0.00    +0.000 C 
ATOM     22  C   UNL     1      12.299  14.607  16.890  0.00  0.00    +0.000 C 
ATOM     23  C   UNL     1      11.199  15.444  17.447  0.00  0.00    +0.000 A 
ATOM     24  C   UNL     1      10.887  16.748  17.083  0.00  0.00    +0.000 A 
ATOM     25  C   UNL     1       9.812  17.381  17.711  0.00  0.00    +0.000 A 
ATOM     26  C   UNL     1       9.070  16.707  18.686  0.00  0.00    +0.000 A 
ATOM     27 BR   UNL     1       7.615  17.579  19.525  0.00  0.00    +0.000 Br
ATOM     28  C   UNL     1       9.390  15.397  19.049  0.00  0.00    +0.000 A 
ATOM     29  C   UNL     1      10.462  14.772  18.419  0.00  0.00    +0.000 A 
ATOM     30  C   UNL     1       9.903  12.314  18.347  0.00  0.00    +0.000 C 
ENDBRANCH  16  17
ENDBRANCH   1  16
TORSDOF 6
ENDMDL
MODEL 6
REMARK VINA RESULT:      -8.0      1.695      2.011
REMARK  Name = 
REMARK  8 active torsions:
REMARK  status: ('A' for Active; 'I' for Inactive)
REMARK    1  A    between atoms: C_1  and  C_2
REMARK    2  A    between atoms: C_6  and  C_7
REMARK    3  A    between atoms: C_10  and  S_11
REMARK    4  A    between atoms: S_11  and  C_12
REMARK    5  A    between atoms: C_12  and  C_13
REMARK    6  A    between atoms: C_13  and  C_14
REMARK    7  A    between atoms: C_14  and  N_15
REMARK    8  A    between atoms: N_29  and  C_30
REMARK                            x       y       z     vdW  Elec       q    Type
REMARK                         _______ _______ _______ _____ _____    ______ ____
ROOT
ATOM      1  C   UNL     1       8.118   9.756  17.809  0.00  0.00    +0.000 C 
ENDROOT
BRANCH   1   2
ATOM      2  C   UNL     1       7.368   8.440  17.567  0.00  0.00    +0.000 C 
BRANCH   2   3
ATOM      3  S   UNL     1       8.201   6.975  18.362  0.00  0.00    +0.000 S 
BRANCH   3   7
ATOM      4  C   UNL     1       5.100   4.647  18.601  0.00  0.00    +0.000 A 
ATOM      5  N   UNL     1       5.625   4.494  19.797  0.00  0.00    +0.000 NA
ATOM      6  N   UNL     1       6.749   5.286  19.860  0.00  0.00    +0.000 NA
ATOM      7  C   UNL     1       6.883   5.908  18.730  0.00  0.00    +0.000 A 
ATOM      8  N   UNL     1       5.845   5.564  17.880  0.00  0.00    +0.000 N 
ATOM      9  C   UNL     1       5.470   6.010  16.567  0.00  0.00    +0.000 C 
BRANCH   4  15
ATOM     10  C   UNL     1       2.063   5.797  18.121  0.00  0.00    +0.000 C 
ATOM     11  C   UNL     1       2.628   4.438  17.952  0.00  0.00    +0.000 A 
ATOM     12  N   UNL     1       1.813   3.409  17.524  0.00  0.00    +0.000 NA
ATOM     13  C   UNL     1       2.625   2.390  17.433  0.00  0.00    +0.000 A 
ATOM     14  O   UNL     1       3.914   2.643  17.771  0.00  0.00    +0.000 OA
ATOM     15  C   UNL     1       3.924   3.972  18.138  0.00  0.00    +0.000 A 
ENDBRANCH   4  15
ENDBRANCH   3   7
ENDBRANCH   2   3
ENDBRANCH   1   2
BRANCH   1  16
ATOM     16  C   UNL     1       8.942   9.655  19.099  0.00  0.00    +0.000 C 
BRANCH  16  17
ATOM     17  N   UNL     1      10.024  10.638  19.147  0.00  0.00    +0.000 NA
ATOM     18  C   UNL     1      10.063  11.317  20.445  0.00  0.00    +0.000 C 
ATOM     19  C   UNL     1      10.884  12.574  20.181  0.00  0.00    +0.000 C 
ATOM     20  C   UNL     1      10.749  12.837  18.669  0.00  0.00    +0.000 C 
ATOM     21  C   UNL     1      12.130  12.819  17.949  0.00  0.00    +0.000 C 
ATOM     22  C   UNL     1      12.332  14.163  17.231  0.00  0.00    +0.000 C 
ATOM     23  C   UNL     1      11.089  14.925  17.540  0.00  0.00    +0.000 A 
ATOM     24  C   UNL     1      10.779  16.210  17.111  0.00  0.00    +0.000 A 
ATOM     25  C   UNL     1       9.559  16.769  17.496  0.00  0.00    +0.000 A 
ATOM     26  C   UNL     1       8.672  16.043  18.298  0.00  0.00    +0.000 A 
ATOM     27 BR   UNL     1       7.022  16.816  18.807  0.00  0.00    +0.000 Br
ATOM     28  C   UNL     1       8.991  14.753  18.727  0.00  0.00    +0.000 A 
ATOM     29  C   UNL     1      10.208  14.202  18.340  0.00  0.00    +0.000 A 
ATOM     30  C   UNL     1       9.832  11.714  18.167  0.00  0.00    +0.000 C 
ENDBRANCH  16  17
ENDBRANCH   1  16
TORSDOF 6
ENDMDL
MODEL 7
REMARK VINA RESULT:      -7.9      1.268      1.784
REMARK  Name = 
REMARK  8 active torsions:
REMARK  status: ('A' for Active; 'I' for Inactive)
REMARK    1  A    between atoms: C_1  and  C_2
REMARK    2  A    between atoms: C_6  and  C_7
REMARK    3  A    between atoms: C_10  and  S_11
REMARK    4  A    between atoms: S_11  and  C_12
REMARK    5  A    between atoms: C_12  and  C_13
REMARK    6  A    between atoms: C_13  and  C_14
REMARK    7  A    between atoms: C_14  and  N_15
REMARK    8  A    between atoms: N_29  and  C_30
REMARK                            x       y       z     vdW  Elec       q    Type
REMARK                         _______ _______ _______ _____ _____    ______ ____
ROOT
ATOM      1  C   UNL     1       8.071   8.435  17.405  0.00  0.00    +0.000 C 
ENDROOT
BRANCH   1   2
ATOM      2  C   UNL     1       7.607   7.102  18.007  0.00  0.00    +0.000 C 
BRANCH   2   3
ATOM      3  S   UNL     1       6.818   5.975  16.751  0.00  0.00    +0.000 S 
BRANCH   3   7
ATOM      4  C   UNL     1       3.284   5.068  18.083  0.00  0.00    +0.000 A 
ATOM      5  N   UNL     1       3.187   6.375  17.978  0.00  0.00    +0.000 NA
ATOM      6  N   UNL     1       4.389   6.842  17.497  0.00  0.00    +0.000 NA
ATOM      7  C   UNL     1       5.180   5.831  17.306  0.00  0.00    +0.000 A 
ATOM      8  N   UNL     1       4.528   4.656  17.640  0.00  0.00    +0.000 N 
ATOM      9  C   UNL     1       4.901   3.272  17.547  0.00  0.00    +0.000 C 
BRANCH   4  15
ATOM     10  C   UNL     1       2.178   4.624  21.142  0.00  0.00    +0.000 C 
ATOM     11  C   UNL     1       1.777   3.997  19.861  0.00  0.00    +0.000 A 
ATOM     12  N   UNL     1       0.773   3.050  19.850  0.00  0.00    +0.000 NA
ATOM     13  C   UNL     1       0.640   2.756  18.584  0.00  0.00    +0.000 A 
ATOM     14  O   UNL     1       1.474   3.418  17.743  0.00  0.00    +0.000 OA
ATOM     15  C   UNL     1       2.241   4.214  18.569  0.00  0.00    +0.000 A 
ENDBRANCH   4  15
ENDBRANCH   3   7
ENDBRANCH   2   3
ENDBRANCH   1   2
BRANCH   1  16
ATOM     16  C   UNL     1       8.019   9.534  18.473  0.00  0.00    +0.000 C 
BRANCH  16  17
ATOM     17  N   UNL     1       9.276  10.274  18.571  0.00  0.00    +0.000 NA
ATOM     18  C   UNL     1       9.453  10.840  19.911  0.00  0.00    +0.000 C 
ATOM     19  C   UNL     1      10.509  11.922  19.721  0.00  0.00    +0.000 C 
ATOM     20  C   UNL     1      10.429  12.311  18.233  0.00  0.00    +0.000 C 
ATOM     21  C   UNL     1      11.777  12.066  17.493  0.00  0.00    +0.000 C 
ATOM     22  C   UNL     1      12.244  13.389  16.865  0.00  0.00    +0.000 C 
ATOM     23  C   UNL     1      11.180  14.362  17.243  0.00  0.00    +0.000 A 
ATOM     24  C   UNL     1      11.134  15.709  16.906  0.00  0.00    +0.000 A 
ATOM     25  C   UNL     1      10.053  16.474  17.346  0.00  0.00    +0.000 A 
ATOM     26  C   UNL     1       9.039  15.886  18.110  0.00  0.00    +0.000 A 
ATOM     27 BR   UNL     1       7.578  16.937  18.696  0.00  0.00    +0.000 Br
ATOM     28  C   UNL     1       9.091  14.532  18.447  0.00  0.00    +0.000 A 
ATOM     29  C   UNL     1      10.173  13.776  18.005  0.00  0.00    +0.000 A 
ATOM     30  C   UNL     1       9.304  11.433  17.669  0.00  0.00    +0.000 C 
ENDBRANCH  16  17
ENDBRANCH   1  16
TORSDOF 6
ENDMDL
MODEL 8
REMARK VINA RESULT:      -7.9      5.798      8.531
REMARK  Name = 
REMARK  8 active torsions:
REMARK  status: ('A' for Active; 'I' for Inactive)
REMARK    1  A    between atoms: C_1  and  C_2
REMARK    2  A    between atoms: C_6  and  C_7
REMARK    3  A    between atoms: C_10  and  S_11
REMARK    4  A    between atoms: S_11  and  C_12
REMARK    5  A    between atoms: C_12  and  C_13
REMARK    6  A    between atoms: C_13  and  C_14
REMARK    7  A    between atoms: C_14  and  N_15
REMARK    8  A    between atoms: N_29  and  C_30
REMARK                            x       y       z     vdW  Elec       q    Type
REMARK                         _______ _______ _______ _____ _____    ______ ____
ROOT
ATOM      1  C   UNL     1       1.814   5.117  20.948  0.00  0.00    +0.000 C 
ENDROOT
BRANCH   1   2
ATOM      2  C   UNL     1       0.992   4.129  20.110  0.00  0.00    +0.000 C 
BRANCH   2   3
ATOM      3  S   UNL     1       1.932   2.575  19.693  0.00  0.00    +0.000 S 
BRANCH   3   7
ATOM      4  C   UNL     1       5.238   4.214  18.480  0.00  0.00    +0.000 A 
ATOM      5  N   UNL     1       5.665   3.510  19.506  0.00  0.00    +0.000 NA
ATOM      6  N   UNL     1       4.579   2.853  20.038  0.00  0.00    +0.000 NA
ATOM      7  C   UNL     1       3.529   3.150  19.336  0.00  0.00    +0.000 A 
ATOM      8  N   UNL     1       3.882   4.002  18.303  0.00  0.00    +0.000 N 
ATOM      9  C   UNL     1       3.144   4.565  17.207  0.00  0.00    +0.000 C 
BRANCH   4  15
ATOM     10  C   UNL     1       6.259   3.812  15.387  0.00  0.00    +0.000 C 
ATOM     11  C   UNL     1       6.529   4.887  16.370  0.00  0.00    +0.000 A 
ATOM     12  N   UNL     1       7.340   5.947  16.015  0.00  0.00    +0.000 NA
ATOM     13  C   UNL     1       7.319   6.718  17.070  0.00  0.00    +0.000 A 
ATOM     14  O   UNL     1       6.570   6.263  18.106  0.00  0.00    +0.000 OA
ATOM     15  C   UNL     1       6.069   5.054  17.670  0.00  0.00    +0.000 A 
ENDBRANCH   4  15
ENDBRANCH   3   7
ENDBRANCH   2   3
ENDBRANCH   1   2
BRANCH   1  16
ATOM     16  C   UNL     1       2.128   6.367  20.117  0.00  0.00    +0.000 C 
BRANCH  16  17
ATOM     17  N   UNL     1       1.611   7.589  20.732  0.00  0.00    +0.000 NA
ATOM     18  C   UNL     1       0.252   7.389  21.242  0.00  0.00    +0.000 C 
ATOM     19  C   UNL     1      -0.293   8.803  21.408  0.00  0.00    +0.000 C 
ATOM     20  C   UNL     1       0.532   9.672  20.440  0.00  0.00    +0.000 C 
ATOM     21  C   UNL     1       1.302  10.803  21.184  0.00  0.00    +0.000 C 
ATOM     22  C   UNL     1       0.888  12.158  20.590  0.00  0.00    +0.000 C 
ATOM     23  C   UNL     1      -0.098  11.800  19.530  0.00  0.00    +0.000 A 
ATOM     24  C   UNL     1      -0.766  12.682  18.691  0.00  0.00    +0.000 A 
ATOM     25  C   UNL     1      -1.657  12.166  17.748  0.00  0.00    +0.000 A 
ATOM     26  C   UNL     1      -1.865  10.786  17.657  0.00  0.00    +0.000 A 
ATOM     27 BR   UNL     1      -3.074  10.104  16.371  0.00  0.00    +0.000 Br
ATOM     28  C   UNL     1      -1.192   9.904  18.505  0.00  0.00    +0.000 A 
ATOM     29  C   UNL     1      -0.306  10.426  19.443  0.00  0.00    +0.000 A 
ATOM     30  C   UNL     1       1.489   8.683  19.761  0.00  0.00    +0.000 C 
ENDBRANCH  16  17
ENDBRANCH   1  16
TORSDOF 6
ENDMDL
MODEL 9
REMARK VINA RESULT:      -7.9      1.513      1.690
REMARK  Name = 
REMARK  8 active torsions:
REMARK  status: ('A' for Active; 'I' for Inactive)
REMARK    1  A    between atoms: C_1  and  C_2
REMARK    2  A    between atoms: C_6  and  C_7
REMARK    3  A    between atoms: C_10  and  S_11
REMARK    4  A    between atoms: S_11  and  C_12
REMARK    5  A    between atoms: C_12  and  C_13
REMARK    6  A    between atoms: C_13  and  C_14
REMARK    7  A    between atoms: C_14  and  N_15
REMARK    8  A    between atoms: N_29  and  C_30
REMARK                            x       y       z     vdW  Elec       q    Type
REMARK                         _______ _______ _______ _____ _____    ______ ____
ROOT
ATOM      1  C   UNL     1       8.179   9.004  17.547  0.00  0.00    +0.000 C 
ENDROOT
BRANCH   1   2
ATOM      2  C   UNL     1       7.834   7.657  18.196  0.00  0.00    +0.000 C 
BRANCH   2   3
ATOM      3  S   UNL     1       7.078   6.448  16.997  0.00  0.00    +0.000 S 
BRANCH   3   7
ATOM      4  C   UNL     1       4.476   4.419  19.046  0.00  0.00    +0.000 A 
ATOM      5  N   UNL     1       5.583   3.766  19.325  0.00  0.00    +0.000 NA
ATOM      6  N   UNL     1       6.612   4.393  18.661  0.00  0.00    +0.000 NA
ATOM      7  C   UNL     1       6.129   5.408  18.011  0.00  0.00    +0.000 A 
ATOM      8  N   UNL     1       4.765   5.500  18.232  0.00  0.00    +0.000 N 
ATOM      9  C   UNL     1       3.774   6.457  17.829  0.00  0.00    +0.000 C 
BRANCH   4  15
ATOM     10  C   UNL     1       2.342   2.192  17.925  0.00  0.00    +0.000 C 
ATOM     11  C   UNL     1       2.254   3.139  19.060  0.00  0.00    +0.000 A 
ATOM     12  N   UNL     1       1.115   3.164  19.841  0.00  0.00    +0.000 NA
ATOM     13  C   UNL     1       1.391   4.051  20.759  0.00  0.00    +0.000 A 
ATOM     14  O   UNL     1       2.614   4.630  20.659  0.00  0.00    +0.000 OA
ATOM     15  C   UNL     1       3.178   4.061  19.536  0.00  0.00    +0.000 A 
ENDBRANCH   4  15
ENDBRANCH   3   7
ENDBRANCH   2   3
ENDBRANCH   1   2
BRANCH   1  16
ATOM     16  C   UNL     1       8.584  10.013  18.628  0.00  0.00    +0.000 C 
BRANCH  16  17
ATOM     17  N   UNL     1       9.685  10.874  18.201  0.00  0.00    +0.000 NA
ATOM     18  C   UNL     1      10.831  10.757  19.108  0.00  0.00    +0.000 C 
ATOM     19  C   UNL     1      11.661  12.002  18.820  0.00  0.00    +0.000 C 
ATOM     20  C   UNL     1      10.669  13.024  18.232  0.00  0.00    +0.000 C 
ATOM     21  C   UNL     1      11.073  13.468  16.795  0.00  0.00    +0.000 C 
ATOM     22  C   UNL     1      11.236  14.995  16.775  0.00  0.00    +0.000 C 
ATOM     23  C   UNL     1      10.930  15.407  18.175  0.00  0.00    +0.000 A 
ATOM     24  C   UNL     1      10.933  16.703  18.674  0.00  0.00    +0.000 A 
ATOM     25  C   UNL     1      10.616  16.905  20.019  0.00  0.00    +0.000 A 
ATOM     26  C   UNL     1      10.302  15.816  20.840  0.00  0.00    +0.000 A 
ATOM     27 BR   UNL     1       9.872  16.108  22.659  0.00  0.00    +0.000 Br
ATOM     28  C   UNL     1      10.303  14.515  20.332  0.00  0.00    +0.000 A 
ATOM     29  C   UNL     1      10.621  14.322  18.990  0.00  0.00    +0.000 A 
ATOM     30  C   UNL     1       9.319  12.296  18.243  0.00  0.00    +0.000 C 
ENDBRANCH  16  17
ENDBRANCH   1  16
TORSDOF 6
ENDMDL
