MODEL 1
REMARK VINA RESULT:      -7.1      0.000      0.000
REMARK  Name = 
REMARK  7 active torsions:
REMARK  status: ('A' for Active; 'I' for Inactive)
REMARK    1  A    between atoms: C_1  and  O_2
REMARK    2  A    between atoms: O_2  and  C_3
REMARK    3  A    between atoms: C_3  and  C_5
REMARK    4  A    between atoms: C_5  and  C_6
REMARK    5  A    between atoms: C_10  and  N_11
REMARK    6  A    between atoms: C_12  and  C_14
REMARK    7  A    between atoms: C_14  and  C_15
REMARK                            x       y       z     vdW  Elec       q    Type
REMARK                         _______ _______ _______ _____ _____    ______ ____
ROOT
ATOM      1  C   UNL     1       5.805   4.900  16.271  0.00  0.00    +0.000 A 
ATOM      2  C   UNL     1       5.635   6.277  16.322  0.00  0.00    +0.000 A 
ATOM      3  C   UNL     1       4.581   6.784  17.075  0.00  0.00    +0.000 A 
ATOM      4  C   UNL     1       3.741   5.908  17.759  0.00  0.00    +0.000 A 
ATOM      5  C   UNL     1       3.980   4.541  17.668  0.00  0.00    +0.000 A 
ATOM      6  N   UNL     1       4.988   4.051  16.933  0.00  0.00    +0.000 NA
ENDROOT
BRANCH   5   7
ATOM      7  N   UNL     1       3.134   3.668  18.364  0.00  0.00    +0.000 N 
ATOM      8  C   UNL     1       1.777   3.530  18.122  0.00  0.00    +0.000 C 
ATOM      9  O   UNL     1       1.104   4.134  17.292  0.00  0.00    +0.000 OA
ATOM     10  H   UNL     1       3.560   3.092  19.075  0.00  0.00    +0.000 HD
BRANCH   8  11
ATOM     11  C   UNL     1       1.123   2.494  19.023  0.00  0.00    +0.000 C 
BRANCH  11  12
ATOM     12  C   UNL     1       0.767   3.049  20.374  0.00  0.00    +0.000 C 
ATOM     13  C   UNL     1       1.572   2.690  21.598  0.00  0.00    +0.000 C 
ATOM     14  C   UNL     1       1.656   4.078  21.027  0.00  0.00    +0.000 C 
ENDBRANCH  11  12
ENDBRANCH   8  11
ENDBRANCH   5   7
BRANCH   1  15
ATOM     15  C   UNL     1       6.894   4.259  15.460  0.00  0.00    +0.000 C 
BRANCH  15  16
ATOM     16  C   UNL     1       6.906   4.716  14.025  0.00  0.00    +0.000 C 
ATOM     17  O   UNL     1       7.680   5.532  13.540  0.00  0.00    +0.000 OA
BRANCH  16  19
ATOM     18  C   UNL     1       6.223   3.190  12.376  0.00  0.00    +0.000 C 
ATOM     19  O   UNL     1       5.853   4.156  13.360  0.00  0.00    +0.000 OA
ENDBRANCH  16  19
ENDBRANCH  15  16
ENDBRANCH   1  15
TORSDOF 6
ENDMDL
MODEL 2
REMARK VINA RESULT:      -7.0      1.148      1.497
REMARK  Name = 
REMARK  7 active torsions:
REMARK  status: ('A' for Active; 'I' for Inactive)
REMARK    1  A    between atoms: C_1  and  O_2
REMARK    2  A    between atoms: O_2  and  C_3
REMARK    3  A    between atoms: C_3  and  C_5
REMARK    4  A    between atoms: C_5  and  C_6
REMARK    5  A    between atoms: C_10  and  N_11
REMARK    6  A    between atoms: C_12  and  C_14
REMARK    7  A    between atoms: C_14  and  C_15
REMARK                            x       y       z     vdW  Elec       q    Type
REMARK                         _______ _______ _______ _____ _____    ______ ____
ROOT
ATOM      1  C   UNL     1       4.936   5.421  16.318  0.00  0.00    +0.000 A 
ATOM      2  C   UNL     1       4.976   6.809  16.306  0.00  0.00    +0.000 A 
ATOM      3  C   UNL     1       4.158   7.500  17.193  0.00  0.00    +0.000 A 
ATOM      4  C   UNL     1       3.338   6.790  18.068  0.00  0.00    +0.000 A 
ATOM      5  C   UNL     1       3.360   5.400  18.029  0.00  0.00    +0.000 A 
ATOM      6  N   UNL     1       4.139   4.733  17.166  0.00  0.00    +0.000 NA
ENDROOT
BRANCH   5   7
ATOM      7  N   UNL     1       2.538   4.694  18.916  0.00  0.00    +0.000 N 
ATOM      8  C   UNL     1       1.467   3.903  18.534  0.00  0.00    +0.000 C 
ATOM      9  O   UNL     1       1.063   3.698  17.393  0.00  0.00    +0.000 OA
ATOM     10  H   UNL     1       2.764   4.762  19.897  0.00  0.00    +0.000 HD
BRANCH   8  11
ATOM     11  C   UNL     1       0.769   3.248  19.716  0.00  0.00    +0.000 C 
BRANCH  11  12
ATOM     12  C   UNL     1       1.498   3.472  21.011  0.00  0.00    +0.000 C 
ATOM     13  C   UNL     1       1.384   2.489  22.149  0.00  0.00    +0.000 C 
ATOM     14  C   UNL     1       2.671   2.599  21.380  0.00  0.00    +0.000 C 
ENDBRANCH  11  12
ENDBRANCH   8  11
ENDBRANCH   5   7
BRANCH   1  15
ATOM     15  C   UNL     1       5.760   4.590  15.377  0.00  0.00    +0.000 C 
BRANCH  15  16
ATOM     16  C   UNL     1       7.241   4.747  15.596  0.00  0.00    +0.000 C 
ATOM     17  O   UNL     1       7.848   4.463  16.622  0.00  0.00    +0.000 OA
BRANCH  16  19
ATOM     18  C   UNL     1       7.304   4.886  13.253  0.00  0.00    +0.000 C 
ATOM     19  O   UNL     1       7.801   5.353  14.507  0.00  0.00    +0.000 OA
ENDBRANCH  16  19
ENDBRANCH  15  16
ENDBRANCH   1  15
TORSDOF 6
ENDMDL
MODEL 3
REMARK VINA RESULT:      -6.9      1.945      6.737
REMARK  Name = 
REMARK  7 active torsions:
REMARK  status: ('A' for Active; 'I' for Inactive)
REMARK    1  A    between atoms: C_1  and  O_2
REMARK    2  A    between atoms: O_2  and  C_3
REMARK    3  A    between atoms: C_3  and  C_5
REMARK    4  A    between atoms: C_5  and  C_6
REMARK    5  A    between atoms: C_10  and  N_11
REMARK    6  A    between atoms: C_12  and  C_14
REMARK    7  A    between atoms: C_14  and  C_15
REMARK                            x       y       z     vdW  Elec       q    Type
REMARK                         _______ _______ _______ _____ _____    ______ ____
ROOT
ATOM      1  C   UNL     1       4.388   3.744  18.704  0.00  0.00    +0.000 A 
ATOM      2  C   UNL     1       4.310   5.026  19.232  0.00  0.00    +0.000 A 
ATOM      3  C   UNL     1       4.556   6.103  18.387  0.00  0.00    +0.000 A 
ATOM      4  C   UNL     1       4.859   5.870  17.046  0.00  0.00    +0.000 A 
ATOM      5  C   UNL     1       4.909   4.558  16.588  0.00  0.00    +0.000 A 
ATOM      6  N   UNL     1       4.684   3.519  17.404  0.00  0.00    +0.000 NA
ENDROOT
BRANCH   5   7
ATOM      7  N   UNL     1       5.209   4.334  15.238  0.00  0.00    +0.000 N 
ATOM      8  C   UNL     1       6.473   4.451  14.684  0.00  0.00    +0.000 C 
ATOM      9  O   UNL     1       7.510   4.771  15.258  0.00  0.00    +0.000 OA
ATOM     10  H   UNL     1       4.445   4.049  14.644  0.00  0.00    +0.000 HD
BRANCH   8  11
ATOM     11  C   UNL     1       6.495   4.131  13.198  0.00  0.00    +0.000 C 
BRANCH  11  12
ATOM     12  C   UNL     1       5.407   3.174  12.799  0.00  0.00    +0.000 C 
ATOM     13  C   UNL     1       4.571   3.416  11.567  0.00  0.00    +0.000 C 
ATOM     14  C   UNL     1       5.577   2.299  11.583  0.00  0.00    +0.000 C 
ENDBRANCH  11  12
ENDBRANCH   8  11
ENDBRANCH   5   7
BRANCH   1  15
ATOM     15  C   UNL     1       4.169   2.520  19.545  0.00  0.00    +0.000 C 
BRANCH  15  16
ATOM     16  C   UNL     1       2.982   2.641  20.463  0.00  0.00    +0.000 C 
ATOM     17  O   UNL     1       3.014   2.581  21.686  0.00  0.00    +0.000 OA
BRANCH  16  19
ATOM     18  C   UNL     1       0.936   3.748  20.145  0.00  0.00    +0.000 C 
ATOM     19  O   UNL     1       1.838   2.727  19.721  0.00  0.00    +0.000 OA
ENDBRANCH  16  19
ENDBRANCH  15  16
ENDBRANCH   1  15
TORSDOF 6
ENDMDL
MODEL 4
REMARK VINA RESULT:      -6.8      2.530      3.379
REMARK  Name = 
REMARK  7 active torsions:
REMARK  status: ('A' for Active; 'I' for Inactive)
REMARK    1  A    between atoms: C_1  and  O_2
REMARK    2  A    between atoms: O_2  and  C_3
REMARK    3  A    between atoms: C_3  and  C_5
REMARK    4  A    between atoms: C_5  and  C_6
REMARK    5  A    between atoms: C_10  and  N_11
REMARK    6  A    between atoms: C_12  and  C_14
REMARK    7  A    between atoms: C_14  and  C_15
REMARK                            x       y       z     vdW  Elec       q    Type
REMARK                         _______ _______ _______ _____ _____    ______ ____
ROOT
ATOM      1  C   UNL     1       6.755   4.529  17.049  0.00  0.00    +0.000 A 
ATOM      2  C   UNL     1       6.809   4.755  15.680  0.00  0.00    +0.000 A 
ATOM      3  C   UNL     1       5.660   4.531  14.929  0.00  0.00    +0.000 A 
ATOM      4  C   UNL     1       4.496   4.103  15.565  0.00  0.00    +0.000 A 
ATOM      5  C   UNL     1       4.515   3.908  16.942  0.00  0.00    +0.000 A 
ATOM      6  N   UNL     1       5.625   4.111  17.664  0.00  0.00    +0.000 NA
ENDROOT
BRANCH   5   7
ATOM      7  N   UNL     1       3.340   3.484  17.573  0.00  0.00    +0.000 N 
ATOM      8  C   UNL     1       2.342   4.331  18.028  0.00  0.00    +0.000 C 
ATOM      9  O   UNL     1       2.322   5.557  17.967  0.00  0.00    +0.000 OA
ATOM     10  H   UNL     1       3.215   2.489  17.680  0.00  0.00    +0.000 HD
BRANCH   8  11
ATOM     11  C   UNL     1       1.178   3.582  18.657  0.00  0.00    +0.000 C 
BRANCH  11  12
ATOM     12  C   UNL     1       1.010   3.900  20.116  0.00  0.00    +0.000 C 
ATOM     13  C   UNL     1       1.284   2.862  21.175  0.00  0.00    +0.000 C 
ATOM     14  C   UNL     1       2.220   4.025  21.007  0.00  0.00    +0.000 C 
ENDBRANCH  11  12
ENDBRANCH   8  11
ENDBRANCH   5   7
BRANCH   1  15
ATOM     15  C   UNL     1       7.952   4.713  17.936  0.00  0.00    +0.000 C 
BRANCH  15  16
ATOM     16  C   UNL     1       7.725   5.724  19.029  0.00  0.00    +0.000 C 
ATOM     17  O   UNL     1       7.032   5.557  20.025  0.00  0.00    +0.000 OA
BRANCH  16  19
ATOM     18  C   UNL     1       7.609   7.685  17.743  0.00  0.00    +0.000 C 
ATOM     19  O   UNL     1       8.330   6.902  18.694  0.00  0.00    +0.000 OA
ENDBRANCH  16  19
ENDBRANCH  15  16
ENDBRANCH   1  15
TORSDOF 6
ENDMDL
MODEL 5
REMARK VINA RESULT:      -6.8      1.745      2.059
REMARK  Name = 
REMARK  7 active torsions:
REMARK  status: ('A' for Active; 'I' for Inactive)
REMARK    1  A    between atoms: C_1  and  O_2
REMARK    2  A    between atoms: O_2  and  C_3
REMARK    3  A    between atoms: C_3  and  C_5
REMARK    4  A    between atoms: C_5  and  C_6
REMARK    5  A    between atoms: C_10  and  N_11
REMARK    6  A    between atoms: C_12  and  C_14
REMARK    7  A    between atoms: C_14  and  C_15
REMARK                            x       y       z     vdW  Elec       q    Type
REMARK                         _______ _______ _______ _____ _____    ______ ____
ROOT
ATOM      1  C   UNL     1       6.081   5.608  16.539  0.00  0.00    +0.000 A 
ATOM      2  C   UNL     1       7.335   5.896  17.061  0.00  0.00    +0.000 A 
ATOM      3  C   UNL     1       7.499   5.862  18.441  0.00  0.00    +0.000 A 
ATOM      4  C   UNL     1       6.416   5.531  19.254  0.00  0.00    +0.000 A 
ATOM      5  C   UNL     1       5.192   5.244  18.659  0.00  0.00    +0.000 A 
ATOM      6  N   UNL     1       5.030   5.289  17.329  0.00  0.00    +0.000 NA
ENDROOT
BRANCH   5   7
ATOM      7  N   UNL     1       4.111   4.908  19.483  0.00  0.00    +0.000 N 
ATOM      8  C   UNL     1       3.026   5.733  19.732  0.00  0.00    +0.000 C 
ATOM      9  O   UNL     1       2.837   6.865  19.295  0.00  0.00    +0.000 OA
ATOM     10  H   UNL     1       4.128   3.991  19.902  0.00  0.00    +0.000 HD
BRANCH   8  11
ATOM     11  C   UNL     1       2.001   5.092  20.652  0.00  0.00    +0.000 C 
BRANCH  11  12
ATOM     12  C   UNL     1       2.080   3.591  20.648  0.00  0.00    +0.000 C 
ATOM     13  C   UNL     1       1.972   2.802  21.928  0.00  0.00    +0.000 C 
ATOM     14  C   UNL     1       0.849   2.768  20.930  0.00  0.00    +0.000 C 
ENDBRANCH  11  12
ENDBRANCH   8  11
ENDBRANCH   5   7
BRANCH   1  15
ATOM     15  C   UNL     1       5.800   5.650  15.065  0.00  0.00    +0.000 C 
BRANCH  15  16
ATOM     16  C   UNL     1       6.835   4.924  14.248  0.00  0.00    +0.000 C 
ATOM     17  O   UNL     1       7.880   5.404  13.826  0.00  0.00    +0.000 OA
BRANCH  16  19
ATOM     18  C   UNL     1       6.117   3.444  12.571  0.00  0.00    +0.000 C 
ATOM     19  O   UNL     1       6.386   3.667  13.955  0.00  0.00    +0.000 OA
ENDBRANCH  16  19
ENDBRANCH  15  16
ENDBRANCH   1  15
TORSDOF 6
ENDMDL
MODEL 6
REMARK VINA RESULT:      -6.7      1.266      1.266
REMARK  Name = 
REMARK  7 active torsions:
REMARK  status: ('A' for Active; 'I' for Inactive)
REMARK    1  A    between atoms: C_1  and  O_2
REMARK    2  A    between atoms: O_2  and  C_3
REMARK    3  A    between atoms: C_3  and  C_5
REMARK    4  A    between atoms: C_5  and  C_6
REMARK    5  A    between atoms: C_10  and  N_11
REMARK    6  A    between atoms: C_12  and  C_14
REMARK    7  A    between atoms: C_14  and  C_15
REMARK                            x       y       z     vdW  Elec       q    Type
REMARK                         _______ _______ _______ _____ _____    ______ ____
ROOT
ATOM      1  C   UNL     1       5.992   5.248  16.294  0.00  0.00    +0.000 A 
ATOM      2  C   UNL     1       5.726   6.607  16.400  0.00  0.00    +0.000 A 
ATOM      3  C   UNL     1       4.575   7.003  17.072  0.00  0.00    +0.000 A 
ATOM      4  C   UNL     1       3.735   6.037  17.626  0.00  0.00    +0.000 A 
ATOM      5  C   UNL     1       4.074   4.695  17.489  0.00  0.00    +0.000 A 
ATOM      6  N   UNL     1       5.176   4.312  16.830  0.00  0.00    +0.000 NA
ENDROOT
BRANCH   5   7
ATOM      7  N   UNL     1       3.228   3.732  18.053  0.00  0.00    +0.000 N 
ATOM      8  C   UNL     1       3.580   2.893  19.097  0.00  0.00    +0.000 C 
ATOM      9  O   UNL     1       4.659   2.844  19.681  0.00  0.00    +0.000 OA
ATOM     10  H   UNL     1       2.295   3.670  17.676  0.00  0.00    +0.000 HD
BRANCH   8  11
ATOM     11  C   UNL     1       2.450   1.963  19.509  0.00  0.00    +0.000 C 
BRANCH  11  12
ATOM     12  C   UNL     1       1.362   2.676  20.261  0.00  0.00    +0.000 C 
ATOM     13  C   UNL     1       1.322   2.667  21.768  0.00  0.00    +0.000 C 
ATOM     14  C   UNL     1       1.675   3.931  21.036  0.00  0.00    +0.000 C 
ENDBRANCH  11  12
ENDBRANCH   8  11
ENDBRANCH   5   7
BRANCH   1  15
ATOM     15  C   UNL     1       7.193   4.725  15.561  0.00  0.00    +0.000 C 
BRANCH  15  16
ATOM     16  C   UNL     1       7.031   4.761  14.065  0.00  0.00    +0.000 C 
ATOM     17  O   UNL     1       7.626   5.508  13.298  0.00  0.00    +0.000 OA
BRANCH  16  19
ATOM     18  C   UNL     1       6.150   3.414  12.355  0.00  0.00    +0.000 C 
ATOM     19  O   UNL     1       6.039   3.898  13.693  0.00  0.00    +0.000 OA
ENDBRANCH  16  19
ENDBRANCH  15  16
ENDBRANCH   1  15
TORSDOF 6
ENDMDL
MODEL 7
REMARK VINA RESULT:      -6.7      1.434      1.949
REMARK  Name = 
REMARK  7 active torsions:
REMARK  status: ('A' for Active; 'I' for Inactive)
REMARK    1  A    between atoms: C_1  and  O_2
REMARK    2  A    between atoms: O_2  and  C_3
REMARK    3  A    between atoms: C_3  and  C_5
REMARK    4  A    between atoms: C_5  and  C_6
REMARK    5  A    between atoms: C_10  and  N_11
REMARK    6  A    between atoms: C_12  and  C_14
REMARK    7  A    between atoms: C_14  and  C_15
REMARK                            x       y       z     vdW  Elec       q    Type
REMARK                         _______ _______ _______ _____ _____    ______ ____
ROOT
ATOM      1  C   UNL     1       4.841   5.282  16.385  0.00  0.00    +0.000 A 
ATOM      2  C   UNL     1       4.946   6.666  16.408  0.00  0.00    +0.000 A 
ATOM      3  C   UNL     1       4.082   7.379  17.233  0.00  0.00    +0.000 A 
ATOM      4  C   UNL     1       3.153   6.693  18.013  0.00  0.00    +0.000 A 
ATOM      5  C   UNL     1       3.114   5.305  17.944  0.00  0.00    +0.000 A 
ATOM      6  N   UNL     1       3.938   4.617  17.141  0.00  0.00    +0.000 NA
ENDROOT
BRANCH   5   7
ATOM      7  N   UNL     1       2.182   4.623  18.736  0.00  0.00    +0.000 N 
ATOM      8  C   UNL     1       1.741   3.332  18.495  0.00  0.00    +0.000 C 
ATOM      9  O   UNL     1       2.074   2.592  17.574  0.00  0.00    +0.000 OA
ATOM     10  H   UNL     1       1.829   5.111  19.545  0.00  0.00    +0.000 HD
BRANCH   8  11
ATOM     11  C   UNL     1       0.740   2.849  19.533  0.00  0.00    +0.000 C 
BRANCH  11  12
ATOM     12  C   UNL     1       1.097   3.290  20.925  0.00  0.00    +0.000 C 
ATOM     13  C   UNL     1       1.307   2.284  22.029  0.00  0.00    +0.000 C 
ATOM     14  C   UNL     1       2.481   3.036  21.467  0.00  0.00    +0.000 C 
ENDBRANCH  11  12
ENDBRANCH   8  11
ENDBRANCH   5   7
BRANCH   1  15
ATOM     15  C   UNL     1       5.708   4.430  15.504  0.00  0.00    +0.000 C 
BRANCH  15  16
ATOM     16  C   UNL     1       7.159   4.829  15.543  0.00  0.00    +0.000 C 
ATOM     17  O   UNL     1       7.712   5.598  14.766  0.00  0.00    +0.000 OA
BRANCH  16  19
ATOM     18  C   UNL     1       7.680   4.683  17.829  0.00  0.00    +0.000 C 
ATOM     19  O   UNL     1       7.800   4.122  16.522  0.00  0.00    +0.000 OA
ENDBRANCH  16  19
ENDBRANCH  15  16
ENDBRANCH   1  15
TORSDOF 6
ENDMDL
MODEL 8
REMARK VINA RESULT:      -6.7      1.988      6.726
REMARK  Name = 
REMARK  7 active torsions:
REMARK  status: ('A' for Active; 'I' for Inactive)
REMARK    1  A    between atoms: C_1  and  O_2
REMARK    2  A    between atoms: O_2  and  C_3
REMARK    3  A    between atoms: C_3  and  C_5
REMARK    4  A    between atoms: C_5  and  C_6
REMARK    5  A    between atoms: C_10  and  N_11
REMARK    6  A    between atoms: C_12  and  C_14
REMARK    7  A    between atoms: C_14  and  C_15
REMARK                            x       y       z     vdW  Elec       q    Type
REMARK                         _______ _______ _______ _____ _____    ______ ____
ROOT
ATOM      1  C   UNL     1       4.829   5.181  18.188  0.00  0.00    +0.000 A 
ATOM      2  C   UNL     1       5.983   5.304  18.949  0.00  0.00    +0.000 A 
ATOM      3  C   UNL     1       7.205   5.029  18.343  0.00  0.00    +0.000 A 
ATOM      4  C   UNL     1       7.237   4.654  17.002  0.00  0.00    +0.000 A 
ATOM      5  C   UNL     1       6.040   4.562  16.301  0.00  0.00    +0.000 A 
ATOM      6  N   UNL     1       4.861   4.815  16.887  0.00  0.00    +0.000 NA
ENDROOT
BRANCH   5   7
ATOM      7  N   UNL     1       6.082   4.190  14.952  0.00  0.00    +0.000 N 
ATOM      8  C   UNL     1       6.954   4.724  14.016  0.00  0.00    +0.000 C 
ATOM      9  O   UNL     1       7.803   5.591  14.201  0.00  0.00    +0.000 OA
ATOM     10  H   UNL     1       5.441   3.469  14.659  0.00  0.00    +0.000 HD
BRANCH   8  11
ATOM     11  C   UNL     1       6.779   4.114  12.635  0.00  0.00    +0.000 C 
BRANCH  11  12
ATOM     12  C   UNL     1       5.577   3.215  12.551  0.00  0.00    +0.000 C 
ATOM     13  C   UNL     1       4.571   3.363  11.437  0.00  0.00    +0.000 C 
ATOM     14  C   UNL     1       5.488   2.172  11.465  0.00  0.00    +0.000 C 
ENDBRANCH  11  12
ENDBRANCH   8  11
ENDBRANCH   5   7
BRANCH   1  15
ATOM     15  C   UNL     1       3.464   5.427  18.764  0.00  0.00    +0.000 C 
BRANCH  15  16
ATOM     16  C   UNL     1       3.110   4.469  19.870  0.00  0.00    +0.000 C 
ATOM     17  O   UNL     1       2.831   4.778  21.022  0.00  0.00    +0.000 OA
BRANCH  16  19
ATOM     18  C   UNL     1       4.075   2.361  20.243  0.00  0.00    +0.000 C 
ATOM     19  O   UNL     1       3.247   3.186  19.423  0.00  0.00    +0.000 OA
ENDBRANCH  16  19
ENDBRANCH  15  16
ENDBRANCH   1  15
TORSDOF 6
ENDMDL
MODEL 9
REMARK VINA RESULT:      -6.6      2.005      6.698
REMARK  Name = 
REMARK  7 active torsions:
REMARK  status: ('A' for Active; 'I' for Inactive)
REMARK    1  A    between atoms: C_1  and  O_2
REMARK    2  A    between atoms: O_2  and  C_3
REMARK    3  A    between atoms: C_3  and  C_5
REMARK    4  A    between atoms: C_5  and  C_6
REMARK    5  A    between atoms: C_10  and  N_11
REMARK    6  A    between atoms: C_12  and  C_14
REMARK    7  A    between atoms: C_14  and  C_15
REMARK                            x       y       z     vdW  Elec       q    Type
REMARK                         _______ _______ _______ _____ _____    ______ ____
ROOT
ATOM      1  C   UNL     1       3.842   4.542  18.169  0.00  0.00    +0.000 A 
ATOM      2  C   UNL     1       4.314   5.756  18.650  0.00  0.00    +0.000 A 
ATOM      3  C   UNL     1       5.142   6.513  17.829  0.00  0.00    +0.000 A 
ATOM      4  C   UNL     1       5.464   6.045  16.557  0.00  0.00    +0.000 A 
ATOM      5  C   UNL     1       4.945   4.824  16.140  0.00  0.00    +0.000 A 
ATOM      6  N   UNL     1       4.157   4.087  16.935  0.00  0.00    +0.000 NA
ENDROOT
BRANCH   5   7
ATOM      7  N   UNL     1       5.269   4.363  14.858  0.00  0.00    +0.000 N 
ATOM      8  C   UNL     1       6.503   4.531  14.251  0.00  0.00    +0.000 C 
ATOM      9  O   UNL     1       7.488   5.099  14.714  0.00  0.00    +0.000 OA
ATOM     10  H   UNL     1       4.549   3.861  14.360  0.00  0.00    +0.000 HD
BRANCH   8  11
ATOM     11  C   UNL     1       6.565   3.912  12.864  0.00  0.00    +0.000 C 
BRANCH  11  12
ATOM     12  C   UNL     1       5.358   3.070  12.555  0.00  0.00    +0.000 C 
ATOM     13  C   UNL     1       4.522   3.328  11.327  0.00  0.00    +0.000 C 
ATOM     14  C   UNL     1       5.388   2.101  11.400  0.00  0.00    +0.000 C 
ENDBRANCH  11  12
ENDBRANCH   8  11
ENDBRANCH   5   7
BRANCH   1  15
ATOM     15  C   UNL     1       2.968   3.641  18.993  0.00  0.00    +0.000 C 
BRANCH  15  16
ATOM     16  C   UNL     1       3.723   2.919  20.078  0.00  0.00    +0.000 C 
ATOM     17  O   UNL     1       4.889   2.549  20.013  0.00  0.00    +0.000 OA
BRANCH  16  19
ATOM     18  C   UNL     1       1.505   2.925  20.848  0.00  0.00    +0.000 C 
ATOM     19  O   UNL     1       2.878   2.644  21.116  0.00  0.00    +0.000 OA
ENDBRANCH  16  19
ENDBRANCH  15  16
ENDBRANCH   1  15
TORSDOF 6
ENDMDL
