MODEL 1
REMARK VINA RESULT:      -6.9      0.000      0.000
REMARK  Name = 
REMARK  7 active torsions:
REMARK  status: ('A' for Active; 'I' for Inactive)
REMARK    1  A    between atoms: C_1  and  O_2
REMARK    2  A    between atoms: O_2  and  C_3
REMARK    3  A    between atoms: C_8  and  O_9
REMARK    4  A    between atoms: O_9  and  C_10
REMARK    5  A    between atoms: S_11  and  C_12
REMARK    6  A    between atoms: C_19  and  C_20
REMARK    7  A    between atoms: C_19  and  C_22
REMARK                            x       y       z     vdW  Elec       q    Type
REMARK                         _______ _______ _______ _____ _____    ______ ____
ROOT
ATOM      1  C   UNL     1      -2.499  12.721  22.363  0.00  0.00    +0.000 A 
ATOM      2  C   UNL     1      -1.457  11.745  22.360  0.00  0.00    +0.000 A 
ATOM      3  C   UNL     1      -0.987  11.195  21.150  0.00  0.00    +0.000 A 
ATOM      4  C   UNL     1      -1.587  11.694  19.999  0.00  0.00    +0.000 A 
ATOM      5  C   UNL     1      -2.593  12.643  19.982  0.00  0.00    +0.000 A 
ATOM      6  C   UNL     1      -3.071  13.201  21.137  0.00  0.00    +0.000 A 
ATOM      7  S   UNL     1      -1.236  10.981  18.506  0.00  0.00    +0.000 S 
ATOM      8  C   UNL     1      -2.595   9.832  18.256  0.00  0.00    +0.000 C 
ATOM      9  O   UNL     1      -0.940  12.095  17.491  0.00  0.00    +0.000 OA
ATOM     10  N   UNL     1       0.151  10.263  18.698  0.00  0.00    +0.000 NA
ATOM     11  C   UNL     1       0.555   9.717  19.939  0.00  0.00    +0.000 C 
ATOM     12  N   UNL     1       1.613   8.739  19.860  0.00  0.00    +0.000 N 
ATOM     13  C   UNL     1       2.161   8.411  18.547  0.00  0.00    +0.000 C 
ATOM     14  C   UNL     1       1.816   6.964  18.163  0.00  0.00    +0.000 C 
ATOM     15  C   UNL     1       2.317   5.952  19.226  0.00  0.00    +0.000 C 
ATOM     16  C   UNL     1       1.718   6.385  20.600  0.00  0.00    +0.000 C 
ATOM     17  C   UNL     1       2.025   7.876  20.966  0.00  0.00    +0.000 C 
ATOM     18  N   UNL     1       0.020  10.140  21.072  0.00  0.00    +0.000 NA
ENDROOT
BRANCH  15  19
ATOM     19  C   UNL     1       1.943   4.490  18.885  0.00  0.00    +0.000 A 
ATOM     20  C   UNL     1       1.026   3.799  19.718  0.00  0.00    +0.000 A 
ATOM     21  C   UNL     1       0.741   2.448  19.506  0.00  0.00    +0.000 A 
ATOM     22  C   UNL     1       1.337   1.764  18.451  0.00  0.00    +0.000 A 
ATOM     23  C   UNL     1       2.207   2.430  17.590  0.00  0.00    +0.000 A 
ATOM     24  C   UNL     1       2.515   3.775  17.802  0.00  0.00    +0.000 A 
ENDBRANCH  15  19
BRANCH   1  26
ATOM     25  C   UNL     1      -3.987  12.395  24.150  0.00  0.00    +0.000 C 
ATOM     26  O   UNL     1      -2.949  13.089  23.575  0.00  0.00    +0.000 OA
ENDBRANCH   1  26
BRANCH   6  27
ATOM     27  O   UNL     1      -4.044  14.147  20.916  0.00  0.00    +0.000 OA
ATOM     28  C   UNL     1      -4.127  15.487  21.209  0.00  0.00    +0.000 C 
ENDBRANCH   6  27
BRANCH  15  29
ATOM     29  C   UNL     1       3.798   5.979  19.256  0.00  0.00    +0.000 C 
ATOM     30  N   UNL     1       4.951   5.962  19.284  0.00  0.00    +0.000 NA
ENDBRANCH  15  29
TORSDOF 4
ENDMDL
MODEL 2
REMARK VINA RESULT:      -6.1      0.771      1.175
REMARK  Name = 
REMARK  7 active torsions:
REMARK  status: ('A' for Active; 'I' for Inactive)
REMARK    1  A    between atoms: C_1  and  O_2
REMARK    2  A    between atoms: O_2  and  C_3
REMARK    3  A    between atoms: C_8  and  O_9
REMARK    4  A    between atoms: O_9  and  C_10
REMARK    5  A    between atoms: S_11  and  C_12
REMARK    6  A    between atoms: C_19  and  C_20
REMARK    7  A    between atoms: C_19  and  C_22
REMARK                            x       y       z     vdW  Elec       q    Type
REMARK                         _______ _______ _______ _____ _____    ______ ____
ROOT
ATOM      1  C   UNL     1      -2.500  13.065  21.898  0.00  0.00    +0.000 A 
ATOM      2  C   UNL     1      -1.392  12.168  21.841  0.00  0.00    +0.000 A 
ATOM      3  C   UNL     1      -1.084  11.474  20.654  0.00  0.00    +0.000 A 
ATOM      4  C   UNL     1      -1.908  11.757  19.571  0.00  0.00    +0.000 A 
ATOM      5  C   UNL     1      -2.983  12.627  19.604  0.00  0.00    +0.000 A 
ATOM      6  C   UNL     1      -3.309  13.320  20.739  0.00  0.00    +0.000 A 
ATOM      7  S   UNL     1      -1.751  10.852  18.149  0.00  0.00    +0.000 S 
ATOM      8  C   UNL     1      -3.026   9.595  18.304  0.00  0.00    +0.000 C 
ATOM      9  O   UNL     1      -1.728  11.819  16.957  0.00  0.00    +0.000 OA
ATOM     10  N   UNL     1      -0.294  10.260  18.188  0.00  0.00    +0.000 NA
ATOM     11  C   UNL     1       0.359   9.932  19.400  0.00  0.00    +0.000 C 
ATOM     12  N   UNL     1       1.471   9.022  19.267  0.00  0.00    +0.000 N 
ATOM     13  C   UNL     1       1.818   8.537  17.935  0.00  0.00    +0.000 C 
ATOM     14  C   UNL     1       1.542   7.030  17.818  0.00  0.00    +0.000 C 
ATOM     15  C   UNL     1       2.301   6.221  18.903  0.00  0.00    +0.000 C 
ATOM     16  C   UNL     1       1.904   6.816  20.289  0.00  0.00    +0.000 C 
ATOM     17  C   UNL     1       2.136   8.362  20.389  0.00  0.00    +0.000 C 
ATOM     18  N   UNL     1      -0.015  10.485  20.541  0.00  0.00    +0.000 NA
ENDROOT
BRANCH  15  19
ATOM     19  C   UNL     1       2.006   4.705  18.836  0.00  0.00    +0.000 A 
ATOM     20  C   UNL     1       2.512   3.949  17.748  0.00  0.00    +0.000 A 
ATOM     21  C   UNL     1       2.183   2.600  17.594  0.00  0.00    +0.000 A 
ATOM     22  C   UNL     1       1.368   1.968  18.528  0.00  0.00    +0.000 A 
ATOM     23  C   UNL     1       0.892   2.675  19.631  0.00  0.00    +0.000 A 
ATOM     24  C   UNL     1       1.200   4.028  19.786  0.00  0.00    +0.000 A 
ENDBRANCH  15  19
BRANCH   1  26
ATOM     25  C   UNL     1      -1.749  14.100  23.867  0.00  0.00    +0.000 C 
ATOM     26  O   UNL     1      -2.772  13.581  23.108  0.00  0.00    +0.000 OA
ENDBRANCH   1  26
BRANCH   6  27
ATOM     27  O   UNL     1      -4.384  14.159  20.568  0.00  0.00    +0.000 OA
ATOM     28  C   UNL     1      -4.504  15.527  20.528  0.00  0.00    +0.000 C 
ENDBRANCH   6  27
BRANCH  15  29
ATOM     29  C   UNL     1       3.758   6.345  18.664  0.00  0.00    +0.000 C 
ATOM     30  N   UNL     1       4.889   6.420  18.448  0.00  0.00    +0.000 NA
ENDBRANCH  15  29
TORSDOF 4
ENDMDL
MODEL 3
REMARK VINA RESULT:      -6.0      4.096      9.474
REMARK  Name = 
REMARK  7 active torsions:
REMARK  status: ('A' for Active; 'I' for Inactive)
REMARK    1  A    between atoms: C_1  and  O_2
REMARK    2  A    between atoms: O_2  and  C_3
REMARK    3  A    between atoms: C_8  and  O_9
REMARK    4  A    between atoms: O_9  and  C_10
REMARK    5  A    between atoms: S_11  and  C_12
REMARK    6  A    between atoms: C_19  and  C_20
REMARK    7  A    between atoms: C_19  and  C_22
REMARK                            x       y       z     vdW  Elec       q    Type
REMARK                         _______ _______ _______ _____ _____    ______ ____
ROOT
ATOM      1  C   UNL     1       4.555   3.557  17.275  0.00  0.00    +0.000 A 
ATOM      2  C   UNL     1       4.155   4.927  17.235  0.00  0.00    +0.000 A 
ATOM      3  C   UNL     1       3.352   5.475  18.256  0.00  0.00    +0.000 A 
ATOM      4  C   UNL     1       3.024   4.600  19.286  0.00  0.00    +0.000 A 
ATOM      5  C   UNL     1       3.408   3.272  19.345  0.00  0.00    +0.000 A 
ATOM      6  C   UNL     1       4.189   2.709  18.373  0.00  0.00    +0.000 A 
ATOM      7  S   UNL     1       1.919   5.089  20.470  0.00  0.00    +0.000 S 
ATOM      8  C   UNL     1       0.359   4.402  19.902  0.00  0.00    +0.000 C 
ATOM      9  O   UNL     1       2.492   4.731  21.849  0.00  0.00    +0.000 OA
ATOM     10  N   UNL     1       1.945   6.662  20.444  0.00  0.00    +0.000 NA
ATOM     11  C   UNL     1       2.200   7.396  19.261  0.00  0.00    +0.000 C 
ATOM     12  N   UNL     1       1.771   8.773  19.293  0.00  0.00    +0.000 N 
ATOM     13  C   UNL     1       1.133   9.276  20.506  0.00  0.00    +0.000 C 
ATOM     14  C   UNL     1      -0.345   9.605  20.245  0.00  0.00    +0.000 C 
ATOM     15  C   UNL     1      -0.511  10.623  19.086  0.00  0.00    +0.000 C 
ATOM     16  C   UNL     1       0.220  10.032  17.841  0.00  0.00    +0.000 C 
ATOM     17  C   UNL     1       1.711   9.647  18.123  0.00  0.00    +0.000 C 
ATOM     18  N   UNL     1       2.841   6.843  18.246  0.00  0.00    +0.000 NA
ENDROOT
BRANCH  15  19
ATOM     19  C   UNL     1      -1.992  10.938  18.772  0.00  0.00    +0.000 A 
ATOM     20  C   UNL     1      -2.645  11.974  19.487  0.00  0.00    +0.000 A 
ATOM     21  C   UNL     1      -4.008  12.222  19.309  0.00  0.00    +0.000 A 
ATOM     22  C   UNL     1      -4.744  11.466  18.401  0.00  0.00    +0.000 A 
ATOM     23  C   UNL     1      -4.119  10.471  17.653  0.00  0.00    +0.000 A 
ATOM     24  C   UNL     1      -2.761  10.201  17.835  0.00  0.00    +0.000 A 
ENDBRANCH  15  19
BRANCH   1  26
ATOM     25  C   UNL     1       6.057   3.965  15.517  0.00  0.00    +0.000 C 
ATOM     26  O   UNL     1       5.218   3.112  16.194  0.00  0.00    +0.000 OA
ENDBRANCH   1  26
BRANCH   6  27
ATOM     27  O   UNL     1       4.493   1.391  18.623  0.00  0.00    +0.000 OA
ATOM     28  C   UNL     1       4.888   0.723  19.757  0.00  0.00    +0.000 C 
ENDBRANCH   6  27
BRANCH  15  29
ATOM     29  C   UNL     1       0.085  11.916  19.493  0.00  0.00    +0.000 C 
ATOM     30  N   UNL     1       0.583  12.910  19.801  0.00  0.00    +0.000 NA
ENDBRANCH  15  29
TORSDOF 4
ENDMDL
MODEL 4
REMARK VINA RESULT:      -5.9      7.240     10.200
REMARK  Name = 
REMARK  7 active torsions:
REMARK  status: ('A' for Active; 'I' for Inactive)
REMARK    1  A    between atoms: C_1  and  O_2
REMARK    2  A    between atoms: O_2  and  C_3
REMARK    3  A    between atoms: C_8  and  O_9
REMARK    4  A    between atoms: O_9  and  C_10
REMARK    5  A    between atoms: S_11  and  C_12
REMARK    6  A    between atoms: C_19  and  C_20
REMARK    7  A    between atoms: C_19  and  C_22
REMARK                            x       y       z     vdW  Elec       q    Type
REMARK                         _______ _______ _______ _____ _____    ______ ____
ROOT
ATOM      1  C   UNL     1       9.356  14.725  17.986  0.00  0.00    +0.000 A 
ATOM      2  C   UNL     1       8.070  14.137  17.790  0.00  0.00    +0.000 A 
ATOM      3  C   UNL     1       6.915  14.725  18.345  0.00  0.00    +0.000 A 
ATOM      4  C   UNL     1       7.130  15.904  19.049  0.00  0.00    +0.000 A 
ATOM      5  C   UNL     1       8.367  16.492  19.245  0.00  0.00    +0.000 A 
ATOM      6  C   UNL     1       9.508  15.951  18.717  0.00  0.00    +0.000 A 
ATOM      7  S   UNL     1       5.851  16.601  19.912  0.00  0.00    +0.000 S 
ATOM      8  C   UNL     1       6.097  16.003  21.588  0.00  0.00    +0.000 C 
ATOM      9  O   UNL     1       5.815  18.104  19.600  0.00  0.00    +0.000 OA
ATOM     10  N   UNL     1       4.541  16.041  19.244  0.00  0.00    +0.000 NA
ATOM     11  C   UNL     1       4.479  14.755  18.657  0.00  0.00    +0.000 C 
ATOM     12  N   UNL     1       3.148  14.225  18.487  0.00  0.00    +0.000 N 
ATOM     13  C   UNL     1       2.015  15.037  18.920  0.00  0.00    +0.000 C 
ATOM     14  C   UNL     1       1.309  14.389  20.120  0.00  0.00    +0.000 C 
ATOM     15  C   UNL     1       0.847  12.942  19.802  0.00  0.00    +0.000 C 
ATOM     16  C   UNL     1       2.101  12.149  19.319  0.00  0.00    +0.000 C 
ATOM     17  C   UNL     1       2.850  12.839  18.130  0.00  0.00    +0.000 C 
ATOM     18  N   UNL     1       5.578  14.143  18.252  0.00  0.00    +0.000 NA
ENDROOT
BRANCH  15  19
ATOM     19  C   UNL     1       0.173  12.249  21.009  0.00  0.00    +0.000 A 
ATOM     20  C   UNL     1       0.348  10.854  21.191  0.00  0.00    +0.000 A 
ATOM     21  C   UNL     1      -0.326  10.172  22.207  0.00  0.00    +0.000 A 
ATOM     22  C   UNL     1      -1.164  10.862  23.078  0.00  0.00    +0.000 A 
ATOM     23  C   UNL     1      -1.319  12.241  22.949  0.00  0.00    +0.000 A 
ATOM     24  C   UNL     1      -0.666  12.931  21.927  0.00  0.00    +0.000 A 
ENDBRANCH  15  19
BRANCH   1  26
ATOM     25  C   UNL     1      10.877  12.955  18.241  0.00  0.00    +0.000 C 
ATOM     26  O   UNL     1      10.397  14.019  17.514  0.00  0.00    +0.000 OA
ENDBRANCH   1  26
BRANCH   6  27
ATOM     27  O   UNL     1      10.632  16.693  18.990  0.00  0.00    +0.000 OA
ATOM     28  C   UNL     1      11.770  16.434  19.717  0.00  0.00    +0.000 C 
ENDBRANCH   6  27
BRANCH  15  29
ATOM     29  C   UNL     1      -0.193  12.990  18.749  0.00  0.00    +0.000 C 
ATOM     30  N   UNL     1      -1.030  13.036  17.955  0.00  0.00    +0.000 NA
ENDBRANCH  15  29
TORSDOF 4
ENDMDL
MODEL 5
REMARK VINA RESULT:      -5.9      6.356      7.845
REMARK  Name = 
REMARK  7 active torsions:
REMARK  status: ('A' for Active; 'I' for Inactive)
REMARK    1  A    between atoms: C_1  and  O_2
REMARK    2  A    between atoms: O_2  and  C_3
REMARK    3  A    between atoms: C_8  and  O_9
REMARK    4  A    between atoms: O_9  and  C_10
REMARK    5  A    between atoms: S_11  and  C_12
REMARK    6  A    between atoms: C_19  and  C_20
REMARK    7  A    between atoms: C_19  and  C_22
REMARK                            x       y       z     vdW  Elec       q    Type
REMARK                         _______ _______ _______ _____ _____    ______ ____
ROOT
ATOM      1  C   UNL     1       6.443  17.356  19.503  0.00  0.00    +0.000 A 
ATOM      2  C   UNL     1       5.529  16.419  18.935  0.00  0.00    +0.000 A 
ATOM      3  C   UNL     1       4.723  15.605  19.757  0.00  0.00    +0.000 A 
ATOM      4  C   UNL     1       4.870  15.814  21.124  0.00  0.00    +0.000 A 
ATOM      5  C   UNL     1       5.746  16.722  21.693  0.00  0.00    +0.000 A 
ATOM      6  C   UNL     1       6.540  17.529  20.925  0.00  0.00    +0.000 A 
ATOM      7  S   UNL     1       4.094  14.775  22.210  0.00  0.00    +0.000 S 
ATOM      8  C   UNL     1       5.369  13.584  22.641  0.00  0.00    +0.000 C 
ATOM      9  O   UNL     1       3.401  15.623  23.286  0.00  0.00    +0.000 OA
ATOM     10  N   UNL     1       2.903  14.138  21.403  0.00  0.00    +0.000 NA
ATOM     11  C   UNL     1       2.972  13.902  20.009  0.00  0.00    +0.000 C 
ATOM     12  N   UNL     1       2.018  12.945  19.504  0.00  0.00    +0.000 N 
ATOM     13  C   UNL     1       1.090  12.324  20.444  0.00  0.00    +0.000 C 
ATOM     14  C   UNL     1       1.387  10.824  20.588  0.00  0.00    +0.000 C 
ATOM     15  C   UNL     1       1.339  10.094  19.219  0.00  0.00    +0.000 C 
ATOM     16  C   UNL     1       2.329  10.831  18.265  0.00  0.00    +0.000 C 
ATOM     17  C   UNL     1       2.058  12.370  18.160  0.00  0.00    +0.000 C 
ATOM     18  N   UNL     1       3.822  14.573  19.251  0.00  0.00    +0.000 NA
ENDROOT
BRANCH  15  19
ATOM     19  C   UNL     1       1.679   8.590  19.330  0.00  0.00    +0.000 A 
ATOM     20  C   UNL     1       2.159   7.903  18.186  0.00  0.00    +0.000 A 
ATOM     21  C   UNL     1       2.380   6.524  18.215  0.00  0.00    +0.000 A 
ATOM     22  C   UNL     1       2.154   5.804  19.384  0.00  0.00    +0.000 A 
ATOM     23  C   UNL     1       1.724   6.460  20.536  0.00  0.00    +0.000 A 
ATOM     24  C   UNL     1       1.483   7.835  20.515  0.00  0.00    +0.000 A 
ENDBRANCH  15  19
BRANCH   1  26
ATOM     25  C   UNL     1       8.445  17.427  18.280  0.00  0.00    +0.000 C 
ATOM     26  O   UNL     1       7.242  17.993  18.632  0.00  0.00    +0.000 OA
ENDBRANCH   1  26
BRANCH   6  27
ATOM     27  O   UNL     1       7.316  18.386  21.669  0.00  0.00    +0.000 OA
ATOM     28  C   UNL     1       8.618  18.327  22.104  0.00  0.00    +0.000 C 
ENDBRANCH   6  27
BRANCH  15  29
ATOM     29  C   UNL     1      -0.046  10.144  18.697  0.00  0.00    +0.000 C 
ATOM     30  N   UNL     1      -1.129  10.217  18.304  0.00  0.00    +0.000 NA
ENDBRANCH  15  29
TORSDOF 4
ENDMDL
MODEL 6
REMARK VINA RESULT:      -5.9      8.216      9.515
REMARK  Name = 
REMARK  7 active torsions:
REMARK  status: ('A' for Active; 'I' for Inactive)
REMARK    1  A    between atoms: C_1  and  O_2
REMARK    2  A    between atoms: O_2  and  C_3
REMARK    3  A    between atoms: C_8  and  O_9
REMARK    4  A    between atoms: O_9  and  C_10
REMARK    5  A    between atoms: S_11  and  C_12
REMARK    6  A    between atoms: C_19  and  C_20
REMARK    7  A    between atoms: C_19  and  C_22
REMARK                            x       y       z     vdW  Elec       q    Type
REMARK                         _______ _______ _______ _____ _____    ______ ____
ROOT
ATOM      1  C   UNL     1       0.786  16.938  21.730  0.00  0.00    +0.000 A 
ATOM      2  C   UNL     1       2.206  16.959  21.879  0.00  0.00    +0.000 A 
ATOM      3  C   UNL     1       3.051  16.872  20.754  0.00  0.00    +0.000 A 
ATOM      4  C   UNL     1       2.401  16.800  19.528  0.00  0.00    +0.000 A 
ATOM      5  C   UNL     1       1.027  16.784  19.363  0.00  0.00    +0.000 A 
ATOM      6  C   UNL     1       0.177  16.870  20.432  0.00  0.00    +0.000 A 
ATOM      7  S   UNL     1       3.303  16.509  18.126  0.00  0.00    +0.000 S 
ATOM      8  C   UNL     1       3.147  14.736  17.883  0.00  0.00    +0.000 C 
ATOM      9  O   UNL     1       2.856  17.503  17.045  0.00  0.00    +0.000 OA
ATOM     10  N   UNL     1       4.771  16.957  18.472  0.00  0.00    +0.000 NA
ATOM     11  C   UNL     1       5.305  16.862  19.779  0.00  0.00    +0.000 C 
ATOM     12  N   UNL     1       6.745  16.891  19.853  0.00  0.00    +0.000 N 
ATOM     13  C   UNL     1       7.504  17.017  18.613  0.00  0.00    +0.000 C 
ATOM     14  C   UNL     1       8.295  15.731  18.328  0.00  0.00    +0.000 C 
ATOM     15  C   UNL     1       9.238  15.364  19.504  0.00  0.00    +0.000 C 
ATOM     16  C   UNL     1       8.363  15.279  20.793  0.00  0.00    +0.000 C 
ATOM     17  C   UNL     1       7.517  16.571  21.053  0.00  0.00    +0.000 C 
ATOM     18  N   UNL     1       4.508  16.811  20.833  0.00  0.00    +0.000 NA
ENDROOT
BRANCH  15  19
ATOM     19  C   UNL     1      10.013  14.047  19.263  0.00  0.00    +0.000 A 
ATOM     20  C   UNL     1       9.824  13.348  18.044  0.00  0.00    +0.000 A 
ATOM     21  C   UNL     1      10.424  12.105  17.828  0.00  0.00    +0.000 A 
ATOM     22  C   UNL     1      11.243  11.544  18.803  0.00  0.00    +0.000 A 
ATOM     23  C   UNL     1      11.482  12.230  19.993  0.00  0.00    +0.000 A 
ATOM     24  C   UNL     1      10.873  13.465  20.228  0.00  0.00    +0.000 A 
ENDBRANCH  15  19
BRANCH   1  26
ATOM     25  C   UNL     1      -0.442  15.714  23.314  0.00  0.00    +0.000 C 
ATOM     26  O   UNL     1       0.081  16.908  22.873  0.00  0.00    +0.000 OA
ENDBRANCH   1  26
BRANCH   6  27
ATOM     27  O   UNL     1      -1.149  16.873  20.067  0.00  0.00    +0.000 OA
ATOM     28  C   UNL     1      -1.876  17.648  19.195  0.00  0.00    +0.000 C 
ENDBRANCH   6  27
BRANCH  15  29
ATOM     29  C   UNL     1      10.278  16.411  19.631  0.00  0.00    +0.000 C 
ATOM     30  N   UNL     1      11.097  17.213  19.763  0.00  0.00    +0.000 NA
ENDBRANCH  15  29
TORSDOF 4
ENDMDL
MODEL 7
REMARK VINA RESULT:      -5.8      7.283      9.745
REMARK  Name = 
REMARK  7 active torsions:
REMARK  status: ('A' for Active; 'I' for Inactive)
REMARK    1  A    between atoms: C_1  and  O_2
REMARK    2  A    between atoms: O_2  and  C_3
REMARK    3  A    between atoms: C_8  and  O_9
REMARK    4  A    between atoms: O_9  and  C_10
REMARK    5  A    between atoms: S_11  and  C_12
REMARK    6  A    between atoms: C_19  and  C_20
REMARK    7  A    between atoms: C_19  and  C_22
REMARK                            x       y       z     vdW  Elec       q    Type
REMARK                         _______ _______ _______ _____ _____    ______ ____
ROOT
ATOM      1  C   UNL     1       8.736  15.925  18.072  0.00  0.00    +0.000 A 
ATOM      2  C   UNL     1       7.520  15.219  17.828  0.00  0.00    +0.000 A 
ATOM      3  C   UNL     1       6.373  15.463  18.612  0.00  0.00    +0.000 A 
ATOM      4  C   UNL     1       6.520  16.441  19.588  0.00  0.00    +0.000 A 
ATOM      5  C   UNL     1       7.689  17.140  19.836  0.00  0.00    +0.000 A 
ATOM      6  C   UNL     1       8.818  16.931  19.092  0.00  0.00    +0.000 A 
ATOM      7  S   UNL     1       5.275  16.691  20.706  0.00  0.00    +0.000 S 
ATOM      8  C   UNL     1       5.788  15.729  22.134  0.00  0.00    +0.000 C 
ATOM      9  O   UNL     1       5.014  18.200  20.816  0.00  0.00    +0.000 OA
ATOM     10  N   UNL     1       3.975  16.129  20.019  0.00  0.00    +0.000 NA
ATOM     11  C   UNL     1       4.007  15.042  19.114  0.00  0.00    +0.000 C 
ATOM     12  N   UNL     1       2.742  14.378  18.914  0.00  0.00    +0.000 N 
ATOM     13  C   UNL     1       1.574  14.870  19.639  0.00  0.00    +0.000 C 
ATOM     14  C   UNL     1       1.102  13.836  20.672  0.00  0.00    +0.000 C 
ATOM     15  C   UNL     1       0.790  12.466  20.013  0.00  0.00    +0.000 C 
ATOM     16  C   UNL     1       2.068  12.023  19.236  0.00  0.00    +0.000 C 
ATOM     17  C   UNL     1       2.580  13.100  18.222  0.00  0.00    +0.000 C 
ATOM     18  N   UNL     1       5.119  14.728  18.472  0.00  0.00    +0.000 NA
ENDROOT
BRANCH  15  19
ATOM     19  C   UNL     1       0.355  11.394  21.039  0.00  0.00    +0.000 A 
ATOM     20  C   UNL     1       0.782  10.053  20.861  0.00  0.00    +0.000 A 
ATOM     21  C   UNL     1       0.328   9.036  21.704  0.00  0.00    +0.000 A 
ATOM     22  C   UNL     1      -0.536   9.331  22.754  0.00  0.00    +0.000 A 
ATOM     23  C   UNL     1      -0.937  10.646  22.979  0.00  0.00    +0.000 A 
ATOM     24  C   UNL     1      -0.504  11.669  22.133  0.00  0.00    +0.000 A 
ENDBRANCH  15  19
BRANCH   1  26
ATOM     25  C   UNL     1      10.695  14.645  17.888  0.00  0.00    +0.000 C 
ATOM     26  O   UNL     1       9.795  15.530  17.345  0.00  0.00    +0.000 OA
ENDBRANCH   1  26
BRANCH   6  27
ATOM     27  O   UNL     1       9.865  17.742  19.465  0.00  0.00    +0.000 OA
ATOM     28  C   UNL     1      10.036  18.631  20.498  0.00  0.00    +0.000 C 
ENDBRANCH   6  27
BRANCH  15  29
ATOM     29  C   UNL     1      -0.364  12.624  19.100  0.00  0.00    +0.000 C 
ATOM     30  N   UNL     1      -1.287  12.734  18.415  0.00  0.00    +0.000 NA
ENDBRANCH  15  29
TORSDOF 4
ENDMDL
MODEL 8
REMARK VINA RESULT:      -5.7      6.450      9.722
REMARK  Name = 
REMARK  7 active torsions:
REMARK  status: ('A' for Active; 'I' for Inactive)
REMARK    1  A    between atoms: C_1  and  O_2
REMARK    2  A    between atoms: O_2  and  C_3
REMARK    3  A    between atoms: C_8  and  O_9
REMARK    4  A    between atoms: O_9  and  C_10
REMARK    5  A    between atoms: S_11  and  C_12
REMARK    6  A    between atoms: C_19  and  C_20
REMARK    7  A    between atoms: C_19  and  C_22
REMARK                            x       y       z     vdW  Elec       q    Type
REMARK                         _______ _______ _______ _____ _____    ______ ____
ROOT
ATOM      1  C   UNL     1       2.045  17.156  17.994  0.00  0.00    +0.000 A 
ATOM      2  C   UNL     1       0.724  17.189  18.533  0.00  0.00    +0.000 A 
ATOM      3  C   UNL     1       0.352  16.329  19.587  0.00  0.00    +0.000 A 
ATOM      4  C   UNL     1       1.363  15.499  20.058  0.00  0.00    +0.000 A 
ATOM      5  C   UNL     1       2.650  15.457  19.553  0.00  0.00    +0.000 A 
ATOM      6  C   UNL     1       3.046  16.279  18.533  0.00  0.00    +0.000 A 
ATOM      7  S   UNL     1       0.989  14.300  21.192  0.00  0.00    +0.000 S 
ATOM      8  C   UNL     1       0.766  12.824  20.191  0.00  0.00    +0.000 C 
ATOM      9  O   UNL     1       2.035  14.349  22.315  0.00  0.00    +0.000 OA
ATOM     10  N   UNL     1      -0.338  14.779  21.888  0.00  0.00    +0.000 NA
ATOM     11  C   UNL     1      -1.316  15.545  21.209  0.00  0.00    +0.000 C 
ATOM     12  N   UNL     1      -2.626  15.534  21.812  0.00  0.00    +0.000 N 
ATOM     13  C   UNL     1      -2.825  14.760  23.034  0.00  0.00    +0.000 C 
ATOM     14  C   UNL     1      -3.757  13.567  22.775  0.00  0.00    +0.000 C 
ATOM     15  C   UNL     1      -5.123  14.020  22.195  0.00  0.00    +0.000 C 
ATOM     16  C   UNL     1      -4.828  14.862  20.915  0.00  0.00    +0.000 C 
ATOM     17  C   UNL     1      -3.835  16.046  21.169  0.00  0.00    +0.000 C 
ATOM     18  N   UNL     1      -0.998  16.252  20.138  0.00  0.00    +0.000 NA
ENDROOT
BRANCH  15  19
ATOM     19  C   UNL     1      -6.064  12.833  21.883  0.00  0.00    +0.000 A 
ATOM     20  C   UNL     1      -6.019  12.233  20.599  0.00  0.00    +0.000 A 
ATOM     21  C   UNL     1      -6.922  11.229  20.242  0.00  0.00    +0.000 A 
ATOM     22  C   UNL     1      -7.869  10.781  21.158  0.00  0.00    +0.000 A 
ATOM     23  C   UNL     1      -7.907  11.322  22.442  0.00  0.00    +0.000 A 
ATOM     24  C   UNL     1      -7.022  12.339  22.805  0.00  0.00    +0.000 A 
ENDBRANCH  15  19
BRANCH   1  26
ATOM     25  C   UNL     1       1.183  18.340  16.159  0.00  0.00    +0.000 C 
ATOM     26  O   UNL     1       2.254  17.933  16.918  0.00  0.00    +0.000 OA
ENDBRANCH   1  26
BRANCH   6  27
ATOM     27  O   UNL     1       4.367  16.115  18.191  0.00  0.00    +0.000 OA
ATOM     28  C   UNL     1       5.124  15.008  17.893  0.00  0.00    +0.000 C 
ENDBRANCH   6  27
BRANCH  15  29
ATOM     29  C   UNL     1      -5.834  14.825  23.214  0.00  0.00    +0.000 C 
ATOM     30  N   UNL     1      -6.414  15.463  23.981  0.00  0.00    +0.000 NA
ENDBRANCH  15  29
TORSDOF 4
ENDMDL
MODEL 9
REMARK VINA RESULT:      -5.7      7.049      9.352
REMARK  Name = 
REMARK  7 active torsions:
REMARK  status: ('A' for Active; 'I' for Inactive)
REMARK    1  A    between atoms: C_1  and  O_2
REMARK    2  A    between atoms: O_2  and  C_3
REMARK    3  A    between atoms: C_8  and  O_9
REMARK    4  A    between atoms: O_9  and  C_10
REMARK    5  A    between atoms: S_11  and  C_12
REMARK    6  A    between atoms: C_19  and  C_20
REMARK    7  A    between atoms: C_19  and  C_22
REMARK                            x       y       z     vdW  Elec       q    Type
REMARK                         _______ _______ _______ _____ _____    ______ ____
ROOT
ATOM      1  C   UNL     1       8.155  16.456  18.639  0.00  0.00    +0.000 A 
ATOM      2  C   UNL     1       7.087  15.575  18.295  0.00  0.00    +0.000 A 
ATOM      3  C   UNL     1       5.806  15.735  18.863  0.00  0.00    +0.000 A 
ATOM      4  C   UNL     1       5.675  16.811  19.734  0.00  0.00    +0.000 A 
ATOM      5  C   UNL     1       6.697  17.679  20.075  0.00  0.00    +0.000 A 
ATOM      6  C   UNL     1       7.950  17.555  19.540  0.00  0.00    +0.000 A 
ATOM      7  S   UNL     1       4.242  16.996  20.614  0.00  0.00    +0.000 S 
ATOM      8  C   UNL     1       4.622  16.248  22.203  0.00  0.00    +0.000 C 
ATOM      9  O   UNL     1       3.792  18.460  20.512  0.00  0.00    +0.000 OA
ATOM     10  N   UNL     1       3.148  16.204  19.806  0.00  0.00    +0.000 NA
ATOM     11  C   UNL     1       3.455  15.052  19.045  0.00  0.00    +0.000 C 
ATOM     12  N   UNL     1       2.327  14.208  18.732  0.00  0.00    +0.000 N 
ATOM     13  C   UNL     1       1.006  14.606  19.211  0.00  0.00    +0.000 C 
ATOM     14  C   UNL     1       0.494  13.619  20.271  0.00  0.00    +0.000 C 
ATOM     15  C   UNL     1       0.457  12.165  19.731  0.00  0.00    +0.000 C 
ATOM     16  C   UNL     1       1.889  11.826  19.212  0.00  0.00    +0.000 C 
ATOM     17  C   UNL     1       2.432  12.862  18.172  0.00  0.00    +0.000 C 
ATOM     18  N   UNL     1       4.687  14.830  18.619  0.00  0.00    +0.000 NA
ENDROOT
BRANCH  15  19
ATOM     19  C   UNL     1      -0.013  11.143  20.793  0.00  0.00    +0.000 A 
ATOM     20  C   UNL     1      -0.511  11.616  22.034  0.00  0.00    +0.000 A 
ATOM     21  C   UNL     1      -0.849  10.728  23.058  0.00  0.00    +0.000 A 
ATOM     22  C   UNL     1      -0.725   9.356  22.864  0.00  0.00    +0.000 A 
ATOM     23  C   UNL     1      -0.279   8.862  21.640  0.00  0.00    +0.000 A 
ATOM     24  C   UNL     1       0.079   9.740  20.614  0.00  0.00    +0.000 A 
ENDBRANCH  15  19
BRANCH   1  26
ATOM     25  C   UNL     1       9.564  14.883  17.614  0.00  0.00    +0.000 C 
ATOM     26  O   UNL     1       9.358  16.140  18.131  0.00  0.00    +0.000 OA
ENDBRANCH   1  26
BRANCH   6  27
ATOM     27  O   UNL     1       8.819  18.529  19.973  0.00  0.00    +0.000 OA
ATOM     28  C   UNL     1      10.190  18.631  19.958  0.00  0.00    +0.000 C 
ENDBRANCH   6  27
BRANCH  15  29
ATOM     29  C   UNL     1      -0.541  12.081  18.641  0.00  0.00    +0.000 C 
ATOM     30  N   UNL     1      -1.322  12.054  17.791  0.00  0.00    +0.000 NA
ENDBRANCH  15  29
TORSDOF 4
ENDMDL
