MODEL 1
REMARK VINA RESULT:      -7.7      0.000      0.000
REMARK  Name = 
REMARK  5 active torsions:
REMARK  status: ('A' for Active; 'I' for Inactive)
REMARK    1  A    between atoms: C_1  and  C_2
REMARK    2  A    between atoms: C_2  and  C_3
REMARK    3  A    between atoms: C_6  and  N_7
REMARK    4  A    between atoms: N_10  and  C_11
REMARK    5  A    between atoms: C_17  and  C_18
REMARK                            x       y       z     vdW  Elec       q    Type
REMARK                         _______ _______ _______ _____ _____    ______ ____
ROOT
ATOM      1  N   UNL     1       1.509   8.726  20.857  0.00  0.00    +0.000 N 
ATOM      2  C   UNL     1       0.603   9.675  20.521  0.00  0.00    +0.000 A 
ATOM      3  N   UNL     1      -0.391   9.570  19.674  0.00  0.00    +0.000 NA
ATOM      4  N   UNL     1      -0.883  10.814  19.339  0.00  0.00    +0.000 N 
ATOM      5  C   UNL     1      -0.372  11.865  19.980  0.00  0.00    +0.000 A 
ATOM      6  S   UNL     1       0.701  11.262  21.202  0.00  0.00    +0.000 S 
ATOM      7  H   UNL     1       2.275   9.000  21.463  0.00  0.00    +0.000 HD
ENDROOT
BRANCH   5   8
ATOM      8  C   UNL     1      -0.696  13.302  19.860  0.00  0.00    +0.000 A 
ATOM      9  C   UNL     1      -0.041  14.068  18.872  0.00  0.00    +0.000 A 
ATOM     10  C   UNL     1      -0.182  15.456  18.813  0.00  0.00    +0.000 A 
ATOM     11  C   UNL     1      -1.062  16.102  19.673  0.00  0.00    +0.000 A 
ATOM     12  C   UNL     1      -1.793  15.366  20.604  0.00  0.00    +0.000 A 
ATOM     13 CL   UNL     1      -2.916  16.240  21.586  0.00  0.00    +0.000 Cl
ATOM     14  C   UNL     1      -1.594  13.976  20.729  0.00  0.00    +0.000 A 
ATOM     15 CL   UNL     1      -2.403  13.134  22.019  0.00  0.00    +0.000 Cl
ENDBRANCH   5   8
BRANCH   1  19
ATOM     16  C   UNL     1       2.448   5.193  18.684  0.00  0.00    +0.000 A 
ATOM     17  C   UNL     1       1.883   5.134  19.961  0.00  0.00    +0.000 A 
ATOM     18  C   UNL     1       1.567   6.309  20.655  0.00  0.00    +0.000 A 
ATOM     19  C   UNL     1       1.809   7.572  20.094  0.00  0.00    +0.000 A 
ATOM     20  C   UNL     1       2.359   7.613  18.805  0.00  0.00    +0.000 A 
ATOM     21  C   UNL     1       2.680   6.444  18.109  0.00  0.00    +0.000 A 
BRANCH  16  23
ATOM     22  C   UNL     1       1.716   2.853  18.215  0.00  0.00    +0.000 C 
ATOM     23  C   UNL     1       2.743   3.934  17.909  0.00  0.00    +0.000 C 
ENDBRANCH  16  23
ENDBRANCH   1  19
BRANCH   4  24
ATOM     24  C   UNL     1      -1.924  10.825  18.304  0.00  0.00    +0.000 A 
ATOM     25  C   UNL     1      -1.693  10.052  17.162  0.00  0.00    +0.000 A 
ATOM     26  C   UNL     1      -2.686   9.966  16.184  0.00  0.00    +0.000 A 
ATOM     27  C   UNL     1      -3.883  10.663  16.354  0.00  0.00    +0.000 A 
ATOM     28  C   UNL     1      -4.083  11.467  17.475  0.00  0.00    +0.000 A 
ATOM     29  C   UNL     1      -3.090  11.568  18.450  0.00  0.00    +0.000 A 
ENDBRANCH   4  24
TORSDOF 4
ENDMDL
MODEL 2
REMARK VINA RESULT:      -7.6      0.337      1.411
REMARK  Name = 
REMARK  5 active torsions:
REMARK  status: ('A' for Active; 'I' for Inactive)
REMARK    1  A    between atoms: C_1  and  C_2
REMARK    2  A    between atoms: C_2  and  C_3
REMARK    3  A    between atoms: C_6  and  N_7
REMARK    4  A    between atoms: N_10  and  C_11
REMARK    5  A    between atoms: C_17  and  C_18
REMARK                            x       y       z     vdW  Elec       q    Type
REMARK                         _______ _______ _______ _____ _____    ______ ____
ROOT
ATOM      1  N   UNL     1       1.522   8.605  20.912  0.00  0.00    +0.000 N 
ATOM      2  C   UNL     1       0.625   9.555  20.554  0.00  0.00    +0.000 A 
ATOM      3  N   UNL     1      -0.360   9.444  19.697  0.00  0.00    +0.000 NA
ATOM      4  N   UNL     1      -0.842  10.686  19.340  0.00  0.00    +0.000 N 
ATOM      5  C   UNL     1      -0.332  11.742  19.973  0.00  0.00    +0.000 A 
ATOM      6  S   UNL     1       0.725  11.150  21.214  0.00  0.00    +0.000 S 
ATOM      7  H   UNL     1       2.283   8.884  21.523  0.00  0.00    +0.000 HD
ENDROOT
BRANCH   5   8
ATOM      8  C   UNL     1      -0.647  13.179  19.830  0.00  0.00    +0.000 A 
ATOM      9  C   UNL     1       0.014  13.926  18.832  0.00  0.00    +0.000 A 
ATOM     10  C   UNL     1      -0.118  15.314  18.751  0.00  0.00    +0.000 A 
ATOM     11  C   UNL     1      -0.995  15.978  19.600  0.00  0.00    +0.000 A 
ATOM     12  C   UNL     1      -1.732  15.261  20.541  0.00  0.00    +0.000 A 
ATOM     13 CL   UNL     1      -2.852  16.158  21.507  0.00  0.00    +0.000 Cl
ATOM     14  C   UNL     1      -1.542  13.872  20.687  0.00  0.00    +0.000 A 
ATOM     15 CL   UNL     1      -2.359  13.056  21.989  0.00  0.00    +0.000 Cl
ENDBRANCH   5   8
BRANCH   1  19
ATOM     16  C   UNL     1       2.393   5.173  18.557  0.00  0.00    +0.000 A 
ATOM     17  C   UNL     1       2.645   6.465  18.085  0.00  0.00    +0.000 A 
ATOM     18  C   UNL     1       2.365   7.582  18.881  0.00  0.00    +0.000 A 
ATOM     19  C   UNL     1       1.824   7.440  20.168  0.00  0.00    +0.000 A 
ATOM     20  C   UNL     1       1.595   6.138  20.634  0.00  0.00    +0.000 A 
ATOM     21  C   UNL     1       1.869   5.019  19.842  0.00  0.00    +0.000 A 
BRANCH  16  23
ATOM     22  C   UNL     1       4.056   4.166  16.992  0.00  0.00    +0.000 C 
ATOM     23  C   UNL     1       2.740   3.964  17.727  0.00  0.00    +0.000 C 
ENDBRANCH  16  23
ENDBRANCH   1  19
BRANCH   4  24
ATOM     24  C   UNL     1      -1.872  10.688  18.294  0.00  0.00    +0.000 A 
ATOM     25  C   UNL     1      -3.040  11.410  18.554  0.00  0.00    +0.000 A 
ATOM     26  C   UNL     1      -4.017  11.508  17.562  0.00  0.00    +0.000 A 
ATOM     27  C   UNL     1      -3.819  10.873  16.335  0.00  0.00    +0.000 A 
ATOM     28  C   UNL     1      -2.671  10.117  16.105  0.00  0.00    +0.000 A 
ATOM     29  C   UNL     1      -1.697  10.005  17.096  0.00  0.00    +0.000 A 
ENDBRANCH   4  24
TORSDOF 4
ENDMDL
MODEL 3
REMARK VINA RESULT:      -7.6      1.334      1.620
REMARK  Name = 
REMARK  5 active torsions:
REMARK  status: ('A' for Active; 'I' for Inactive)
REMARK    1  A    between atoms: C_1  and  C_2
REMARK    2  A    between atoms: C_2  and  C_3
REMARK    3  A    between atoms: C_6  and  N_7
REMARK    4  A    between atoms: N_10  and  C_11
REMARK    5  A    between atoms: C_17  and  C_18
REMARK                            x       y       z     vdW  Elec       q    Type
REMARK                         _______ _______ _______ _____ _____    ______ ____
ROOT
ATOM      1  N   UNL     1       1.514   8.411  21.010  0.00  0.00    +0.000 N 
ATOM      2  C   UNL     1       0.613   9.381  20.724  0.00  0.00    +0.000 A 
ATOM      3  N   UNL     1      -0.333   9.355  19.818  0.00  0.00    +0.000 NA
ATOM      4  N   UNL     1      -0.826  10.622  19.586  0.00  0.00    +0.000 N 
ATOM      5  C   UNL     1      -0.366  11.606  20.359  0.00  0.00    +0.000 A 
ATOM      6  S   UNL     1       0.650  10.890  21.569  0.00  0.00    +0.000 S 
ATOM      7  H   UNL     1       2.243   8.629  21.681  0.00  0.00    +0.000 HD
ENDROOT
BRANCH   5   8
ATOM      8  C   UNL     1      -0.705  13.044  20.370  0.00  0.00    +0.000 A 
ATOM      9  C   UNL     1      -1.681  13.507  21.278  0.00  0.00    +0.000 A 
ATOM     10  C   UNL     1      -2.160  14.818  21.228  0.00  0.00    +0.000 A 
ATOM     11  C   UNL     1      -1.602  15.728  20.338  0.00  0.00    +0.000 A 
ATOM     12  C   UNL     1      -0.573  15.329  19.487  0.00  0.00    +0.000 A 
ATOM     13 CL   UNL     1       0.111  16.543  18.462  0.00  0.00    +0.000 Cl
ATOM     14  C   UNL     1      -0.142  13.987  19.470  0.00  0.00    +0.000 A 
ATOM     15 CL   UNL     1       1.022  13.504  18.270  0.00  0.00    +0.000 Cl
ENDBRANCH   5   8
BRANCH   1  19
ATOM     16  C   UNL     1       2.629   5.135  18.539  0.00  0.00    +0.000 A 
ATOM     17  C   UNL     1       2.047   4.936  19.794  0.00  0.00    +0.000 A 
ATOM     18  C   UNL     1       1.674   6.027  20.587  0.00  0.00    +0.000 A 
ATOM     19  C   UNL     1       1.872   7.346  20.149  0.00  0.00    +0.000 A 
ATOM     20  C   UNL     1       2.439   7.528  18.880  0.00  0.00    +0.000 A 
ATOM     21  C   UNL     1       2.817   6.442  18.085  0.00  0.00    +0.000 A 
BRANCH  16  23
ATOM     22  C   UNL     1       2.080   2.775  17.936  0.00  0.00    +0.000 C 
ATOM     23  C   UNL     1       2.986   3.966  17.657  0.00  0.00    +0.000 C 
ENDBRANCH  16  23
ENDBRANCH   1  19
BRANCH   4  24
ATOM     24  C   UNL     1      -1.811  10.730  18.503  0.00  0.00    +0.000 A 
ATOM     25  C   UNL     1      -1.531  10.041  17.319  0.00  0.00    +0.000 A 
ATOM     26  C   UNL     1      -2.471  10.047  16.287  0.00  0.00    +0.000 A 
ATOM     27  C   UNL     1      -3.665  10.751  16.447  0.00  0.00    +0.000 A 
ATOM     28  C   UNL     1      -3.913  11.472  17.614  0.00  0.00    +0.000 A 
ATOM     29  C   UNL     1      -2.972  11.481  18.644  0.00  0.00    +0.000 A 
ENDBRANCH   4  24
TORSDOF 4
ENDMDL
MODEL 4
REMARK VINA RESULT:      -7.5      1.383      2.099
REMARK  Name = 
REMARK  5 active torsions:
REMARK  status: ('A' for Active; 'I' for Inactive)
REMARK    1  A    between atoms: C_1  and  C_2
REMARK    2  A    between atoms: C_2  and  C_3
REMARK    3  A    between atoms: C_6  and  N_7
REMARK    4  A    between atoms: N_10  and  C_11
REMARK    5  A    between atoms: C_17  and  C_18
REMARK                            x       y       z     vdW  Elec       q    Type
REMARK                         _______ _______ _______ _____ _____    ______ ____
ROOT
ATOM      1  N   UNL     1       1.529   8.239  21.088  0.00  0.00    +0.000 N 
ATOM      2  C   UNL     1       0.642   9.217  20.789  0.00  0.00    +0.000 A 
ATOM      3  N   UNL     1      -0.294   9.197  19.873  0.00  0.00    +0.000 NA
ATOM      4  N   UNL     1      -0.770  10.469  19.629  0.00  0.00    +0.000 N 
ATOM      5  C   UNL     1      -0.307  11.451  20.402  0.00  0.00    +0.000 A 
ATOM      6  S   UNL     1       0.688  10.730  21.626  0.00  0.00    +0.000 S 
ATOM      7  H   UNL     1       2.253   8.452  21.766  0.00  0.00    +0.000 HD
ENDROOT
BRANCH   5   8
ATOM      8  C   UNL     1      -0.629  12.894  20.402  0.00  0.00    +0.000 A 
ATOM      9  C   UNL     1      -1.590  13.377  21.315  0.00  0.00    +0.000 A 
ATOM     10  C   UNL     1      -2.055  14.693  21.256  0.00  0.00    +0.000 A 
ATOM     11  C   UNL     1      -1.495  15.587  20.352  0.00  0.00    +0.000 A 
ATOM     12  C   UNL     1      -0.480  15.168  19.495  0.00  0.00    +0.000 A 
ATOM     13 CL   UNL     1       0.209  16.364  18.452  0.00  0.00    +0.000 Cl
ATOM     14  C   UNL     1      -0.064  13.821  19.487  0.00  0.00    +0.000 A 
ATOM     15 CL   UNL     1       1.083  13.313  18.280  0.00  0.00    +0.000 Cl
ENDBRANCH   5   8
BRANCH   1  19
ATOM     16  C   UNL     1       2.560   5.093  18.419  0.00  0.00    +0.000 A 
ATOM     17  C   UNL     1       2.803   6.432  18.097  0.00  0.00    +0.000 A 
ATOM     18  C   UNL     1       2.470   7.452  18.995  0.00  0.00    +0.000 A 
ATOM     19  C   UNL     1       1.884   7.165  20.238  0.00  0.00    +0.000 A 
ATOM     20  C   UNL     1       1.664   5.817  20.553  0.00  0.00    +0.000 A 
ATOM     21  C   UNL     1       1.991   4.793  19.658  0.00  0.00    +0.000 A 
BRANCH  16  23
ATOM     22  C   UNL     1       2.394   2.649  17.936  0.00  0.00    +0.000 C 
ATOM     23  C   UNL     1       2.963   3.985  17.480  0.00  0.00    +0.000 C 
ENDBRANCH  16  23
ENDBRANCH   1  19
BRANCH   4  24
ATOM     24  C   UNL     1      -1.742  10.582  18.535  0.00  0.00    +0.000 A 
ATOM     25  C   UNL     1      -2.912  11.303  18.796  0.00  0.00    +0.000 A 
ATOM     26  C   UNL     1      -3.832  11.506  17.766  0.00  0.00    +0.000 A 
ATOM     27  C   UNL     1      -3.579  10.975  16.501  0.00  0.00    +0.000 A 
ATOM     28  C   UNL     1      -2.432  10.218  16.266  0.00  0.00    +0.000 A 
ATOM     29  C   UNL     1      -1.515  10.001  17.293  0.00  0.00    +0.000 A 
ENDBRANCH   4  24
TORSDOF 4
ENDMDL
MODEL 5
REMARK VINA RESULT:      -7.5      1.842      2.153
REMARK  Name = 
REMARK  5 active torsions:
REMARK  status: ('A' for Active; 'I' for Inactive)
REMARK    1  A    between atoms: C_1  and  C_2
REMARK    2  A    between atoms: C_2  and  C_3
REMARK    3  A    between atoms: C_6  and  N_7
REMARK    4  A    between atoms: N_10  and  C_11
REMARK    5  A    between atoms: C_17  and  C_18
REMARK                            x       y       z     vdW  Elec       q    Type
REMARK                         _______ _______ _______ _____ _____    ______ ____
ROOT
ATOM      1  N   UNL     1       1.723   7.408  21.244  0.00  0.00    +0.000 N 
ATOM      2  C   UNL     1       0.980   8.531  21.103  0.00  0.00    +0.000 A 
ATOM      3  N   UNL     1       0.052   8.770  20.210  0.00  0.00    +0.000 NA
ATOM      4  N   UNL     1      -0.244  10.117  20.159  0.00  0.00    +0.000 N 
ATOM      5  C   UNL     1       0.349  10.906  21.055  0.00  0.00    +0.000 A 
ATOM      6  S   UNL     1       1.232   9.887  22.146  0.00  0.00    +0.000 S 
ATOM      7  H   UNL     1       2.468   7.420  21.933  0.00  0.00    +0.000 HD
ENDROOT
BRANCH   5   8
ATOM      8  C   UNL     1       0.228  12.364  21.266  0.00  0.00    +0.000 A 
ATOM      9  C   UNL     1      -0.564  12.834  22.334  0.00  0.00    +0.000 A 
ATOM     10  C   UNL     1      -0.848  14.193  22.489  0.00  0.00    +0.000 A 
ATOM     11  C   UNL     1      -0.262  15.125  21.641  0.00  0.00    +0.000 A 
ATOM     12  C   UNL     1       0.597  14.703  20.628  0.00  0.00    +0.000 A 
ATOM     13 CL   UNL     1       1.337  15.935  19.665  0.00  0.00    +0.000 Cl
ATOM     14  C   UNL     1       0.822  13.329  20.410  0.00  0.00    +0.000 A 
ATOM     15 CL   UNL     1       1.765  12.851  19.028  0.00  0.00    +0.000 Cl
ENDBRANCH   5   8
BRANCH   1  19
ATOM     16  C   UNL     1       2.355   4.369  18.338  0.00  0.00    +0.000 A 
ATOM     17  C   UNL     1       1.662   4.110  19.524  0.00  0.00    +0.000 A 
ATOM     18  C   UNL     1       1.451   5.127  20.462  0.00  0.00    +0.000 A 
ATOM     19  C   UNL     1       1.928   6.429  20.243  0.00  0.00    +0.000 A 
ATOM     20  C   UNL     1       2.605   6.676  19.041  0.00  0.00    +0.000 A 
ATOM     21  C   UNL     1       2.821   5.663  18.101  0.00  0.00    +0.000 A 
BRANCH  16  23
ATOM     22  C   UNL     1       3.244   2.079  17.890  0.00  0.00    +0.000 C 
ATOM     23  C   UNL     1       2.540   3.292  17.299  0.00  0.00    +0.000 C 
ENDBRANCH  16  23
ENDBRANCH   1  19
BRANCH   4  24
ATOM     24  C   UNL     1      -1.189  10.518  19.109  0.00  0.00    +0.000 A 
ATOM     25  C   UNL     1      -1.028   9.930  17.851  0.00  0.00    +0.000 A 
ATOM     26  C   UNL     1      -1.947  10.217  16.841  0.00  0.00    +0.000 A 
ATOM     27  C   UNL     1      -3.000  11.097  17.096  0.00  0.00    +0.000 A 
ATOM     28  C   UNL     1      -3.123  11.713  18.341  0.00  0.00    +0.000 A 
ATOM     29  C   UNL     1      -2.201  11.440  19.351  0.00  0.00    +0.000 A 
ENDBRANCH   4  24
TORSDOF 4
ENDMDL
MODEL 6
REMARK VINA RESULT:      -7.5      1.408      1.983
REMARK  Name = 
REMARK  5 active torsions:
REMARK  status: ('A' for Active; 'I' for Inactive)
REMARK    1  A    between atoms: C_1  and  C_2
REMARK    2  A    between atoms: C_2  and  C_3
REMARK    3  A    between atoms: C_6  and  N_7
REMARK    4  A    between atoms: N_10  and  C_11
REMARK    5  A    between atoms: C_17  and  C_18
REMARK                            x       y       z     vdW  Elec       q    Type
REMARK                         _______ _______ _______ _____ _____    ______ ____
ROOT
ATOM      1  N   UNL     1       1.599   8.207  20.963  0.00  0.00    +0.000 N 
ATOM      2  C   UNL     1       0.690   9.178  20.707  0.00  0.00    +0.000 A 
ATOM      3  N   UNL     1      -0.258   9.169  19.803  0.00  0.00    +0.000 NA
ATOM      4  N   UNL     1      -0.760  10.439  19.607  0.00  0.00    +0.000 N 
ATOM      5  C   UNL     1      -0.305  11.404  20.405  0.00  0.00    +0.000 A 
ATOM      6  S   UNL     1       0.719  10.663  21.593  0.00  0.00    +0.000 S 
ATOM      7  H   UNL     1       2.328   8.412  21.639  0.00  0.00    +0.000 HD
ENDROOT
BRANCH   5   8
ATOM      8  C   UNL     1      -0.655  12.840  20.457  0.00  0.00    +0.000 A 
ATOM      9  C   UNL     1      -1.551  13.288  21.450  0.00  0.00    +0.000 A 
ATOM     10  C   UNL     1      -2.044  14.594  21.451  0.00  0.00    +0.000 A 
ATOM     11  C   UNL     1      -1.574  15.515  20.523  0.00  0.00    +0.000 A 
ATOM     12  C   UNL     1      -0.620  15.131  19.582  0.00  0.00    +0.000 A 
ATOM     13 CL   UNL     1      -0.039  16.358  18.511  0.00  0.00    +0.000 Cl
ATOM     14  C   UNL     1      -0.181  13.794  19.518  0.00  0.00    +0.000 A 
ATOM     15 CL   UNL     1       0.878  13.330  18.217  0.00  0.00    +0.000 Cl
ENDBRANCH   5   8
BRANCH   1  19
ATOM     16  C   UNL     1       2.724   5.005  18.401  0.00  0.00    +0.000 A 
ATOM     17  C   UNL     1       2.093   4.771  19.627  0.00  0.00    +0.000 A 
ATOM     18  C   UNL     1       1.717   5.839  20.450  0.00  0.00    +0.000 A 
ATOM     19  C   UNL     1       1.962   7.169  20.074  0.00  0.00    +0.000 A 
ATOM     20  C   UNL     1       2.578   7.387  18.833  0.00  0.00    +0.000 A 
ATOM     21  C   UNL     1       2.959   6.324  18.008  0.00  0.00    +0.000 A 
BRANCH  16  23
ATOM     22  C   UNL     1       4.448   4.085  16.848  0.00  0.00    +0.000 C 
ATOM     23  C   UNL     1       3.084   3.863  17.485  0.00  0.00    +0.000 C 
ENDBRANCH  16  23
ENDBRANCH   1  19
BRANCH   4  24
ATOM     24  C   UNL     1      -1.749  10.569  18.529  0.00  0.00    +0.000 A 
ATOM     25  C   UNL     1      -2.913  11.286  18.818  0.00  0.00    +0.000 A 
ATOM     26  C   UNL     1      -3.849  11.505  17.806  0.00  0.00    +0.000 A 
ATOM     27  C   UNL     1      -3.616  10.993  16.529  0.00  0.00    +0.000 A 
ATOM     28  C   UNL     1      -2.473  10.239  16.265  0.00  0.00    +0.000 A 
ATOM     29  C   UNL     1      -1.540  10.006  17.276  0.00  0.00    +0.000 A 
ENDBRANCH   4  24
TORSDOF 4
ENDMDL
MODEL 7
REMARK VINA RESULT:      -7.5      4.621      9.276
REMARK  Name = 
REMARK  5 active torsions:
REMARK  status: ('A' for Active; 'I' for Inactive)
REMARK    1  A    between atoms: C_1  and  C_2
REMARK    2  A    between atoms: C_2  and  C_3
REMARK    3  A    between atoms: C_6  and  N_7
REMARK    4  A    between atoms: N_10  and  C_11
REMARK    5  A    between atoms: C_17  and  C_18
REMARK                            x       y       z     vdW  Elec       q    Type
REMARK                         _______ _______ _______ _____ _____    ______ ____
ROOT
ATOM      1  N   UNL     1       1.731   9.498  18.584  0.00  0.00    +0.000 N 
ATOM      2  C   UNL     1       2.232   8.304  18.187  0.00  0.00    +0.000 A 
ATOM      3  N   UNL     1       1.856   7.109  18.570  0.00  0.00    +0.000 NA
ATOM      4  N   UNL     1       2.798   6.163  18.223  0.00  0.00    +0.000 N 
ATOM      5  C   UNL     1       3.834   6.574  17.492  0.00  0.00    +0.000 A 
ATOM      6  S   UNL     1       3.554   8.234  17.073  0.00  0.00    +0.000 S 
ATOM      7  H   UNL     1       2.201  10.336  18.259  0.00  0.00    +0.000 HD
ENDROOT
BRANCH   5   8
ATOM      8  C   UNL     1       4.982   5.812  16.956  0.00  0.00    +0.000 A 
ATOM      9  C   UNL     1       4.965   5.418  15.601  0.00  0.00    +0.000 A 
ATOM     10  C   UNL     1       5.937   4.563  15.078  0.00  0.00    +0.000 A 
ATOM     11  C   UNL     1       7.008   4.164  15.868  0.00  0.00    +0.000 A 
ATOM     12  C   UNL     1       7.105   4.606  17.186  0.00  0.00    +0.000 A 
ATOM     13 CL   UNL     1       8.506   4.118  18.075  0.00  0.00    +0.000 Cl
ATOM     14  C   UNL     1       6.085   5.399  17.749  0.00  0.00    +0.000 A 
ATOM     15 CL   UNL     1       6.169   5.779  19.445  0.00  0.00    +0.000 Cl
ENDBRANCH   5   8
BRANCH   1  19
ATOM     16  C   UNL     1      -0.517  10.305  22.102  0.00  0.00    +0.000 A 
ATOM     17  C   UNL     1      -0.660  11.085  20.951  0.00  0.00    +0.000 A 
ATOM     18  C   UNL     1       0.078  10.795  19.797  0.00  0.00    +0.000 A 
ATOM     19  C   UNL     1       0.980   9.720  19.763  0.00  0.00    +0.000 A 
ATOM     20  C   UNL     1       1.098   8.936  20.919  0.00  0.00    +0.000 A 
ATOM     21  C   UNL     1       0.365   9.224  22.076  0.00  0.00    +0.000 A 
BRANCH  16  23
ATOM     22  C   UNL     1      -2.205  11.822  23.143  0.00  0.00    +0.000 C 
ATOM     23  C   UNL     1      -1.346  10.579  23.331  0.00  0.00    +0.000 C 
ENDBRANCH  16  23
ENDBRANCH   1  19
BRANCH   4  24
ATOM     24  C   UNL     1       2.536   4.802  18.707  0.00  0.00    +0.000 A 
ATOM     25  C   UNL     1       2.833   4.536  20.047  0.00  0.00    +0.000 A 
ATOM     26  C   UNL     1       2.530   3.281  20.577  0.00  0.00    +0.000 A 
ATOM     27  C   UNL     1       1.952   2.309  19.760  0.00  0.00    +0.000 A 
ATOM     28  C   UNL     1       1.705   2.570  18.413  0.00  0.00    +0.000 A 
ATOM     29  C   UNL     1       2.017   3.818  17.874  0.00  0.00    +0.000 A 
ENDBRANCH   4  24
TORSDOF 4
ENDMDL
MODEL 8
REMARK VINA RESULT:      -7.4      4.398      9.181
REMARK  Name = 
REMARK  5 active torsions:
REMARK  status: ('A' for Active; 'I' for Inactive)
REMARK    1  A    between atoms: C_1  and  C_2
REMARK    2  A    between atoms: C_2  and  C_3
REMARK    3  A    between atoms: C_6  and  N_7
REMARK    4  A    between atoms: N_10  and  C_11
REMARK    5  A    between atoms: C_17  and  C_18
REMARK                            x       y       z     vdW  Elec       q    Type
REMARK                         _______ _______ _______ _____ _____    ______ ____
ROOT
ATOM      1  N   UNL     1       1.591   9.880  18.720  0.00  0.00    +0.000 N 
ATOM      2  C   UNL     1       2.076   8.639  18.481  0.00  0.00    +0.000 A 
ATOM      3  N   UNL     1       1.619   7.498  18.938  0.00  0.00    +0.000 NA
ATOM      4  N   UNL     1       2.548   6.493  18.766  0.00  0.00    +0.000 N 
ATOM      5  C   UNL     1       3.660   6.799  18.097  0.00  0.00    +0.000 A 
ATOM      6  S   UNL     1       3.485   8.419  17.503  0.00  0.00    +0.000 S 
ATOM      7  H   UNL     1       2.121  10.668  18.363  0.00  0.00    +0.000 HD
ENDROOT
BRANCH   5   8
ATOM      8  C   UNL     1       4.817   5.952  17.739  0.00  0.00    +0.000 A 
ATOM      9  C   UNL     1       5.467   5.221  18.756  0.00  0.00    +0.000 A 
ATOM     10  C   UNL     1       6.658   4.534  18.513  0.00  0.00    +0.000 A 
ATOM     11  C   UNL     1       7.174   4.473  17.224  0.00  0.00    +0.000 A 
ATOM     12  C   UNL     1       6.510   5.110  16.177  0.00  0.00    +0.000 A 
ATOM     13 CL   UNL     1       7.184   4.924  14.595  0.00  0.00    +0.000 Cl
ATOM     14  C   UNL     1       5.355   5.877  16.427  0.00  0.00    +0.000 A 
ATOM     15 CL   UNL     1       4.665   6.790  15.116  0.00  0.00    +0.000 Cl
ENDBRANCH   5   8
BRANCH   1  19
ATOM     16  C   UNL     1      -0.948  11.087  21.910  0.00  0.00    +0.000 A 
ATOM     17  C   UNL     1      -1.148  11.548  20.606  0.00  0.00    +0.000 A 
ATOM     18  C   UNL     1      -0.310  11.128  19.566  0.00  0.00    +0.000 A 
ATOM     19  C   UNL     1       0.750  10.238  19.800  0.00  0.00    +0.000 A 
ATOM     20  C   UNL     1       0.925   9.770  21.110  0.00  0.00    +0.000 A 
ATOM     21  C   UNL     1       0.093  10.189  22.154  0.00  0.00    +0.000 A 
BRANCH  16  23
ATOM     22  C   UNL     1      -1.807  12.992  23.275  0.00  0.00    +0.000 C 
ATOM     23  C   UNL     1      -1.878  11.493  23.025  0.00  0.00    +0.000 C 
ENDBRANCH  16  23
ENDBRANCH   1  19
BRANCH   4  24
ATOM     24  C   UNL     1       2.189   5.194  19.347  0.00  0.00    +0.000 A 
ATOM     25  C   UNL     1       2.393   5.035  20.721  0.00  0.00    +0.000 A 
ATOM     26  C   UNL     1       1.996   3.847  21.337  0.00  0.00    +0.000 A 
ATOM     27  C   UNL     1       1.418   2.833  20.572  0.00  0.00    +0.000 A 
ATOM     28  C   UNL     1       1.264   2.985  19.194  0.00  0.00    +0.000 A 
ATOM     29  C   UNL     1       1.670   4.165  18.571  0.00  0.00    +0.000 A 
ENDBRANCH   4  24
TORSDOF 4
ENDMDL
MODEL 9
REMARK VINA RESULT:      -7.4      1.156      1.188
REMARK  Name = 
REMARK  5 active torsions:
REMARK  status: ('A' for Active; 'I' for Inactive)
REMARK    1  A    between atoms: C_1  and  C_2
REMARK    2  A    between atoms: C_2  and  C_3
REMARK    3  A    between atoms: C_6  and  N_7
REMARK    4  A    between atoms: N_10  and  C_11
REMARK    5  A    between atoms: C_17  and  C_18
REMARK                            x       y       z     vdW  Elec       q    Type
REMARK                         _______ _______ _______ _____ _____    ______ ____
ROOT
ATOM      1  N   UNL     1       1.723   7.798  21.146  0.00  0.00    +0.000 N 
ATOM      2  C   UNL     1       0.900   8.858  20.967  0.00  0.00    +0.000 A 
ATOM      3  N   UNL     1      -0.040   8.999  20.065  0.00  0.00    +0.000 NA
ATOM      4  N   UNL     1      -0.434  10.318  19.969  0.00  0.00    +0.000 N 
ATOM      5  C   UNL     1       0.095  11.177  20.840  0.00  0.00    +0.000 A 
ATOM      6  S   UNL     1       1.046  10.263  21.965  0.00  0.00    +0.000 S 
ATOM      7  H   UNL     1       2.462   7.888  21.835  0.00  0.00    +0.000 HD
ENDROOT
BRANCH   5   8
ATOM      8  C   UNL     1      -0.135  12.628  21.003  0.00  0.00    +0.000 A 
ATOM      9  C   UNL     1       0.564  13.526  20.169  0.00  0.00    +0.000 A 
ATOM     10  C   UNL     1       0.515  14.906  20.380  0.00  0.00    +0.000 A 
ATOM     11  C   UNL     1      -0.317  15.429  21.363  0.00  0.00    +0.000 A 
ATOM     12  C   UNL     1      -1.091  14.575  22.147  0.00  0.00    +0.000 A 
ATOM     13 CL   UNL     1      -2.150  15.315  23.298  0.00  0.00    +0.000 Cl
ATOM     14  C   UNL     1      -0.983  13.178  22.000  0.00  0.00    +0.000 A 
ATOM     15 CL   UNL     1      -1.840  12.157  23.119  0.00  0.00    +0.000 Cl
ENDBRANCH   5   8
BRANCH   1  19
ATOM     16  C   UNL     1       2.606   4.726  18.341  0.00  0.00    +0.000 A 
ATOM     17  C   UNL     1       2.054   4.434  19.592  0.00  0.00    +0.000 A 
ATOM     18  C   UNL     1       1.756   5.461  20.496  0.00  0.00    +0.000 A 
ATOM     19  C   UNL     1       2.004   6.805  20.178  0.00  0.00    +0.000 A 
ATOM     20  C   UNL     1       2.541   7.082  18.913  0.00  0.00    +0.000 A 
ATOM     21  C   UNL     1       2.843   6.061  18.006  0.00  0.00    +0.000 A 
BRANCH  16  23
ATOM     22  C   UNL     1       2.361   2.293  17.843  0.00  0.00    +0.000 C 
ATOM     23  C   UNL     1       2.881   3.632  17.342  0.00  0.00    +0.000 C 
ENDBRANCH  16  23
ENDBRANCH   1  19
BRANCH   4  24
ATOM     24  C   UNL     1      -1.402  10.613  18.905  0.00  0.00    +0.000 A 
ATOM     25  C   UNL     1      -1.219   9.962  17.681  0.00  0.00    +0.000 A 
ATOM     26  C   UNL     1      -2.156  10.148  16.663  0.00  0.00    +0.000 A 
ATOM     27  C   UNL     1      -3.247  10.990  16.876  0.00  0.00    +0.000 A 
ATOM     28  C   UNL     1      -3.393  11.671  18.084  0.00  0.00    +0.000 A 
ATOM     29  C   UNL     1      -2.455  11.499  19.101  0.00  0.00    +0.000 A 
ENDBRANCH   4  24
TORSDOF 4
ENDMDL
