MODEL 1
REMARK VINA RESULT:      -8.8      0.000      0.000
REMARK  Name = 
REMARK  6 active torsions:
REMARK  status: ('A' for Active; 'I' for Inactive)
REMARK    1  A    between atoms: N_5  and  C_6
REMARK    2  A    between atoms: C_6  and  C_7
REMARK    3  A    between atoms: C_7  and  N_8
REMARK    4  A    between atoms: C_10  and  C_11
REMARK    5  A    between atoms: C_11  and  N_12
REMARK    6  A    between atoms: C_19  and  N_20
REMARK                            x       y       z     vdW  Elec       q    Type
REMARK                         _______ _______ _______ _____ _____    ______ ____
ROOT
ATOM      1  N   UNL     1       1.936   7.758  19.570  0.00  0.00    +0.000 N 
ATOM      2  C   UNL     1       2.292   6.466  19.833  0.00  0.00    +0.000 A 
ATOM      3  C   UNL     1       2.912   6.037  18.683  0.00  0.00    +0.000 A 
ATOM      4  N   UNL     1       2.969   7.091  17.800  0.00  0.00    +0.000 NA
ATOM      5  N   UNL     1       2.387   8.146  18.365  0.00  0.00    +0.000 NA
ENDROOT
BRANCH   1   6
ATOM      6  C   UNL     1       1.228   8.620  20.489  0.00  0.00    +0.000 C 
BRANCH   6   7
ATOM      7  C   UNL     1       1.368  10.134  20.315  0.00  0.00    +0.000 C 
BRANCH   7  12
ATOM      8  O   UNL     1      -2.554  12.904  21.162  0.00  0.00    +0.000 OA
ATOM      9  C   UNL     1      -1.790  12.141  20.621  0.00  0.00    +0.000 C 
ATOM     10  C   UNL     1      -0.417  11.662  21.142  0.00  0.00    +0.000 C 
ATOM     11  O   UNL     1       0.095  12.001  22.187  0.00  0.00    +0.000 OA
ATOM     12  N   UNL     1       0.076  10.800  20.165  0.00  0.00    +0.000 N 
ATOM     13  C   UNL     1      -0.837  10.701  19.085  0.00  0.00    +0.000 A 
ATOM     14  C   UNL     1      -0.775   9.972  17.909  0.00  0.00    +0.000 A 
ATOM     15  C   UNL     1      -1.852  10.067  17.002  0.00  0.00    +0.000 A 
ATOM     16  C   UNL     1      -2.969  10.880  17.271  0.00  0.00    +0.000 A 
ATOM     17 CL   UNL     1      -4.253  10.970  16.129  0.00  0.00    +0.000 Cl
ATOM     18  C   UNL     1      -3.046  11.609  18.454  0.00  0.00    +0.000 A 
ATOM     19  C   UNL     1      -1.971  11.493  19.322  0.00  0.00    +0.000 A 
ENDBRANCH   7  12
ENDBRANCH   6   7
ENDBRANCH   1   6
BRANCH   3  20
ATOM     20  C   UNL     1       3.393   4.673  18.328  0.00  0.00    +0.000 C 
BRANCH  20  21
ATOM     21  N   UNL     1       4.797   4.686  17.993  0.00  0.00    +0.000 N 
ATOM     22  C   UNL     1       5.805   4.676  18.950  0.00  0.00    +0.000 C 
ATOM     23  O   UNL     1       5.719   4.632  20.154  0.00  0.00    +0.000 OA
ATOM     24  C   UNL     1       7.135   4.749  18.148  0.00  0.00    +0.000 C 
ATOM     25  O   UNL     1       8.260   4.752  18.584  0.00  0.00    +0.000 OA
ATOM     26  C   UNL     1       6.730   4.800  16.738  0.00  0.00    +0.000 A 
ATOM     27  C   UNL     1       7.531   4.882  15.616  0.00  0.00    +0.000 A 
ATOM     28  C   UNL     1       6.867   4.911  14.384  0.00  0.00    +0.000 A 
ATOM     29  C   UNL     1       5.453   4.857  14.315  0.00  0.00    +0.000 A 
ATOM     30  C   UNL     1       4.679   4.783  15.484  0.00  0.00    +0.000 A 
ATOM     31  C   UNL     1       5.338   4.755  16.699  0.00  0.00    +0.000 A 
BRANCH  28  32
ATOM     32  N   UNL     1       7.649   5.002  13.142  0.00  0.00    +0.000 N 
ATOM     33  O   UNL     1       7.260   4.341  12.170  0.00  0.00    +0.000 OA
ATOM     34  O   UNL     1       8.648   5.735  13.146  0.00  0.00    +0.000 OA
ENDBRANCH  28  32
ENDBRANCH  20  21
ENDBRANCH   3  20
TORSDOF 6
ENDMDL
MODEL 2
REMARK VINA RESULT:      -8.7      1.921      2.781
REMARK  Name = 
REMARK  6 active torsions:
REMARK  status: ('A' for Active; 'I' for Inactive)
REMARK    1  A    between atoms: N_5  and  C_6
REMARK    2  A    between atoms: C_6  and  C_7
REMARK    3  A    between atoms: C_7  and  N_8
REMARK    4  A    between atoms: C_10  and  C_11
REMARK    5  A    between atoms: C_11  and  N_12
REMARK    6  A    between atoms: C_19  and  N_20
REMARK                            x       y       z     vdW  Elec       q    Type
REMARK                         _______ _______ _______ _____ _____    ______ ____
ROOT
ATOM      1  N   UNL     1       0.761   9.007  20.190  0.00  0.00    +0.000 N 
ATOM      2  C   UNL     1       1.275   8.000  20.956  0.00  0.00    +0.000 A 
ATOM      3  C   UNL     1       2.138   7.333  20.119  0.00  0.00    +0.000 A 
ATOM      4  N   UNL     1       2.167   7.990  18.910  0.00  0.00    +0.000 NA
ATOM      5  N   UNL     1       1.336   9.028  18.974  0.00  0.00    +0.000 NA
ENDROOT
BRANCH   1   6
ATOM      6  C   UNL     1      -0.219   9.968  20.641  0.00  0.00    +0.000 C 
BRANCH   6   7
ATOM      7  C   UNL     1      -0.344  11.288  19.878  0.00  0.00    +0.000 C 
BRANCH   7  12
ATOM      8  O   UNL     1      -4.981  12.620  19.173  0.00  0.00    +0.000 OA
ATOM      9  C   UNL     1      -3.895  12.123  18.991  0.00  0.00    +0.000 C 
ATOM     10  C   UNL     1      -2.671  12.177  19.931  0.00  0.00    +0.000 C 
ATOM     11  O   UNL     1      -2.630  12.745  21.001  0.00  0.00    +0.000 OA
ATOM     12  N   UNL     1      -1.666  11.464  19.280  0.00  0.00    +0.000 N 
ATOM     13  C   UNL     1      -2.130  10.983  18.030  0.00  0.00    +0.000 A 
ATOM     14  C   UNL     1      -1.493  10.234  17.054  0.00  0.00    +0.000 A 
ATOM     15  C   UNL     1      -2.217   9.892  15.891  0.00  0.00    +0.000 A 
ATOM     16  C   UNL     1      -3.553  10.296  15.713  0.00  0.00    +0.000 A 
ATOM     17 CL   UNL     1      -4.390   9.862  14.273  0.00  0.00    +0.000 Cl
ATOM     18  C   UNL     1      -4.205  11.040  16.691  0.00  0.00    +0.000 A 
ATOM     19  C   UNL     1      -3.465  11.359  17.820  0.00  0.00    +0.000 A 
ENDBRANCH   7  12
ENDBRANCH   6   7
ENDBRANCH   1   6
BRANCH   3  20
ATOM     20  C   UNL     1       2.886   6.068  20.355  0.00  0.00    +0.000 C 
BRANCH  20  21
ATOM     21  N   UNL     1       2.963   5.274  19.152  0.00  0.00    +0.000 N 
ATOM     22  C   UNL     1       2.004   4.331  18.804  0.00  0.00    +0.000 C 
ATOM     23  O   UNL     1       0.983   4.028  19.375  0.00  0.00    +0.000 OA
ATOM     24  C   UNL     1       2.514   3.693  17.480  0.00  0.00    +0.000 C 
ATOM     25  O   UNL     1       1.981   2.835  16.822  0.00  0.00    +0.000 OA
ATOM     26  C   UNL     1       3.785   4.370  17.195  0.00  0.00    +0.000 A 
ATOM     27  C   UNL     1       4.649   4.165  16.137  0.00  0.00    +0.000 A 
ATOM     28  C   UNL     1       5.798   4.965  16.115  0.00  0.00    +0.000 A 
ATOM     29  C   UNL     1       6.040   5.924  17.128  0.00  0.00    +0.000 A 
ATOM     30  C   UNL     1       5.136   6.091  18.190  0.00  0.00    +0.000 A 
ATOM     31  C   UNL     1       4.003   5.299  18.210  0.00  0.00    +0.000 A 
BRANCH  28  32
ATOM     32  N   UNL     1       6.770   4.805  15.023  0.00  0.00    +0.000 N 
ATOM     33  O   UNL     1       6.532   3.944  14.165  0.00  0.00    +0.000 OA
ATOM     34  O   UNL     1       7.766   5.541  15.029  0.00  0.00    +0.000 OA
ENDBRANCH  28  32
ENDBRANCH  20  21
ENDBRANCH   3  20
TORSDOF 6
ENDMDL
MODEL 3
REMARK VINA RESULT:      -8.7      1.027      1.269
REMARK  Name = 
REMARK  6 active torsions:
REMARK  status: ('A' for Active; 'I' for Inactive)
REMARK    1  A    between atoms: N_5  and  C_6
REMARK    2  A    between atoms: C_6  and  C_7
REMARK    3  A    between atoms: C_7  and  N_8
REMARK    4  A    between atoms: C_10  and  C_11
REMARK    5  A    between atoms: C_11  and  N_12
REMARK    6  A    between atoms: C_19  and  N_20
REMARK                            x       y       z     vdW  Elec       q    Type
REMARK                         _______ _______ _______ _____ _____    ______ ____
ROOT
ATOM      1  N   UNL     1       2.250   7.487  19.058  0.00  0.00    +0.000 N 
ATOM      2  C   UNL     1       2.769   6.659  18.104  0.00  0.00    +0.000 A 
ATOM      3  C   UNL     1       2.795   5.420  18.699  0.00  0.00    +0.000 A 
ATOM      4  N   UNL     1       2.236   5.525  19.952  0.00  0.00    +0.000 NA
ATOM      5  N   UNL     1       1.885   6.794  20.151  0.00  0.00    +0.000 NA
ENDROOT
BRANCH   1   6
ATOM      6  C   UNL     1       2.052   8.910  18.895  0.00  0.00    +0.000 C 
BRANCH   6   7
ATOM      7  C   UNL     1       1.024   9.384  17.866  0.00  0.00    +0.000 C 
BRANCH   7  12
ATOM      8  O   UNL     1      -1.398  12.351  20.883  0.00  0.00    +0.000 OA
ATOM      9  C   UNL     1      -1.150  11.628  19.948  0.00  0.00    +0.000 C 
ATOM     10  C   UNL     1       0.184  10.911  19.647  0.00  0.00    +0.000 C 
ATOM     11  O   UNL     1       1.189  10.984  20.320  0.00  0.00    +0.000 OA
ATOM     12  N   UNL     1      -0.028  10.204  18.465  0.00  0.00    +0.000 N 
ATOM     13  C   UNL     1      -1.347  10.415  17.991  0.00  0.00    +0.000 A 
ATOM     14  C   UNL     1      -1.997   9.924  16.871  0.00  0.00    +0.000 A 
ATOM     15  C   UNL     1      -3.338  10.308  16.650  0.00  0.00    +0.000 A 
ATOM     16  C   UNL     1      -4.009  11.172  17.536  0.00  0.00    +0.000 A 
ATOM     17 CL   UNL     1      -5.640  11.620  17.217  0.00  0.00    +0.000 Cl
ATOM     18  C   UNL     1      -3.368  11.664  18.668  0.00  0.00    +0.000 A 
ATOM     19  C   UNL     1      -2.053  11.265  18.856  0.00  0.00    +0.000 A 
ENDBRANCH   7  12
ENDBRANCH   6   7
ENDBRANCH   1   6
BRANCH   3  20
ATOM     20  C   UNL     1       3.381   4.147  18.194  0.00  0.00    +0.000 C 
BRANCH  20  21
ATOM     21  N   UNL     1       4.781   4.305  17.881  0.00  0.00    +0.000 N 
ATOM     22  C   UNL     1       5.774   4.363  18.851  0.00  0.00    +0.000 C 
ATOM     23  O   UNL     1       5.678   4.275  20.052  0.00  0.00    +0.000 OA
ATOM     24  C   UNL     1       7.100   4.587  18.071  0.00  0.00    +0.000 C 
ATOM     25  O   UNL     1       8.214   4.685  18.523  0.00  0.00    +0.000 OA
ATOM     26  C   UNL     1       6.707   4.642  16.658  0.00  0.00    +0.000 A 
ATOM     27  C   UNL     1       7.511   4.835  15.550  0.00  0.00    +0.000 A 
ATOM     28  C   UNL     1       6.861   4.838  14.310  0.00  0.00    +0.000 A 
ATOM     29  C   UNL     1       5.460   4.650  14.219  0.00  0.00    +0.000 A 
ATOM     30  C   UNL     1       4.683   4.466  15.374  0.00  0.00    +0.000 A 
ATOM     31  C   UNL     1       5.327   4.465  16.597  0.00  0.00    +0.000 A 
BRANCH  28  32
ATOM     32  N   UNL     1       7.645   5.041  13.083  0.00  0.00    +0.000 N 
ATOM     33  O   UNL     1       7.297   4.419  12.070  0.00  0.00    +0.000 OA
ATOM     34  O   UNL     1       8.604   5.823  13.138  0.00  0.00    +0.000 OA
ENDBRANCH  28  32
ENDBRANCH  20  21
ENDBRANCH   3  20
TORSDOF 6
ENDMDL
MODEL 4
REMARK VINA RESULT:      -8.6      1.819      2.611
REMARK  Name = 
REMARK  6 active torsions:
REMARK  status: ('A' for Active; 'I' for Inactive)
REMARK    1  A    between atoms: N_5  and  C_6
REMARK    2  A    between atoms: C_6  and  C_7
REMARK    3  A    between atoms: C_7  and  N_8
REMARK    4  A    between atoms: C_10  and  C_11
REMARK    5  A    between atoms: C_11  and  N_12
REMARK    6  A    between atoms: C_19  and  N_20
REMARK                            x       y       z     vdW  Elec       q    Type
REMARK                         _______ _______ _______ _____ _____    ______ ____
ROOT
ATOM      1  N   UNL     1       1.397   8.938  19.164  0.00  0.00    +0.000 N 
ATOM      2  C   UNL     1       2.136   7.847  18.808  0.00  0.00    +0.000 A 
ATOM      3  C   UNL     1       2.250   7.112  19.964  0.00  0.00    +0.000 A 
ATOM      4  N   UNL     1       1.528   7.741  20.953  0.00  0.00    +0.000 NA
ATOM      5  N   UNL     1       0.991   8.848  20.443  0.00  0.00    +0.000 NA
ENDROOT
BRANCH   1   6
ATOM      6  C   UNL     1       1.036  10.016  18.272  0.00  0.00    +0.000 C 
BRANCH   6   7
ATOM      7  C   UNL     1       0.988  11.438  18.836  0.00  0.00    +0.000 C 
BRANCH   7  12
ATOM      8  O   UNL     1      -2.472  12.778  22.000  0.00  0.00    +0.000 OA
ATOM      9  C   UNL     1      -1.936  12.406  20.983  0.00  0.00    +0.000 C 
ATOM     10  C   UNL     1      -0.426  12.183  20.747  0.00  0.00    +0.000 C 
ATOM     11  O   UNL     1       0.447  12.362  21.568  0.00  0.00    +0.000 OA
ATOM     12  N   UNL     1      -0.311  11.760  19.425  0.00  0.00    +0.000 N 
ATOM     13  C   UNL     1      -1.586  11.709  18.808  0.00  0.00    +0.000 A 
ATOM     14  C   UNL     1      -1.958  11.349  17.523  0.00  0.00    +0.000 A 
ATOM     15  C   UNL     1      -3.328  11.391  17.183  0.00  0.00    +0.000 A 
ATOM     16  C   UNL     1      -4.304  11.788  18.116  0.00  0.00    +0.000 A 
ATOM     17 CL   UNL     1      -5.960  11.832  17.651  0.00  0.00    +0.000 Cl
ATOM     18  C   UNL     1      -3.941  12.143  19.413  0.00  0.00    +0.000 A 
ATOM     19  C   UNL     1      -2.588  12.090  19.712  0.00  0.00    +0.000 A 
ENDBRANCH   7  12
ENDBRANCH   6   7
ENDBRANCH   1   6
BRANCH   3  20
ATOM     20  C   UNL     1       3.057   5.888  20.225  0.00  0.00    +0.000 C 
BRANCH  20  21
ATOM     21  N   UNL     1       3.142   5.058  19.047  0.00  0.00    +0.000 N 
ATOM     22  C   UNL     1       2.249   4.027  18.780  0.00  0.00    +0.000 C 
ATOM     23  O   UNL     1       1.286   3.664  19.412  0.00  0.00    +0.000 OA
ATOM     24  C   UNL     1       2.747   3.383  17.455  0.00  0.00    +0.000 C 
ATOM     25  O   UNL     1       2.256   2.460  16.854  0.00  0.00    +0.000 OA
ATOM     26  C   UNL     1       3.942   4.150  17.083  0.00  0.00    +0.000 A 
ATOM     27  C   UNL     1       4.769   3.976  15.990  0.00  0.00    +0.000 A 
ATOM     28  C   UNL     1       5.845   4.866  15.883  0.00  0.00    +0.000 A 
ATOM     29  C   UNL     1       6.054   5.880  16.849  0.00  0.00    +0.000 A 
ATOM     30  C   UNL     1       5.191   6.013  17.949  0.00  0.00    +0.000 A 
ATOM     31  C   UNL     1       4.131   5.132  18.053  0.00  0.00    +0.000 A 
BRANCH  28  32
ATOM     32  N   UNL     1       6.774   4.744  14.749  0.00  0.00    +0.000 N 
ATOM     33  O   UNL     1       7.824   5.398  14.796  0.00  0.00    +0.000 OA
ATOM     34  O   UNL     1       6.448   3.994  13.819  0.00  0.00    +0.000 OA
ENDBRANCH  28  32
ENDBRANCH  20  21
ENDBRANCH   3  20
TORSDOF 6
ENDMDL
MODEL 5
REMARK VINA RESULT:      -8.6      6.637      9.114
REMARK  Name = 
REMARK  6 active torsions:
REMARK  status: ('A' for Active; 'I' for Inactive)
REMARK    1  A    between atoms: N_5  and  C_6
REMARK    2  A    between atoms: C_6  and  C_7
REMARK    3  A    between atoms: C_7  and  N_8
REMARK    4  A    between atoms: C_10  and  C_11
REMARK    5  A    between atoms: C_11  and  N_12
REMARK    6  A    between atoms: C_19  and  N_20
REMARK                            x       y       z     vdW  Elec       q    Type
REMARK                         _______ _______ _______ _____ _____    ______ ____
ROOT
ATOM      1  N   UNL     1       8.212   9.084  18.215  0.00  0.00    +0.000 N 
ATOM      2  C   UNL     1       8.597   7.901  18.777  0.00  0.00    +0.000 A 
ATOM      3  C   UNL     1       7.820   6.951  18.156  0.00  0.00    +0.000 A 
ATOM      4  N   UNL     1       7.048   7.576  17.203  0.00  0.00    +0.000 NA
ATOM      5  N   UNL     1       7.314   8.881  17.234  0.00  0.00    +0.000 NA
ENDROOT
BRANCH   1   6
ATOM      6  C   UNL     1       8.744  10.379  18.573  0.00  0.00    +0.000 C 
BRANCH   6   7
ATOM      7  C   UNL     1       9.778  10.451  19.697  0.00  0.00    +0.000 C 
BRANCH   7  12
ATOM      8  O   UNL     1      12.333  14.570  19.170  0.00  0.00    +0.000 OA
ATOM      9  C   UNL     1      11.549  13.760  19.604  0.00  0.00    +0.000 C 
ATOM     10  C   UNL     1      11.276  12.339  19.065  0.00  0.00    +0.000 C 
ATOM     11  O   UNL     1      11.818  11.835  18.105  0.00  0.00    +0.000 OA
ATOM     12  N   UNL     1      10.293  11.805  19.895  0.00  0.00    +0.000 N 
ATOM     13  C   UNL     1       9.917  12.746  20.886  0.00  0.00    +0.000 A 
ATOM     14  C   UNL     1       8.992  12.659  21.914  0.00  0.00    +0.000 A 
ATOM     15  C   UNL     1       8.827  13.774  22.765  0.00  0.00    +0.000 A 
ATOM     16  C   UNL     1       9.575  14.952  22.584  0.00  0.00    +0.000 A 
ATOM     17 CL   UNL     1       9.330  16.288  23.642  0.00  0.00    +0.000 Cl
ATOM     18  C   UNL     1      10.512  15.046  21.560  0.00  0.00    +0.000 A 
ATOM     19  C   UNL     1      10.649  13.934  20.744  0.00  0.00    +0.000 A 
ENDBRANCH   7  12
ENDBRANCH   6   7
ENDBRANCH   1   6
BRANCH   3  20
ATOM     20  C   UNL     1       7.700   5.497  18.449  0.00  0.00    +0.000 C 
BRANCH  20  21
ATOM     21  N   UNL     1       6.636   4.896  17.681  0.00  0.00    +0.000 N 
ATOM     22  C   UNL     1       6.743   4.620  16.324  0.00  0.00    +0.000 C 
ATOM     23  O   UNL     1       7.679   4.787  15.579  0.00  0.00    +0.000 OA
ATOM     24  C   UNL     1       5.362   4.035  15.912  0.00  0.00    +0.000 C 
ATOM     25  O   UNL     1       5.021   3.648  14.821  0.00  0.00    +0.000 OA
ATOM     26  C   UNL     1       4.562   4.042  17.142  0.00  0.00    +0.000 A 
ATOM     27  C   UNL     1       3.254   3.633  17.318  0.00  0.00    +0.000 A 
ATOM     28  C   UNL     1       2.740   3.750  18.616  0.00  0.00    +0.000 A 
ATOM     29  C   UNL     1       3.535   4.259  19.672  0.00  0.00    +0.000 A 
ATOM     30  C   UNL     1       4.857   4.671  19.443  0.00  0.00    +0.000 A 
ATOM     31  C   UNL     1       5.361   4.556  18.161  0.00  0.00    +0.000 A 
BRANCH  28  32
ATOM     32  N   UNL     1       1.354   3.340  18.885  0.00  0.00    +0.000 N 
ATOM     33  O   UNL     1       0.728   3.966  19.751  0.00  0.00    +0.000 OA
ATOM     34  O   UNL     1       0.899   2.393  18.228  0.00  0.00    +0.000 OA
ENDBRANCH  28  32
ENDBRANCH  20  21
ENDBRANCH   3  20
TORSDOF 6
ENDMDL
MODEL 6
REMARK VINA RESULT:      -8.6      2.612      3.654
REMARK  Name = 
REMARK  6 active torsions:
REMARK  status: ('A' for Active; 'I' for Inactive)
REMARK    1  A    between atoms: N_5  and  C_6
REMARK    2  A    between atoms: C_6  and  C_7
REMARK    3  A    between atoms: C_7  and  N_8
REMARK    4  A    between atoms: C_10  and  C_11
REMARK    5  A    between atoms: C_11  and  N_12
REMARK    6  A    between atoms: C_19  and  N_20
REMARK                            x       y       z     vdW  Elec       q    Type
REMARK                         _______ _______ _______ _____ _____    ______ ____
ROOT
ATOM      1  N   UNL     1       0.732   9.387  19.241  0.00  0.00    +0.000 N 
ATOM      2  C   UNL     1       1.318   8.568  20.164  0.00  0.00    +0.000 A 
ATOM      3  C   UNL     1       2.156   7.762  19.430  0.00  0.00    +0.000 A 
ATOM      4  N   UNL     1       2.100   8.159  18.113  0.00  0.00    +0.000 NA
ATOM      5  N   UNL     1       1.240   9.171  18.014  0.00  0.00    +0.000 NA
ENDROOT
BRANCH   1   6
ATOM      6  C   UNL     1      -0.253  10.400  19.546  0.00  0.00    +0.000 C 
BRANCH   6   7
ATOM      7  C   UNL     1      -0.865  11.186  18.385  0.00  0.00    +0.000 C 
BRANCH   7  12
ATOM      8  O   UNL     1      -5.693  10.862  17.785  0.00  0.00    +0.000 OA
ATOM      9  C   UNL     1      -4.616  11.200  18.214  0.00  0.00    +0.000 C 
ATOM     10  C   UNL     1      -3.227  10.712  17.748  0.00  0.00    +0.000 C 
ATOM     11  O   UNL     1      -3.025   9.899  16.872  0.00  0.00    +0.000 OA
ATOM     12  N   UNL     1      -2.304  11.386  18.545  0.00  0.00    +0.000 N 
ATOM     13  C   UNL     1      -2.971  12.232  19.467  0.00  0.00    +0.000 A 
ATOM     14  C   UNL     1      -2.474  13.081  20.441  0.00  0.00    +0.000 A 
ATOM     15  C   UNL     1      -3.391  13.816  21.224  0.00  0.00    +0.000 A 
ATOM     16  C   UNL     1      -4.780  13.697  21.032  0.00  0.00    +0.000 A 
ATOM     17 CL   UNL     1      -5.859  14.607  22.018  0.00  0.00    +0.000 Cl
ATOM     18  C   UNL     1      -5.290  12.853  20.049  0.00  0.00    +0.000 A 
ATOM     19  C   UNL     1      -4.361  12.147  19.299  0.00  0.00    +0.000 A 
ENDBRANCH   7  12
ENDBRANCH   6   7
ENDBRANCH   1   6
BRANCH   3  20
ATOM     20  C   UNL     1       2.956   6.587  19.873  0.00  0.00    +0.000 C 
BRANCH  20  21
ATOM     21  N   UNL     1       3.066   5.604  18.822  0.00  0.00    +0.000 N 
ATOM     22  C   UNL     1       2.184   4.539  18.685  0.00  0.00    +0.000 C 
ATOM     23  O   UNL     1       1.212   4.258  19.346  0.00  0.00    +0.000 OA
ATOM     24  C   UNL     1       2.708   3.723  17.470  0.00  0.00    +0.000 C 
ATOM     25  O   UNL     1       2.233   2.722  16.993  0.00  0.00    +0.000 OA
ATOM     26  C   UNL     1       3.904   4.442  17.014  0.00  0.00    +0.000 A 
ATOM     27  C   UNL     1       4.750   4.126  15.968  0.00  0.00    +0.000 A 
ATOM     28  C   UNL     1       5.822   5.001  15.756  0.00  0.00    +0.000 A 
ATOM     29  C   UNL     1       6.009   6.140  16.577  0.00  0.00    +0.000 A 
ATOM     30  C   UNL     1       5.127   6.416  17.635  0.00  0.00    +0.000 A 
ATOM     31  C   UNL     1       4.070   5.549  17.843  0.00  0.00    +0.000 A 
BRANCH  28  32
ATOM     32  N   UNL     1       6.770   4.732  14.665  0.00  0.00    +0.000 N 
ATOM     33  O   UNL     1       6.457   3.870  13.833  0.00  0.00    +0.000 OA
ATOM     34  O   UNL     1       7.822   5.385  14.645  0.00  0.00    +0.000 OA
ENDBRANCH  28  32
ENDBRANCH  20  21
ENDBRANCH   3  20
TORSDOF 6
ENDMDL
MODEL 7
REMARK VINA RESULT:      -8.5      2.568      3.699
REMARK  Name = 
REMARK  6 active torsions:
REMARK  status: ('A' for Active; 'I' for Inactive)
REMARK    1  A    between atoms: N_5  and  C_6
REMARK    2  A    between atoms: C_6  and  C_7
REMARK    3  A    between atoms: C_7  and  N_8
REMARK    4  A    between atoms: C_10  and  C_11
REMARK    5  A    between atoms: C_11  and  N_12
REMARK    6  A    between atoms: C_19  and  N_20
REMARK                            x       y       z     vdW  Elec       q    Type
REMARK                         _______ _______ _______ _____ _____    ______ ____
ROOT
ATOM      1  N   UNL     1       1.165   9.181  19.272  0.00  0.00    +0.000 N 
ATOM      2  C   UNL     1       2.007   8.179  18.883  0.00  0.00    +0.000 A 
ATOM      3  C   UNL     1       2.146   7.390  20.000  0.00  0.00    +0.000 A 
ATOM      4  N   UNL     1       1.340   7.897  20.995  0.00  0.00    +0.000 NA
ATOM      5  N   UNL     1       0.726   8.983  20.528  0.00  0.00    +0.000 NA
ENDROOT
BRANCH   1   6
ATOM      6  C   UNL     1       0.741  10.276  18.428  0.00  0.00    +0.000 C 
BRANCH   6   7
ATOM      7  C   UNL     1       0.540  11.650  19.071  0.00  0.00    +0.000 C 
BRANCH   7  12
ATOM      8  O   UNL     1      -4.286  12.324  18.908  0.00  0.00    +0.000 OA
ATOM      9  C   UNL     1      -3.164  12.206  19.337  0.00  0.00    +0.000 C 
ATOM     10  C   UNL     1      -1.875  11.938  18.530  0.00  0.00    +0.000 C 
ATOM     11  O   UNL     1      -1.815  11.799  17.327  0.00  0.00    +0.000 OA
ATOM     12  N   UNL     1      -0.847  11.881  19.469  0.00  0.00    +0.000 N 
ATOM     13  C   UNL     1      -1.360  12.072  20.776  0.00  0.00    +0.000 A 
ATOM     14  C   UNL     1      -0.722  12.098  22.005  0.00  0.00    +0.000 A 
ATOM     15  C   UNL     1      -1.501  12.316  23.163  0.00  0.00    +0.000 A 
ATOM     16  C   UNL     1      -2.895  12.501  23.085  0.00  0.00    +0.000 A 
ATOM     17 CL   UNL     1      -3.803  12.753  24.525  0.00  0.00    +0.000 Cl
ATOM     18  C   UNL     1      -3.544  12.486  21.854  0.00  0.00    +0.000 A 
ATOM     19  C   UNL     1      -2.748  12.271  20.739  0.00  0.00    +0.000 A 
ENDBRANCH   7  12
ENDBRANCH   6   7
ENDBRANCH   1   6
BRANCH   3  20
ATOM     20  C   UNL     1       3.046   6.225  20.223  0.00  0.00    +0.000 C 
BRANCH  20  21
ATOM     21  N   UNL     1       3.091   5.371  19.061  0.00  0.00    +0.000 N 
ATOM     22  C   UNL     1       2.147   4.384  18.807  0.00  0.00    +0.000 C 
ATOM     23  O   UNL     1       1.164   4.083  19.441  0.00  0.00    +0.000 OA
ATOM     24  C   UNL     1       2.616   3.691  17.496  0.00  0.00    +0.000 C 
ATOM     25  O   UNL     1       2.080   2.785  16.908  0.00  0.00    +0.000 OA
ATOM     26  C   UNL     1       3.851   4.388  17.116  0.00  0.00    +0.000 A 
ATOM     27  C   UNL     1       4.671   4.152  16.030  0.00  0.00    +0.000 A 
ATOM     28  C   UNL     1       5.793   4.982  15.912  0.00  0.00    +0.000 A 
ATOM     29  C   UNL     1       6.051   6.000  16.862  0.00  0.00    +0.000 A 
ATOM     30  C   UNL     1       5.192   6.198  17.956  0.00  0.00    +0.000 A 
ATOM     31  C   UNL     1       4.087   5.376  18.070  0.00  0.00    +0.000 A 
BRANCH  28  32
ATOM     32  N   UNL     1       6.718   4.792  14.785  0.00  0.00    +0.000 N 
ATOM     33  O   UNL     1       7.772   5.443  14.792  0.00  0.00    +0.000 OA
ATOM     34  O   UNL     1       6.387   3.991  13.901  0.00  0.00    +0.000 OA
ENDBRANCH  28  32
ENDBRANCH  20  21
ENDBRANCH   3  20
TORSDOF 6
ENDMDL
MODEL 8
REMARK VINA RESULT:      -8.5      2.392      3.165
REMARK  Name = 
REMARK  6 active torsions:
REMARK  status: ('A' for Active; 'I' for Inactive)
REMARK    1  A    between atoms: N_5  and  C_6
REMARK    2  A    between atoms: C_6  and  C_7
REMARK    3  A    between atoms: C_7  and  N_8
REMARK    4  A    between atoms: C_10  and  C_11
REMARK    5  A    between atoms: C_11  and  N_12
REMARK    6  A    between atoms: C_19  and  N_20
REMARK                            x       y       z     vdW  Elec       q    Type
REMARK                         _______ _______ _______ _____ _____    ______ ____
ROOT
ATOM      1  N   UNL     1       1.895   5.075  19.745  0.00  0.00    +0.000 N 
ATOM      2  C   UNL     1       3.258   5.033  19.810  0.00  0.00    +0.000 A 
ATOM      3  C   UNL     1       3.609   3.946  19.045  0.00  0.00    +0.000 A 
ATOM      4  N   UNL     1       2.465   3.413  18.494  0.00  0.00    +0.000 NA
ATOM      5  N   UNL     1       1.423   4.129  18.913  0.00  0.00    +0.000 NA
ENDROOT
BRANCH   1   6
ATOM      6  C   UNL     1       1.066   6.047  20.421  0.00  0.00    +0.000 C 
BRANCH   6   7
ATOM      7  C   UNL     1       1.749   7.250  21.075  0.00  0.00    +0.000 C 
BRANCH   7  12
ATOM      8  O   UNL     1       0.497  11.141  18.418  0.00  0.00    +0.000 OA
ATOM      9  C   UNL     1       0.588  10.373  19.345  0.00  0.00    +0.000 C 
ATOM     10  C   UNL     1       1.355   9.033  19.381  0.00  0.00    +0.000 C 
ATOM     11  O   UNL     1       1.978   8.556  18.458  0.00  0.00    +0.000 OA
ATOM     12  N   UNL     1       1.157   8.521  20.661  0.00  0.00    +0.000 N 
ATOM     13  C   UNL     1       0.338   9.392  21.422  0.00  0.00    +0.000 A 
ATOM     14  C   UNL     1      -0.117   9.298  22.727  0.00  0.00    +0.000 A 
ATOM     15  C   UNL     1      -0.931  10.336  23.231  0.00  0.00    +0.000 A 
ATOM     16  C   UNL     1      -1.281  11.445  22.438  0.00  0.00    +0.000 A 
ATOM     17 CL   UNL     1      -2.284  12.680  23.094  0.00  0.00    +0.000 Cl
ATOM     18  C   UNL     1      -0.822  11.553  21.129  0.00  0.00    +0.000 A 
ATOM     19  C   UNL     1      -0.024  10.516  20.666  0.00  0.00    +0.000 A 
ENDBRANCH   7  12
ENDBRANCH   6   7
ENDBRANCH   1   6
BRANCH   3  20
ATOM     20  C   UNL     1       4.948   3.324  18.853  0.00  0.00    +0.000 C 
BRANCH  20  21
ATOM     21  N   UNL     1       5.857   4.235  18.201  0.00  0.00    +0.000 N 
ATOM     22  C   UNL     1       6.549   5.231  18.878  0.00  0.00    +0.000 C 
ATOM     23  O   UNL     1       6.549   5.499  20.056  0.00  0.00    +0.000 OA
ATOM     24  C   UNL     1       7.356   5.989  17.786  0.00  0.00    +0.000 C 
ATOM     25  O   UNL     1       8.104   6.923  17.937  0.00  0.00    +0.000 OA
ATOM     26  C   UNL     1       7.021   5.314  16.526  0.00  0.00    +0.000 A 
ATOM     27  C   UNL     1       7.466   5.606  15.251  0.00  0.00    +0.000 A 
ATOM     28  C   UNL     1       6.980   4.785  14.226  0.00  0.00    +0.000 A 
ATOM     29  C   UNL     1       6.087   3.721  14.503  0.00  0.00    +0.000 A 
ATOM     30  C   UNL     1       5.656   3.468  15.815  0.00  0.00    +0.000 A 
ATOM     31  C   UNL     1       6.136   4.281  16.825  0.00  0.00    +0.000 A 
BRANCH  28  32
ATOM     32  N   UNL     1       7.403   5.032  12.839  0.00  0.00    +0.000 N 
ATOM     33  O   UNL     1       6.987   4.259  11.966  0.00  0.00    +0.000 OA
ATOM     34  O   UNL     1       8.148   6.000  12.631  0.00  0.00    +0.000 OA
ENDBRANCH  28  32
ENDBRANCH  20  21
ENDBRANCH   3  20
TORSDOF 6
ENDMDL
MODEL 9
REMARK VINA RESULT:      -8.5      3.895     11.245
REMARK  Name = 
REMARK  6 active torsions:
REMARK  status: ('A' for Active; 'I' for Inactive)
REMARK    1  A    between atoms: N_5  and  C_6
REMARK    2  A    between atoms: C_6  and  C_7
REMARK    3  A    between atoms: C_7  and  N_8
REMARK    4  A    between atoms: C_10  and  C_11
REMARK    5  A    between atoms: C_11  and  N_12
REMARK    6  A    between atoms: C_19  and  N_20
REMARK                            x       y       z     vdW  Elec       q    Type
REMARK                         _______ _______ _______ _____ _____    ______ ____
ROOT
ATOM      1  N   UNL     1       1.483   9.070  19.391  0.00  0.00    +0.000 N 
ATOM      2  C   UNL     1       1.257  10.296  18.833  0.00  0.00    +0.000 A 
ATOM      3  C   UNL     1       0.645  11.021  19.828  0.00  0.00    +0.000 A 
ATOM      4  N   UNL     1       0.584  10.242  20.961  0.00  0.00    +0.000 NA
ATOM      5  N   UNL     1       1.122   9.055  20.686  0.00  0.00    +0.000 NA
ENDROOT
BRANCH   1   6
ATOM      6  C   UNL     1       2.094   7.953  18.706  0.00  0.00    +0.000 C 
BRANCH   6   7
ATOM      7  C   UNL     1       2.459   6.713  19.524  0.00  0.00    +0.000 C 
BRANCH   7  12
ATOM      8  O   UNL     1       2.581   2.291  17.473  0.00  0.00    +0.000 OA
ATOM      9  C   UNL     1       2.856   3.439  17.731  0.00  0.00    +0.000 C 
ATOM     10  C   UNL     1       2.160   4.363  18.754  0.00  0.00    +0.000 C 
ATOM     11  O   UNL     1       1.214   4.057  19.447  0.00  0.00    +0.000 OA
ATOM     12  N   UNL     1       2.835   5.579  18.682  0.00  0.00    +0.000 N 
ATOM     13  C   UNL     1       3.869   5.516  17.715  0.00  0.00    +0.000 A 
ATOM     14  C   UNL     1       4.788   6.468  17.306  0.00  0.00    +0.000 A 
ATOM     15  C   UNL     1       5.721   6.116  16.307  0.00  0.00    +0.000 A 
ATOM     16  C   UNL     1       5.728   4.833  15.728  0.00  0.00    +0.000 A 
ATOM     17 CL   UNL     1       6.880   4.455  14.506  0.00  0.00    +0.000 Cl
ATOM     18  C   UNL     1       4.815   3.866  16.138  0.00  0.00    +0.000 A 
ATOM     19  C   UNL     1       3.914   4.245  17.121  0.00  0.00    +0.000 A 
ENDBRANCH   7  12
ENDBRANCH   6   7
ENDBRANCH   1   6
BRANCH   3  20
ATOM     20  C   UNL     1       0.044  12.382  19.765  0.00  0.00    +0.000 C 
BRANCH  20  21
ATOM     21  N   UNL     1      -1.397  12.318  19.800  0.00  0.00    +0.000 N 
ATOM     22  C   UNL     1      -2.174  12.092  18.671  0.00  0.00    +0.000 C 
ATOM     23  O   UNL     1      -1.829  11.893  17.530  0.00  0.00    +0.000 OA
ATOM     24  C   UNL     1      -3.648  12.156  19.164  0.00  0.00    +0.000 C 
ATOM     25  O   UNL     1      -4.651  12.003  18.512  0.00  0.00    +0.000 OA
ATOM     26  C   UNL     1      -3.557  12.433  20.602  0.00  0.00    +0.000 A 
ATOM     27  C   UNL     1      -4.585  12.596  21.512  0.00  0.00    +0.000 A 
ATOM     28  C   UNL     1      -4.203  12.849  22.835  0.00  0.00    +0.000 A 
ATOM     29  C   UNL     1      -2.836  12.926  23.199  0.00  0.00    +0.000 A 
ATOM     30  C   UNL     1      -1.826  12.762  22.237  0.00  0.00    +0.000 A 
ATOM     31  C   UNL     1      -2.206  12.514  20.931  0.00  0.00    +0.000 A 
BRANCH  28  32
ATOM     32  N   UNL     1      -5.237  13.038  23.863  0.00  0.00    +0.000 N 
ATOM     33  O   UNL     1      -5.429  12.111  24.661  0.00  0.00    +0.000 OA
ATOM     34  O   UNL     1      -5.850  14.114  23.867  0.00  0.00    +0.000 OA
ENDBRANCH  28  32
ENDBRANCH  20  21
ENDBRANCH   3  20
TORSDOF 6
ENDMDL
