MODEL 1
REMARK VINA RESULT:      -7.6      0.000      0.000
REMARK  Name = 
REMARK  6 active torsions:
REMARK  status: ('A' for Active; 'I' for Inactive)
REMARK    1  A    between atoms: C_1  and  C_2
REMARK    2  A    between atoms: C_2  and  C_3
REMARK    3  A    between atoms: C_3  and  N_4
REMARK    4  A    between atoms: C_5  and  C_6
REMARK    5  A    between atoms: C_14  and  O_15
REMARK    6  A    between atoms: O_15  and  C_16
REMARK                            x       y       z     vdW  Elec       q    Type
REMARK                         _______ _______ _______ _____ _____    ______ ____
ROOT
ATOM      1  N   UNL     1       5.584   5.881  16.653  0.00  0.00    +0.000 NA
ATOM      2  C   UNL     1       6.653   5.300  17.496  0.00  0.00    +0.000 C 
ATOM      3  C   UNL     1       7.493   6.402  18.134  0.00  0.00    +0.000 C 
ATOM      4  C   UNL     1       5.997   4.437  18.571  0.00  0.00    +0.000 C 
ATOM      5  C   UNL     1       4.576   4.180  18.084  0.00  0.00    +0.000 C 
ATOM      6  C   UNL     1       3.548   3.968  19.186  0.00  0.00    +0.000 A 
ATOM      7  C   UNL     1       2.400   4.798  19.267  0.00  0.00    +0.000 A 
ATOM      8  C   UNL     1       1.401   4.520  20.208  0.00  0.00    +0.000 A 
ATOM      9  C   UNL     1       1.547   3.465  21.099  0.00  0.00    +0.000 A 
ATOM     10  C   UNL     1       2.696   2.678  21.068  0.00  0.00    +0.000 A 
ATOM     11  C   UNL     1       3.696   2.917  20.118  0.00  0.00    +0.000 A 
ATOM     12  C   UNL     1       2.204   5.962  18.332  0.00  0.00    +0.000 C 
ATOM     13  C   UNL     1       3.532   6.492  17.812  0.00  0.00    +0.000 C 
ATOM     14  C   UNL     1       4.294   5.354  17.136  0.00  0.00    +0.000 C 
ENDROOT
BRANCH  11  15
ATOM     15  O   UNL     1       4.843   2.176  20.008  0.00  0.00    +0.000 OA
ATOM     16  C   UNL     1       5.167   1.301  21.080  0.00  0.00    +0.000 C 
ENDBRANCH  11  15
BRANCH   1  17
ATOM     17  C   UNL     1       5.829   5.608  15.228  0.00  0.00    +0.000 C 
BRANCH  17  19
ATOM     18  C   UNL     1       6.068   3.808  13.479  0.00  0.00    +0.000 C 
ATOM     19  C   UNL     1       6.303   4.176  14.936  0.00  0.00    +0.000 C 
ENDBRANCH  17  19
ENDBRANCH   1  17
TORSDOF 3
ENDMDL
MODEL 2
REMARK VINA RESULT:      -7.1      2.039      3.457
REMARK  Name = 
REMARK  6 active torsions:
REMARK  status: ('A' for Active; 'I' for Inactive)
REMARK    1  A    between atoms: C_1  and  C_2
REMARK    2  A    between atoms: C_2  and  C_3
REMARK    3  A    between atoms: C_3  and  N_4
REMARK    4  A    between atoms: C_5  and  C_6
REMARK    5  A    between atoms: C_14  and  O_15
REMARK    6  A    between atoms: O_15  and  C_16
REMARK                            x       y       z     vdW  Elec       q    Type
REMARK                         _______ _______ _______ _____ _____    ______ ____
ROOT
ATOM      1  N   UNL     1       5.951   4.947  16.952  0.00  0.00    +0.000 NA
ATOM      2  C   UNL     1       5.354   6.301  16.933  0.00  0.00    +0.000 C 
ATOM      3  C   UNL     1       4.962   6.696  15.512  0.00  0.00    +0.000 C 
ATOM      4  C   UNL     1       4.129   6.294  17.844  0.00  0.00    +0.000 C 
ATOM      5  C   UNL     1       4.270   5.055  18.719  0.00  0.00    +0.000 C 
ATOM      6  C   UNL     1       2.956   4.448  19.189  0.00  0.00    +0.000 A 
ATOM      7  C   UNL     1       2.645   3.094  18.898  0.00  0.00    +0.000 A 
ATOM      8  C   UNL     1       1.493   2.510  19.437  0.00  0.00    +0.000 A 
ATOM      9  C   UNL     1       0.622   3.259  20.217  0.00  0.00    +0.000 A 
ATOM     10  C   UNL     1       0.887   4.605  20.463  0.00  0.00    +0.000 A 
ATOM     11  C   UNL     1       2.047   5.205  19.960  0.00  0.00    +0.000 A 
ATOM     12  C   UNL     1       3.551   2.246  18.045  0.00  0.00    +0.000 C 
ATOM     13  C   UNL     1       4.378   3.094  17.091  0.00  0.00    +0.000 C 
ATOM     14  C   UNL     1       5.170   4.123  17.894  0.00  0.00    +0.000 C 
ENDROOT
BRANCH  11  15
ATOM     15  O   UNL     1       2.389   6.514  20.176  0.00  0.00    +0.000 OA
ATOM     16  C   UNL     1       1.433   7.348  20.815  0.00  0.00    +0.000 C 
ENDBRANCH  11  15
BRANCH   1  17
ATOM     17  C   UNL     1       7.384   5.006  17.280  0.00  0.00    +0.000 C 
BRANCH  17  19
ATOM     18  C   UNL     1       7.915   5.727  19.638  0.00  0.00    +0.000 C 
ATOM     19  C   UNL     1       7.769   6.182  18.193  0.00  0.00    +0.000 C 
ENDBRANCH  17  19
ENDBRANCH   1  17
TORSDOF 3
ENDMDL
MODEL 3
REMARK VINA RESULT:      -7.1      1.489      1.802
REMARK  Name = 
REMARK  6 active torsions:
REMARK  status: ('A' for Active; 'I' for Inactive)
REMARK    1  A    between atoms: C_1  and  C_2
REMARK    2  A    between atoms: C_2  and  C_3
REMARK    3  A    between atoms: C_3  and  N_4
REMARK    4  A    between atoms: C_5  and  C_6
REMARK    5  A    between atoms: C_14  and  O_15
REMARK    6  A    between atoms: O_15  and  C_16
REMARK                            x       y       z     vdW  Elec       q    Type
REMARK                         _______ _______ _______ _____ _____    ______ ____
ROOT
ATOM      1  N   UNL     1       5.795   5.489  16.065  0.00  0.00    +0.000 NA
ATOM      2  C   UNL     1       6.286   4.322  16.830  0.00  0.00    +0.000 C 
ATOM      3  C   UNL     1       7.675   4.597  17.399  0.00  0.00    +0.000 C 
ATOM      4  C   UNL     1       5.294   4.037  17.954  0.00  0.00    +0.000 C 
ATOM      5  C   UNL     1       4.015   4.774  17.574  0.00  0.00    +0.000 C 
ATOM      6  C   UNL     1       3.160   5.224  18.750  0.00  0.00    +0.000 A 
ATOM      7  C   UNL     1       2.823   6.593  18.910  0.00  0.00    +0.000 A 
ATOM      8  C   UNL     1       1.939   6.982  19.923  0.00  0.00    +0.000 A 
ATOM      9  C   UNL     1       1.423   6.042  20.806  0.00  0.00    +0.000 A 
ATOM     10  C   UNL     1       1.791   4.703  20.695  0.00  0.00    +0.000 A 
ATOM     11  C   UNL     1       2.652   4.285  19.673  0.00  0.00    +0.000 A 
ATOM     12  C   UNL     1       3.368   7.650  17.987  0.00  0.00    +0.000 C 
ATOM     13  C   UNL     1       4.691   7.225  17.367  0.00  0.00    +0.000 C 
ATOM     14  C   UNL     1       4.500   5.894  16.643  0.00  0.00    +0.000 C 
ENDROOT
BRANCH  11  15
ATOM     15  O   UNL     1       3.042   2.985  19.484  0.00  0.00    +0.000 OA
ATOM     16  C   UNL     1       2.040   2.039  19.141  0.00  0.00    +0.000 C 
ENDBRANCH  11  15
BRANCH   1  17
ATOM     17  C   UNL     1       5.721   5.185  14.627  0.00  0.00    +0.000 C 
BRANCH  17  19
ATOM     18  C   UNL     1       6.083   3.526  12.763  0.00  0.00    +0.000 C 
ATOM     19  C   UNL     1       6.206   3.774  14.260  0.00  0.00    +0.000 C 
ENDBRANCH  17  19
ENDBRANCH   1  17
TORSDOF 3
ENDMDL
MODEL 4
REMARK VINA RESULT:      -6.9      1.041      1.084
REMARK  Name = 
REMARK  6 active torsions:
REMARK  status: ('A' for Active; 'I' for Inactive)
REMARK    1  A    between atoms: C_1  and  C_2
REMARK    2  A    between atoms: C_2  and  C_3
REMARK    3  A    between atoms: C_3  and  N_4
REMARK    4  A    between atoms: C_5  and  C_6
REMARK    5  A    between atoms: C_14  and  O_15
REMARK    6  A    between atoms: O_15  and  C_16
REMARK                            x       y       z     vdW  Elec       q    Type
REMARK                         _______ _______ _______ _____ _____    ______ ____
ROOT
ATOM      1  N   UNL     1       5.468   4.620  16.641  0.00  0.00    +0.000 NA
ATOM      2  C   UNL     1       6.437   4.708  17.756  0.00  0.00    +0.000 C 
ATOM      3  C   UNL     1       6.854   6.156  17.993  0.00  0.00    +0.000 C 
ATOM      4  C   UNL     1       5.779   4.129  19.006  0.00  0.00    +0.000 C 
ATOM      5  C   UNL     1       4.588   3.318  18.509  0.00  0.00    +0.000 C 
ATOM      6  C   UNL     1       3.425   3.221  19.485  0.00  0.00    +0.000 A 
ATOM      7  C   UNL     1       2.130   3.657  19.105  0.00  0.00    +0.000 A 
ATOM      8  C   UNL     1       1.043   3.453  19.964  0.00  0.00    +0.000 A 
ATOM      9  C   UNL     1       1.230   2.869  21.210  0.00  0.00    +0.000 A 
ATOM     10  C   UNL     1       2.507   2.489  21.619  0.00  0.00    +0.000 A 
ATOM     11  C   UNL     1       3.605   2.656  20.767  0.00  0.00    +0.000 A 
ATOM     12  C   UNL     1       1.880   4.307  17.771  0.00  0.00    +0.000 C 
ATOM     13  C   UNL     1       3.133   4.979  17.231  0.00  0.00    +0.000 C 
ATOM     14  C   UNL     1       4.257   3.948  17.148  0.00  0.00    +0.000 C 
ENDROOT
BRANCH  11  15
ATOM     15  O   UNL     1       4.885   2.288  21.086  0.00  0.00    +0.000 OA
ATOM     16  C   UNL     1       5.168   0.899  21.180  0.00  0.00    +0.000 C 
ENDBRANCH  11  15
BRANCH   1  17
ATOM     17  C   UNL     1       6.064   3.946  15.476  0.00  0.00    +0.000 C 
BRANCH  17  19
ATOM     18  C   UNL     1       6.050   3.581  12.981  0.00  0.00    +0.000 C 
ATOM     19  C   UNL     1       5.523   4.438  14.124  0.00  0.00    +0.000 C 
ENDBRANCH  17  19
ENDBRANCH   1  17
TORSDOF 3
ENDMDL
MODEL 5
REMARK VINA RESULT:      -6.9      1.984      3.748
REMARK  Name = 
REMARK  6 active torsions:
REMARK  status: ('A' for Active; 'I' for Inactive)
REMARK    1  A    between atoms: C_1  and  C_2
REMARK    2  A    between atoms: C_2  and  C_3
REMARK    3  A    between atoms: C_3  and  N_4
REMARK    4  A    between atoms: C_5  and  C_6
REMARK    5  A    between atoms: C_14  and  O_15
REMARK    6  A    between atoms: O_15  and  C_16
REMARK                            x       y       z     vdW  Elec       q    Type
REMARK                         _______ _______ _______ _____ _____    ______ ____
ROOT
ATOM      1  N   UNL     1       6.291   5.872  17.714  0.00  0.00    +0.000 NA
ATOM      2  C   UNL     1       5.310   6.832  17.161  0.00  0.00    +0.000 C 
ATOM      3  C   UNL     1       5.121   6.606  15.663  0.00  0.00    +0.000 C 
ATOM      4  C   UNL     1       3.988   6.642  17.901  0.00  0.00    +0.000 C 
ATOM      5  C   UNL     1       4.331   5.869  19.169  0.00  0.00    +0.000 C 
ATOM      6  C   UNL     1       3.214   4.987  19.705  0.00  0.00    +0.000 A 
ATOM      7  C   UNL     1       3.421   3.595  19.889  0.00  0.00    +0.000 A 
ATOM      8  C   UNL     1       2.431   2.814  20.495  0.00  0.00    +0.000 A 
ATOM      9  C   UNL     1       1.222   3.381  20.876  0.00  0.00    +0.000 A 
ATOM     10  C   UNL     1       0.983   4.735  20.650  0.00  0.00    +0.000 A 
ATOM     11  C   UNL     1       1.968   5.543  20.072  0.00  0.00    +0.000 A 
ATOM     12  C   UNL     1       4.710   2.933  19.478  0.00  0.00    +0.000 C 
ATOM     13  C   UNL     1       5.403   3.699  18.362  0.00  0.00    +0.000 C 
ATOM     14  C   UNL     1       5.635   5.140  18.813  0.00  0.00    +0.000 C 
ENDROOT
BRANCH  11  15
ATOM     15  O   UNL     1       1.818   6.885  19.837  0.00  0.00    +0.000 OA
ATOM     16  C   UNL     1       1.405   7.702  20.923  0.00  0.00    +0.000 C 
ENDBRANCH  11  15
BRANCH   1  17
ATOM     17  C   UNL     1       7.526   6.558  18.126  0.00  0.00    +0.000 C 
BRANCH  17  19
ATOM     18  C   UNL     1       8.446   8.887  18.418  0.00  0.00    +0.000 C 
ATOM     19  C   UNL     1       7.724   7.936  17.475  0.00  0.00    +0.000 C 
ENDBRANCH  17  19
ENDBRANCH   1  17
TORSDOF 3
ENDMDL
MODEL 6
REMARK VINA RESULT:      -6.2      1.725      2.622
REMARK  Name = 
REMARK  6 active torsions:
REMARK  status: ('A' for Active; 'I' for Inactive)
REMARK    1  A    between atoms: C_1  and  C_2
REMARK    2  A    between atoms: C_2  and  C_3
REMARK    3  A    between atoms: C_3  and  N_4
REMARK    4  A    between atoms: C_5  and  C_6
REMARK    5  A    between atoms: C_14  and  O_15
REMARK    6  A    between atoms: O_15  and  C_16
REMARK                            x       y       z     vdW  Elec       q    Type
REMARK                         _______ _______ _______ _____ _____    ______ ____
ROOT
ATOM      1  N   UNL     1       5.438   5.168  16.870  0.00  0.00    +0.000 NA
ATOM      2  C   UNL     1       5.865   4.468  18.102  0.00  0.00    +0.000 C 
ATOM      3  C   UNL     1       7.257   4.928  18.527  0.00  0.00    +0.000 C 
ATOM      4  C   UNL     1       4.845   4.767  19.198  0.00  0.00    +0.000 C 
ATOM      5  C   UNL     1       3.607   5.289  18.479  0.00  0.00    +0.000 C 
ATOM      6  C   UNL     1       2.757   6.259  19.286  0.00  0.00    +0.000 A 
ATOM      7  C   UNL     1       2.480   7.558  18.788  0.00  0.00    +0.000 A 
ATOM      8  C   UNL     1       1.600   8.399  19.478  0.00  0.00    +0.000 A 
ATOM      9  C   UNL     1       1.030   7.991  20.677  0.00  0.00    +0.000 A 
ATOM     10  C   UNL     1       1.338   6.739  21.207  0.00  0.00    +0.000 A 
ATOM     11  C   UNL     1       2.193   5.869  20.521  0.00  0.00    +0.000 A 
ATOM     12  C   UNL     1       3.085   8.051  17.500  0.00  0.00    +0.000 C 
ATOM     13  C   UNL     1       4.396   7.344  17.191  0.00  0.00    +0.000 C 
ATOM     14  C   UNL     1       4.155   5.837  17.154  0.00  0.00    +0.000 C 
ENDROOT
BRANCH  11  15
ATOM     15  O   UNL     1       2.527   4.616  20.964  0.00  0.00    +0.000 OA
ATOM     16  C   UNL     1       1.507   3.628  20.978  0.00  0.00    +0.000 C 
ENDBRANCH  11  15
BRANCH   1  17
ATOM     17  C   UNL     1       5.372   4.237  15.732  0.00  0.00    +0.000 C 
BRANCH  17  19
ATOM     18  C   UNL     1       6.091   3.698  13.376  0.00  0.00    +0.000 C 
ATOM     19  C   UNL     1       6.002   4.782  14.440  0.00  0.00    +0.000 C 
ENDBRANCH  17  19
ENDBRANCH   1  17
TORSDOF 3
ENDMDL
MODEL 7
REMARK VINA RESULT:      -5.9      2.318      5.323
REMARK  Name = 
REMARK  6 active torsions:
REMARK  status: ('A' for Active; 'I' for Inactive)
REMARK    1  A    between atoms: C_1  and  C_2
REMARK    2  A    between atoms: C_2  and  C_3
REMARK    3  A    between atoms: C_3  and  N_4
REMARK    4  A    between atoms: C_5  and  C_6
REMARK    5  A    between atoms: C_14  and  O_15
REMARK    6  A    between atoms: O_15  and  C_16
REMARK                            x       y       z     vdW  Elec       q    Type
REMARK                         _______ _______ _______ _____ _____    ______ ____
ROOT
ATOM      1  N   UNL     1       2.603   3.823  18.885  0.00  0.00    +0.000 NA
ATOM      2  C   UNL     1       3.625   2.846  19.323  0.00  0.00    +0.000 C 
ATOM      3  C   UNL     1       3.642   1.634  18.396  0.00  0.00    +0.000 C 
ATOM      4  C   UNL     1       4.983   3.543  19.316  0.00  0.00    +0.000 C 
ATOM      5  C   UNL     1       4.682   5.036  19.287  0.00  0.00    +0.000 C 
ATOM      6  C   UNL     1       5.743   5.893  18.611  0.00  0.00    +0.000 A 
ATOM      7  C   UNL     1       5.403   6.725  17.514  0.00  0.00    +0.000 A 
ATOM      8  C   UNL     1       6.355   7.599  16.976  0.00  0.00    +0.000 A 
ATOM      9  C   UNL     1       7.650   7.623  17.477  0.00  0.00    +0.000 A 
ATOM     10  C   UNL     1       8.013   6.769  18.517  0.00  0.00    +0.000 A 
ATOM     11  C   UNL     1       7.071   5.907  19.090  0.00  0.00    +0.000 A 
ATOM     12  C   UNL     1       4.016   6.724  16.927  0.00  0.00    +0.000 C 
ATOM     13  C   UNL     1       3.306   5.401  17.170  0.00  0.00    +0.000 C 
ATOM     14  C   UNL     1       3.278   5.116  18.670  0.00  0.00    +0.000 C 
ENDROOT
BRANCH  11  15
ATOM     15  O   UNL     1       7.344   5.055  20.128  0.00  0.00    +0.000 OA
ATOM     16  C   UNL     1       8.659   5.069  20.664  0.00  0.00    +0.000 C 
ENDBRANCH  11  15
BRANCH   1  17
ATOM     17  C   UNL     1       1.496   3.897  19.852  0.00  0.00    +0.000 C 
BRANCH  17  19
ATOM     18  C   UNL     1       1.444   2.491  21.945  0.00  0.00    +0.000 C 
ATOM     19  C   UNL     1       1.938   3.788  21.320  0.00  0.00    +0.000 C 
ENDBRANCH  17  19
ENDBRANCH   1  17
TORSDOF 3
ENDMDL
MODEL 8
REMARK VINA RESULT:      -5.8      1.935      2.944
REMARK  Name = 
REMARK  6 active torsions:
REMARK  status: ('A' for Active; 'I' for Inactive)
REMARK    1  A    between atoms: C_1  and  C_2
REMARK    2  A    between atoms: C_2  and  C_3
REMARK    3  A    between atoms: C_3  and  N_4
REMARK    4  A    between atoms: C_5  and  C_6
REMARK    5  A    between atoms: C_14  and  O_15
REMARK    6  A    between atoms: O_15  and  C_16
REMARK                            x       y       z     vdW  Elec       q    Type
REMARK                         _______ _______ _______ _____ _____    ______ ____
ROOT
ATOM      1  N   UNL     1       5.532   5.157  16.495  0.00  0.00    +0.000 NA
ATOM      2  C   UNL     1       5.014   6.524  16.721  0.00  0.00    +0.000 C 
ATOM      3  C   UNL     1       4.444   7.104  15.429  0.00  0.00    +0.000 C 
ATOM      4  C   UNL     1       3.935   6.453  17.798  0.00  0.00    +0.000 C 
ATOM      5  C   UNL     1       4.132   5.112  18.493  0.00  0.00    +0.000 C 
ATOM      6  C   UNL     1       2.869   4.501  19.082  0.00  0.00    +0.000 A 
ATOM      7  C   UNL     1       2.445   3.206  18.687  0.00  0.00    +0.000 A 
ATOM      8  C   UNL     1       1.352   2.604  19.321  0.00  0.00    +0.000 A 
ATOM      9  C   UNL     1       0.645   3.285  20.304  0.00  0.00    +0.000 A 
ATOM     10  C   UNL     1       1.016   4.580  20.661  0.00  0.00    +0.000 A 
ATOM     11  C   UNL     1       2.122   5.192  20.062  0.00  0.00    +0.000 A 
ATOM     12  C   UNL     1       3.170   2.435  17.617  0.00  0.00    +0.000 C 
ATOM     13  C   UNL     1       3.896   3.361  16.653  0.00  0.00    +0.000 C 
ATOM     14  C   UNL     1       4.851   4.254  17.442  0.00  0.00    +0.000 C 
ENDROOT
BRANCH  11  15
ATOM     15  O   UNL     1       2.563   6.452  20.373  0.00  0.00    +0.000 OA
ATOM     16  C   UNL     1       1.592   7.411  20.766  0.00  0.00    +0.000 C 
ENDBRANCH  11  15
BRANCH   1  17
ATOM     17  C   UNL     1       6.999   5.123  16.610  0.00  0.00    +0.000 C 
BRANCH  17  19
ATOM     18  C   UNL     1       6.767   4.463  14.187  0.00  0.00    +0.000 C 
ATOM     19  C   UNL     1       7.728   4.930  15.270  0.00  0.00    +0.000 C 
ENDBRANCH  17  19
ENDBRANCH   1  17
TORSDOF 3
ENDMDL
MODEL 9
REMARK VINA RESULT:      -5.5      9.539     12.409
REMARK  Name = 
REMARK  6 active torsions:
REMARK  status: ('A' for Active; 'I' for Inactive)
REMARK    1  A    between atoms: C_1  and  C_2
REMARK    2  A    between atoms: C_2  and  C_3
REMARK    3  A    between atoms: C_3  and  N_4
REMARK    4  A    between atoms: C_5  and  C_6
REMARK    5  A    between atoms: C_14  and  O_15
REMARK    6  A    between atoms: O_15  and  C_16
REMARK                            x       y       z     vdW  Elec       q    Type
REMARK                         _______ _______ _______ _____ _____    ______ ____
ROOT
ATOM      1  N   UNL     1      -6.466  12.842  19.073  0.00  0.00    +0.000 NA
ATOM      2  C   UNL     1      -6.532  12.656  17.607  0.00  0.00    +0.000 C 
ATOM      3  C   UNL     1      -6.658  14.002  16.899  0.00  0.00    +0.000 C 
ATOM      4  C   UNL     1      -5.263  11.934  17.161  0.00  0.00    +0.000 C 
ATOM      5  C   UNL     1      -4.667  11.325  18.424  0.00  0.00    +0.000 C 
ATOM      6  C   UNL     1      -3.154  11.166  18.409  0.00  0.00    +0.000 A 
ATOM      7  C   UNL     1      -2.358  11.771  19.416  0.00  0.00    +0.000 A 
ATOM      8  C   UNL     1      -0.981  11.520  19.464  0.00  0.00    +0.000 A 
ATOM      9  C   UNL     1      -0.377  10.720  18.502  0.00  0.00    +0.000 A 
ATOM     10  C   UNL     1      -1.139  10.167  17.475  0.00  0.00    +0.000 A 
ATOM     11  C   UNL     1      -2.521  10.380  17.422  0.00  0.00    +0.000 A 
ATOM     12  C   UNL     1      -2.965  12.657  20.471  0.00  0.00    +0.000 C 
ATOM     13  C   UNL     1      -4.257  13.298  19.989  0.00  0.00    +0.000 C 
ATOM     14  C   UNL     1      -5.227  12.202  19.554  0.00  0.00    +0.000 C 
ENDROOT
BRANCH  11  15
ATOM     15  O   UNL     1      -3.341   9.853  16.458  0.00  0.00    +0.000 OA
ATOM     16  C   UNL     1      -2.934   9.984  15.104  0.00  0.00    +0.000 C 
ENDBRANCH  11  15
BRANCH   1  17
ATOM     17  C   UNL     1      -7.680  12.325  19.726  0.00  0.00    +0.000 C 
BRANCH  17  19
ATOM     18  C   UNL     1      -7.651   9.928  20.506  0.00  0.00    +0.000 C 
ATOM     19  C   UNL     1      -7.404  11.376  20.902  0.00  0.00    +0.000 C 
ENDBRANCH  17  19
ENDBRANCH   1  17
TORSDOF 3
ENDMDL
