MODEL 1
REMARK VINA RESULT:      -7.7      0.000      0.000
REMARK  Name = 
REMARK  2 active torsions:
REMARK  status: ('A' for Active; 'I' for Inactive)
REMARK    1  A    between atoms: C_3  and  N_4
REMARK    2  A    between atoms: C_14  and  C_15
REMARK                            x       y       z     vdW  Elec       q    Type
REMARK                         _______ _______ _______ _____ _____    ______ ____
ROOT
ATOM      1  O   UNL     1       1.918   5.880  21.013  0.00  0.00    +0.000 OA
ATOM      2  C   UNL     1       2.065   6.731  20.156  0.00  0.00    +0.000 A 
ATOM      3  C   UNL     1       1.601   8.141  20.296  0.00  0.00    +0.000 A 
ATOM      4  C   UNL     1       1.932   8.721  19.130  0.00  0.00    +0.000 A 
ATOM      5  N   UNL     1       2.649   7.908  18.278  0.00  0.00    +0.000 N 
ATOM      6  N   UNL     1       2.672   6.653  18.906  0.00  0.00    +0.000 N 
ATOM      7  C   UNL     1       3.241   5.513  18.317  0.00  0.00    +0.000 A 
ATOM      8  C   UNL     1       4.129   5.652  17.256  0.00  0.00    +0.000 A 
ATOM      9  C   UNL     1       4.699   4.510  16.679  0.00  0.00    +0.000 A 
ATOM     10  C   UNL     1       4.319   3.255  17.163  0.00  0.00    +0.000 A 
ATOM     11  C   UNL     1       3.430   3.203  18.217  0.00  0.00    +0.000 A 
ATOM     12  N   UNL     1       2.904   4.299  18.798  0.00  0.00    +0.000 NA
ATOM     13  H   UNL     1       2.252   7.888  17.336  0.00  0.00    +0.000 HD
ENDROOT
BRANCH   3  14
ATOM     14  N   UNL     1       0.952   8.700  21.380  0.00  0.00    +0.000 N 
ATOM     15  C   UNL     1      -0.412   8.707  21.627  0.00  0.00    +0.000 A 
ATOM     16  C   UNL     1      -0.579   9.335  22.831  0.00  0.00    +0.000 A 
ATOM     17  N   UNL     1       0.633   9.713  23.308  0.00  0.00    +0.000 NA
ATOM     18  N   UNL     1       1.556   9.327  22.439  0.00  0.00    +0.000 NA
ENDBRANCH   3  14
BRANCH   9  19
ATOM     19  C   UNL     1       5.719   4.624  15.582  0.00  0.00    +0.000 C 
ATOM     20  F   UNL     1       6.924   5.094  16.012  0.00  0.00    +0.000 F 
ATOM     21  F   UNL     1       5.976   3.428  14.986  0.00  0.00    +0.000 F 
ATOM     22  F   UNL     1       5.323   5.464  14.589  0.00  0.00    +0.000 F 
ENDBRANCH   9  19
TORSDOF 2
ENDMDL
MODEL 2
REMARK VINA RESULT:      -7.6      4.349      5.100
REMARK  Name = 
REMARK  2 active torsions:
REMARK  status: ('A' for Active; 'I' for Inactive)
REMARK    1  A    between atoms: C_3  and  N_4
REMARK    2  A    between atoms: C_14  and  C_15
REMARK                            x       y       z     vdW  Elec       q    Type
REMARK                         _______ _______ _______ _____ _____    ______ ____
ROOT
ATOM      1  O   UNL     1       4.410   4.890  18.784  0.00  0.00    +0.000 OA
ATOM      2  C   UNL     1       4.213   3.802  18.277  0.00  0.00    +0.000 A 
ATOM      3  C   UNL     1       3.388   2.730  18.902  0.00  0.00    +0.000 A 
ATOM      4  C   UNL     1       3.457   1.704  18.039  0.00  0.00    +0.000 A 
ATOM      5  N   UNL     1       4.133   1.993  16.872  0.00  0.00    +0.000 N 
ATOM      6  N   UNL     1       4.651   3.284  17.062  0.00  0.00    +0.000 N 
ATOM      7  C   UNL     1       5.482   3.920  16.127  0.00  0.00    +0.000 A 
ATOM      8  C   UNL     1       5.531   3.456  14.816  0.00  0.00    +0.000 A 
ATOM      9  C   UNL     1       6.358   4.102  13.887  0.00  0.00    +0.000 A 
ATOM     10  C   UNL     1       7.146   5.171  14.321  0.00  0.00    +0.000 A 
ATOM     11  C   UNL     1       7.041   5.567  15.639  0.00  0.00    +0.000 A 
ATOM     12  N   UNL     1       6.223   4.972  16.529  0.00  0.00    +0.000 NA
ATOM     13  H   UNL     1       4.847   1.293  16.655  0.00  0.00    +0.000 HD
ENDROOT
BRANCH   3  14
ATOM     14  N   UNL     1       2.729   2.789  20.116  0.00  0.00    +0.000 N 
ATOM     15  C   UNL     1       1.373   2.991  20.323  0.00  0.00    +0.000 A 
ATOM     16  C   UNL     1       1.181   2.931  21.677  0.00  0.00    +0.000 A 
ATOM     17  N   UNL     1       2.372   2.712  22.287  0.00  0.00    +0.000 NA
ATOM     18  N   UNL     1       3.305   2.620  21.349  0.00  0.00    +0.000 NA
ENDBRANCH   3  14
BRANCH   9  19
ATOM     19  C   UNL     1       6.380   3.678  12.446  0.00  0.00    +0.000 C 
ATOM     20  F   UNL     1       7.211   4.432  11.673  0.00  0.00    +0.000 F 
ATOM     21  F   UNL     1       6.791   2.391  12.291  0.00  0.00    +0.000 F 
ATOM     22  F   UNL     1       5.153   3.756  11.863  0.00  0.00    +0.000 F 
ENDBRANCH   9  19
TORSDOF 2
ENDMDL
MODEL 3
REMARK VINA RESULT:      -7.5      4.512      7.758
REMARK  Name = 
REMARK  2 active torsions:
REMARK  status: ('A' for Active; 'I' for Inactive)
REMARK    1  A    between atoms: C_3  and  N_4
REMARK    2  A    between atoms: C_14  and  C_15
REMARK                            x       y       z     vdW  Elec       q    Type
REMARK                         _______ _______ _______ _____ _____    ______ ____
ROOT
ATOM      1  O   UNL     1       5.407   6.631  16.139  0.00  0.00    +0.000 OA
ATOM      2  C   UNL     1       5.317   5.418  16.177  0.00  0.00    +0.000 A 
ATOM      3  C   UNL     1       6.031   4.502  15.244  0.00  0.00    +0.000 A 
ATOM      4  C   UNL     1       5.635   3.272  15.610  0.00  0.00    +0.000 A 
ATOM      5  N   UNL     1       4.833   3.247  16.732  0.00  0.00    +0.000 N 
ATOM      6  N   UNL     1       4.595   4.597  17.038  0.00  0.00    +0.000 N 
ATOM      7  C   UNL     1       3.744   5.007  18.076  0.00  0.00    +0.000 A 
ATOM      8  C   UNL     1       3.391   4.109  19.078  0.00  0.00    +0.000 A 
ATOM      9  C   UNL     1       2.548   4.529  20.115  0.00  0.00    +0.000 A 
ATOM     10  C   UNL     1       2.048   5.834  20.085  0.00  0.00    +0.000 A 
ATOM     11  C   UNL     1       2.445   6.661  19.054  0.00  0.00    +0.000 A 
ATOM     12  N   UNL     1       3.282   6.274  18.072  0.00  0.00    +0.000 NA
ATOM     13  H   UNL     1       3.980   2.704  16.587  0.00  0.00    +0.000 HD
ENDROOT
BRANCH   3  14
ATOM     14  N   UNL     1       6.887   4.859  14.219  0.00  0.00    +0.000 N 
ATOM     15  C   UNL     1       6.791   4.496  12.885  0.00  0.00    +0.000 A 
ATOM     16  C   UNL     1       7.830   5.116  12.245  0.00  0.00    +0.000 A 
ATOM     17  N   UNL     1       8.549   5.827  13.149  0.00  0.00    +0.000 NA
ATOM     18  N   UNL     1       7.980   5.679  14.337  0.00  0.00    +0.000 NA
ENDBRANCH   3  14
BRANCH   9  19
ATOM     19  C   UNL     1       2.207   3.611  21.254  0.00  0.00    +0.000 C 
ATOM     20  F   UNL     1       2.928   2.455  21.251  0.00  0.00    +0.000 F 
ATOM     21  F   UNL     1       2.428   4.186  22.467  0.00  0.00    +0.000 F 
ATOM     22  F   UNL     1       0.900   3.236  21.246  0.00  0.00    +0.000 F 
ENDBRANCH   9  19
TORSDOF 2
ENDMDL
MODEL 4
REMARK VINA RESULT:      -7.5      4.550      7.613
REMARK  Name = 
REMARK  2 active torsions:
REMARK  status: ('A' for Active; 'I' for Inactive)
REMARK    1  A    between atoms: C_3  and  N_4
REMARK    2  A    between atoms: C_14  and  C_15
REMARK                            x       y       z     vdW  Elec       q    Type
REMARK                         _______ _______ _______ _____ _____    ______ ____
ROOT
ATOM      1  O   UNL     1       4.112   7.508  17.044  0.00  0.00    +0.000 OA
ATOM      2  C   UNL     1       3.926   6.757  17.983  0.00  0.00    +0.000 A 
ATOM      3  C   UNL     1       4.675   5.486  18.194  0.00  0.00    +0.000 A 
ATOM      4  C   UNL     1       4.143   4.963  19.311  0.00  0.00    +0.000 A 
ATOM      5  N   UNL     1       3.212   5.773  19.927  0.00  0.00    +0.000 N 
ATOM      6  N   UNL     1       3.044   6.861  19.055  0.00  0.00    +0.000 N 
ATOM      7  C   UNL     1       2.109   7.883  19.279  0.00  0.00    +0.000 A 
ATOM      8  C   UNL     1       1.569   8.061  20.549  0.00  0.00    +0.000 A 
ATOM      9  C   UNL     1       0.642   9.089  20.766  0.00  0.00    +0.000 A 
ATOM     10  C   UNL     1       0.252   9.879  19.681  0.00  0.00    +0.000 A 
ATOM     11  C   UNL     1       0.832   9.635  18.453  0.00  0.00    +0.000 A 
ATOM     12  N   UNL     1       1.749   8.670  18.245  0.00  0.00    +0.000 NA
ATOM     13  H   UNL     1       2.343   5.276  20.135  0.00  0.00    +0.000 HD
ENDROOT
BRANCH   3  14
ATOM     14  N   UNL     1       5.672   4.965  17.391  0.00  0.00    +0.000 N 
ATOM     15  C   UNL     1       5.527   4.415  16.127  0.00  0.00    +0.000 A 
ATOM     16  C   UNL     1       6.786   4.074  15.713  0.00  0.00    +0.000 A 
ATOM     17  N   UNL     1       7.676   4.389  16.686  0.00  0.00    +0.000 NA
ATOM     18  N   UNL     1       7.008   4.931  17.695  0.00  0.00    +0.000 NA
ENDBRANCH   3  14
BRANCH   9  19
ATOM     19  C   UNL     1       0.097   9.361  22.139  0.00  0.00    +0.000 C 
ATOM     20  F   UNL     1      -0.450  10.602  22.267  0.00  0.00    +0.000 F 
ATOM     21  F   UNL     1      -0.882   8.484  22.491  0.00  0.00    +0.000 F 
ATOM     22  F   UNL     1       1.050   9.271  23.104  0.00  0.00    +0.000 F 
ENDBRANCH   9  19
TORSDOF 2
ENDMDL
MODEL 5
REMARK VINA RESULT:      -7.3      1.625      2.046
REMARK  Name = 
REMARK  2 active torsions:
REMARK  status: ('A' for Active; 'I' for Inactive)
REMARK    1  A    between atoms: C_3  and  N_4
REMARK    2  A    between atoms: C_14  and  C_15
REMARK                            x       y       z     vdW  Elec       q    Type
REMARK                         _______ _______ _______ _____ _____    ______ ____
ROOT
ATOM      1  O   UNL     1       1.318   7.791  21.247  0.00  0.00    +0.000 OA
ATOM      2  C   UNL     1       1.372   8.505  20.263  0.00  0.00    +0.000 A 
ATOM      3  C   UNL     1       0.761   9.862  20.185  0.00  0.00    +0.000 A 
ATOM      4  C   UNL     1       1.026  10.279  18.936  0.00  0.00    +0.000 A 
ATOM      5  N   UNL     1       1.825   9.420  18.211  0.00  0.00    +0.000 N 
ATOM      6  N   UNL     1       1.982   8.291  19.030  0.00  0.00    +0.000 N 
ATOM      7  C   UNL     1       2.668   7.138  18.620  0.00  0.00    +0.000 A 
ATOM      8  C   UNL     1       3.534   7.197  17.533  0.00  0.00    +0.000 A 
ATOM      9  C   UNL     1       4.221   6.043  17.135  0.00  0.00    +0.000 A 
ATOM     10  C   UNL     1       3.978   4.849  17.819  0.00  0.00    +0.000 A 
ATOM     11  C   UNL     1       3.101   4.874  18.885  0.00  0.00    +0.000 A 
ATOM     12  N   UNL     1       2.463   5.988  19.294  0.00  0.00    +0.000 NA
ATOM     13  H   UNL     1       1.430   9.208  17.292  0.00  0.00    +0.000 HD
ENDROOT
BRANCH   3  14
ATOM     14  N   UNL     1       0.058  10.516  21.179  0.00  0.00    +0.000 N 
ATOM     15  C   UNL     1      -0.999  11.398  21.014  0.00  0.00    +0.000 A 
ATOM     16  C   UNL     1      -1.396  11.756  22.274  0.00  0.00    +0.000 A 
ATOM     17  N   UNL     1      -0.609  11.131  23.184  0.00  0.00    +0.000 NA
ATOM     18  N   UNL     1       0.263  10.380  22.528  0.00  0.00    +0.000 NA
ENDBRANCH   3  14
BRANCH   9  19
ATOM     19  C   UNL     1       5.222   6.087  16.015  0.00  0.00    +0.000 C 
ATOM     20  F   UNL     1       4.912   6.995  15.048  0.00  0.00    +0.000 F 
ATOM     21  F   UNL     1       6.470   6.414  16.448  0.00  0.00    +0.000 F 
ATOM     22  F   UNL     1       5.344   4.890  15.380  0.00  0.00    +0.000 F 
ENDBRANCH   9  19
TORSDOF 2
ENDMDL
MODEL 6
REMARK VINA RESULT:      -7.3      4.640      7.678
REMARK  Name = 
REMARK  2 active torsions:
REMARK  status: ('A' for Active; 'I' for Inactive)
REMARK    1  A    between atoms: C_3  and  N_4
REMARK    2  A    between atoms: C_14  and  C_15
REMARK                            x       y       z     vdW  Elec       q    Type
REMARK                         _______ _______ _______ _____ _____    ______ ____
ROOT
ATOM      1  O   UNL     1       3.689   8.010  16.827  0.00  0.00    +0.000 OA
ATOM      2  C   UNL     1       3.631   7.225  17.755  0.00  0.00    +0.000 A 
ATOM      3  C   UNL     1       4.473   6.000  17.862  0.00  0.00    +0.000 A 
ATOM      4  C   UNL     1       4.073   5.416  19.004  0.00  0.00    +0.000 A 
ATOM      5  N   UNL     1       3.151   6.149  19.721  0.00  0.00    +0.000 N 
ATOM      6  N   UNL     1       2.841   7.245  18.900  0.00  0.00    +0.000 N 
ATOM      7  C   UNL     1       1.867   8.199  19.234  0.00  0.00    +0.000 A 
ATOM      8  C   UNL     1       1.429   8.310  20.550  0.00  0.00    +0.000 A 
ATOM      9  C   UNL     1       0.462   9.270  20.875  0.00  0.00    +0.000 A 
ATOM     10  C   UNL     1      -0.068  10.061  19.852  0.00  0.00    +0.000 A 
ATOM     11  C   UNL     1       0.418   9.885  18.572  0.00  0.00    +0.000 A 
ATOM     12  N   UNL     1       1.371   8.987  18.258  0.00  0.00    +0.000 NA
ATOM     13  H   UNL     1       2.336   5.592  19.986  0.00  0.00    +0.000 HD
ENDROOT
BRANCH   3  14
ATOM     14  N   UNL     1       5.428   5.565  16.963  0.00  0.00    +0.000 N 
ATOM     15  C   UNL     1       5.458   4.349  16.297  0.00  0.00    +0.000 A 
ATOM     16  C   UNL     1       6.561   4.384  15.488  0.00  0.00    +0.000 A 
ATOM     17  N   UNL     1       7.197   5.571  15.654  0.00  0.00    +0.000 NA
ATOM     18  N   UNL     1       6.514   6.285  16.536  0.00  0.00    +0.000 NA
ENDBRANCH   3  14
BRANCH   9  19
ATOM     19  C   UNL     1       0.022   9.472  22.298  0.00  0.00    +0.000 C 
ATOM     20  F   UNL     1       1.036   9.352  23.200  0.00  0.00    +0.000 F 
ATOM     21  F   UNL     1      -0.517  10.705  22.503  0.00  0.00    +0.000 F 
ATOM     22  F   UNL     1      -0.928   8.576  22.679  0.00  0.00    +0.000 F 
ENDBRANCH   9  19
TORSDOF 2
ENDMDL
MODEL 7
REMARK VINA RESULT:      -7.2      2.708      3.286
REMARK  Name = 
REMARK  2 active torsions:
REMARK  status: ('A' for Active; 'I' for Inactive)
REMARK    1  A    between atoms: C_3  and  N_4
REMARK    2  A    between atoms: C_14  and  C_15
REMARK                            x       y       z     vdW  Elec       q    Type
REMARK                         _______ _______ _______ _____ _____    ______ ____
ROOT
ATOM      1  O   UNL     1       2.159   8.845  17.996  0.00  0.00    +0.000 OA
ATOM      2  C   UNL     1       1.962   8.301  19.066  0.00  0.00    +0.000 A 
ATOM      3  C   UNL     1       1.253   8.945  20.208  0.00  0.00    +0.000 A 
ATOM      4  C   UNL     1       1.282   8.023  21.185  0.00  0.00    +0.000 A 
ATOM      5  N   UNL     1       1.824   6.814  20.804  0.00  0.00    +0.000 N 
ATOM      6  N   UNL     1       2.299   7.022  19.499  0.00  0.00    +0.000 N 
ATOM      7  C   UNL     1       3.002   6.047  18.776  0.00  0.00    +0.000 A 
ATOM      8  C   UNL     1       2.941   4.714  19.171  0.00  0.00    +0.000 A 
ATOM      9  C   UNL     1       3.640   3.746  18.438  0.00  0.00    +0.000 A 
ATOM     10  C   UNL     1       4.419   4.159  17.354  0.00  0.00    +0.000 A 
ATOM     11  C   UNL     1       4.428   5.501  17.030  0.00  0.00    +0.000 A 
ATOM     12  N   UNL     1       3.732   6.432  17.710  0.00  0.00    +0.000 NA
ATOM     13  H   UNL     1       2.544   6.490  21.455  0.00  0.00    +0.000 HD
ENDROOT
BRANCH   3  14
ATOM     14  N   UNL     1       0.717  10.218  20.243  0.00  0.00    +0.000 N 
ATOM     15  C   UNL     1      -0.304  10.719  19.451  0.00  0.00    +0.000 A 
ATOM     16  C   UNL     1      -0.519  12.003  19.872  0.00  0.00    +0.000 A 
ATOM     17  N   UNL     1       0.343  12.292  20.878  0.00  0.00    +0.000 NA
ATOM     18  N   UNL     1       1.084  11.218  21.107  0.00  0.00    +0.000 NA
ENDBRANCH   3  14
BRANCH   9  19
ATOM     19  C   UNL     1       3.537   2.288  18.788  0.00  0.00    +0.000 C 
ATOM     20  F   UNL     1       3.632   1.465  17.707  0.00  0.00    +0.000 F 
ATOM     21  F   UNL     1       4.514   1.891  19.647  0.00  0.00    +0.000 F 
ATOM     22  F   UNL     1       2.357   1.981  19.390  0.00  0.00    +0.000 F 
ENDBRANCH   9  19
TORSDOF 2
ENDMDL
MODEL 8
REMARK VINA RESULT:      -7.2      4.653      7.715
REMARK  Name = 
REMARK  2 active torsions:
REMARK  status: ('A' for Active; 'I' for Inactive)
REMARK    1  A    between atoms: C_3  and  N_4
REMARK    2  A    between atoms: C_14  and  C_15
REMARK                            x       y       z     vdW  Elec       q    Type
REMARK                         _______ _______ _______ _____ _____    ______ ____
ROOT
ATOM      1  O   UNL     1       3.702   7.670  17.287  0.00  0.00    +0.000 OA
ATOM      2  C   UNL     1       3.495   6.895  18.202  0.00  0.00    +0.000 A 
ATOM      3  C   UNL     1       4.154   5.565  18.331  0.00  0.00    +0.000 A 
ATOM      4  C   UNL     1       3.627   5.035  19.446  0.00  0.00    +0.000 A 
ATOM      5  N   UNL     1       2.783   5.884  20.131  0.00  0.00    +0.000 N 
ATOM      6  N   UNL     1       2.663   7.017  19.311  0.00  0.00    +0.000 N 
ATOM      7  C   UNL     1       1.816   8.094  19.613  0.00  0.00    +0.000 A 
ATOM      8  C   UNL     1       1.338   8.257  20.910  0.00  0.00    +0.000 A 
ATOM      9  C   UNL     1       0.499   9.339  21.205  0.00  0.00    +0.000 A 
ATOM     10  C   UNL     1       0.129  10.201  20.169  0.00  0.00    +0.000 A 
ATOM     11  C   UNL     1       0.643   9.968  18.910  0.00  0.00    +0.000 A 
ATOM     12  N   UNL     1       1.477   8.949  18.627  0.00  0.00    +0.000 NA
ATOM     13  H   UNL     1       1.887   5.443  20.354  0.00  0.00    +0.000 HD
ENDROOT
BRANCH   3  14
ATOM     14  N   UNL     1       5.080   5.008  17.469  0.00  0.00    +0.000 N 
ATOM     15  C   UNL     1       6.444   5.251  17.434  0.00  0.00    +0.000 A 
ATOM     16  C   UNL     1       6.949   4.448  16.448  0.00  0.00    +0.000 A 
ATOM     17  N   UNL     1       5.937   3.744  15.884  0.00  0.00    +0.000 NA
ATOM     18  N   UNL     1       4.811   4.075  16.501  0.00  0.00    +0.000 NA
ENDBRANCH   3  14
BRANCH   9  19
ATOM     19  C   UNL     1       0.027   9.591  22.608  0.00  0.00    +0.000 C 
ATOM     20  F   UNL     1      -1.017   8.796  22.978  0.00  0.00    +0.000 F 
ATOM     21  F   UNL     1       1.004   9.376  23.531  0.00  0.00    +0.000 F 
ATOM     22  F   UNL     1      -0.393  10.871  22.794  0.00  0.00    +0.000 F 
ENDBRANCH   9  19
TORSDOF 2
ENDMDL
MODEL 9
REMARK VINA RESULT:      -7.2      2.965      3.611
REMARK  Name = 
REMARK  2 active torsions:
REMARK  status: ('A' for Active; 'I' for Inactive)
REMARK    1  A    between atoms: C_3  and  N_4
REMARK    2  A    between atoms: C_14  and  C_15
REMARK                            x       y       z     vdW  Elec       q    Type
REMARK                         _______ _______ _______ _____ _____    ______ ____
ROOT
ATOM      1  O   UNL     1       2.217   8.820  17.423  0.00  0.00    +0.000 OA
ATOM      2  C   UNL     1       2.013   8.411  18.550  0.00  0.00    +0.000 A 
ATOM      3  C   UNL     1       1.270   9.175  19.591  0.00  0.00    +0.000 A 
ATOM      4  C   UNL     1       1.302   8.386  20.677  0.00  0.00    +0.000 A 
ATOM      5  N   UNL     1       1.877   7.151  20.461  0.00  0.00    +0.000 N 
ATOM      6  N   UNL     1       2.370   7.205  19.147  0.00  0.00    +0.000 N 
ATOM      7  C   UNL     1       3.108   6.164  18.563  0.00  0.00    +0.000 A 
ATOM      8  C   UNL     1       3.069   4.890  19.122  0.00  0.00    +0.000 A 
ATOM      9  C   UNL     1       3.803   3.854  18.529  0.00  0.00    +0.000 A 
ATOM     10  C   UNL     1       4.591   4.146  17.412  0.00  0.00    +0.000 A 
ATOM     11  C   UNL     1       4.576   5.436  16.922  0.00  0.00    +0.000 A 
ATOM     12  N   UNL     1       3.847   6.429  17.468  0.00  0.00    +0.000 NA
ATOM     13  H   UNL     1       2.592   6.930  21.157  0.00  0.00    +0.000 HD
ENDROOT
BRANCH   3  14
ATOM     14  N   UNL     1       0.705  10.430  19.457  0.00  0.00    +0.000 N 
ATOM     15  C   UNL     1       1.124  11.605  20.060  0.00  0.00    +0.000 A 
ATOM     16  C   UNL     1       0.289  12.588  19.602  0.00  0.00    +0.000 A 
ATOM     17  N   UNL     1      -0.620  12.042  18.757  0.00  0.00    +0.000 NA
ATOM     18  N   UNL     1      -0.368  10.744  18.664  0.00  0.00    +0.000 NA
ENDBRANCH   3  14
BRANCH   9  19
ATOM     19  C   UNL     1       3.725   2.451  19.058  0.00  0.00    +0.000 C 
ATOM     20  F   UNL     1       3.741   1.502  18.080  0.00  0.00    +0.000 F 
ATOM     21  F   UNL     1       4.764   2.151  19.885  0.00  0.00    +0.000 F 
ATOM     22  F   UNL     1       2.593   2.228  19.778  0.00  0.00    +0.000 F 
ENDBRANCH   9  19
TORSDOF 2
ENDMDL
