MODEL 1
REMARK VINA RESULT:      -7.8      0.000      0.000
REMARK  Name = 
REMARK  7 active torsions:
REMARK  status: ('A' for Active; 'I' for Inactive)
REMARK    1  A    between atoms: C_1  and  N_2
REMARK    2  A    between atoms: N_2  and  C_3
REMARK    3  A    between atoms: N_2  and  C_17
REMARK    4  A    between atoms: C_3  and  C_4
REMARK    5  A    between atoms: N_6  and  S_7
REMARK    6  A    between atoms: S_7  and  C_10
REMARK    7  A    between atoms: C_17  and  C_18
REMARK                            x       y       z     vdW  Elec       q    Type
REMARK                         _______ _______ _______ _____ _____    ______ ____
ROOT
ATOM      1  C   UNL     1       6.182   4.595  18.632  0.00  0.00    +0.000 C 
ATOM      2  O   UNL     1       5.978   5.218  19.671  0.00  0.00    +0.000 OA
ATOM      3  N   UNL     1       5.229   3.721  18.081  0.00  0.00    +0.000 N 
ATOM      4  H   UNL     1       5.375   3.271  17.183  0.00  0.00    +0.000 HD
ENDROOT
BRANCH   3   5
ATOM      5  S   UNL     1       3.761   3.379  18.788  0.00  0.00    +0.000 S 
ATOM      6  O   UNL     1       2.990   2.673  17.786  0.00  0.00    +0.000 OA
ATOM      7  O   UNL     1       4.005   2.798  20.089  0.00  0.00    +0.000 OA
BRANCH   5   8
ATOM      8  C   UNL     1       3.014   4.978  18.989  0.00  0.00    +0.000 A 
ATOM      9  C   UNL     1       3.029   5.881  17.919  0.00  0.00    +0.000 A 
ATOM     10  C   UNL     1       2.564   7.180  18.118  0.00  0.00    +0.000 A 
ATOM     11  C   UNL     1       2.082   7.555  19.370  0.00  0.00    +0.000 A 
ATOM     12  F   UNL     1       1.668   8.814  19.564  0.00  0.00    +0.000 F 
ATOM     13  C   UNL     1       2.037   6.650  20.428  0.00  0.00    +0.000 A 
ATOM     14  C   UNL     1       2.498   5.349  20.238  0.00  0.00    +0.000 A 
ENDBRANCH   5   8
ENDBRANCH   3   5
BRANCH   1  15
ATOM     15  C   UNL     1       7.498   4.744  17.866  0.00  0.00    +0.000 C 
BRANCH  15  17
ATOM     16  C   UNL     1       7.322   7.113  17.375  0.00  0.00    +0.000 C 
ATOM     17  N   UNL     1       7.394   5.760  16.792  0.00  0.00    +0.000 NA
BRANCH  17  18
ATOM     18  C   UNL     1       6.190   5.498  15.967  0.00  0.00    +0.000 C 
BRANCH  18  19
ATOM     19  C   UNL     1       6.532   4.927  14.601  0.00  0.00    +0.000 A 
ATOM     20  C   UNL     1       7.596   5.457  13.858  0.00  0.00    +0.000 A 
ATOM     21  C   UNL     1       7.824   5.038  12.546  0.00  0.00    +0.000 A 
ATOM     22  C   UNL     1       6.996   4.077  11.967  0.00  0.00    +0.000 A 
ATOM     23  C   UNL     1       5.965   3.509  12.711  0.00  0.00    +0.000 A 
ATOM     24  C   UNL     1       5.739   3.921  14.026  0.00  0.00    +0.000 A 
ENDBRANCH  18  19
ENDBRANCH  17  18
ENDBRANCH  15  17
ENDBRANCH   1  15
TORSDOF 6
ENDMDL
MODEL 2
REMARK VINA RESULT:      -7.8      0.371      1.073
REMARK  Name = 
REMARK  7 active torsions:
REMARK  status: ('A' for Active; 'I' for Inactive)
REMARK    1  A    between atoms: C_1  and  N_2
REMARK    2  A    between atoms: N_2  and  C_3
REMARK    3  A    between atoms: N_2  and  C_17
REMARK    4  A    between atoms: C_3  and  C_4
REMARK    5  A    between atoms: N_6  and  S_7
REMARK    6  A    between atoms: S_7  and  C_10
REMARK    7  A    between atoms: C_17  and  C_18
REMARK                            x       y       z     vdW  Elec       q    Type
REMARK                         _______ _______ _______ _____ _____    ______ ____
ROOT
ATOM      1  C   UNL     1       6.296   4.386  18.285  0.00  0.00    +0.000 C 
ATOM      2  O   UNL     1       6.336   4.734  19.463  0.00  0.00    +0.000 OA
ATOM      3  N   UNL     1       5.154   3.797  17.715  0.00  0.00    +0.000 N 
ATOM      4  H   UNL     1       5.102   3.584  16.724  0.00  0.00    +0.000 HD
ENDROOT
BRANCH   3   5
ATOM      5  S   UNL     1       3.766   3.445  18.564  0.00  0.00    +0.000 S 
ATOM      6  O   UNL     1       2.838   2.890  17.601  0.00  0.00    +0.000 OA
ATOM      7  O   UNL     1       4.132   2.713  19.755  0.00  0.00    +0.000 OA
BRANCH   5   8
ATOM      8  C   UNL     1       3.144   5.044  19.025  0.00  0.00    +0.000 A 
ATOM      9  C   UNL     1       2.527   5.207  20.272  0.00  0.00    +0.000 A 
ATOM     10  C   UNL     1       1.920   6.424  20.577  0.00  0.00    +0.000 A 
ATOM     11  C   UNL     1       1.947   7.460  19.646  0.00  0.00    +0.000 A 
ATOM     12  F   UNL     1       1.333   8.615  19.933  0.00  0.00    +0.000 F 
ATOM     13  C   UNL     1       2.585   7.311  18.418  0.00  0.00    +0.000 A 
ATOM     14  C   UNL     1       3.196   6.098  18.104  0.00  0.00    +0.000 A 
ENDBRANCH   5   8
ENDBRANCH   3   5
BRANCH   1  15
ATOM     15  C   UNL     1       7.498   4.585  17.360  0.00  0.00    +0.000 C 
BRANCH  15  17
ATOM     16  C   UNL     1       7.317   7.000  17.508  0.00  0.00    +0.000 C 
ATOM     17  N   UNL     1       7.394   5.847  16.590  0.00  0.00    +0.000 NA
BRANCH  17  18
ATOM     18  C   UNL     1       6.192   5.809  15.721  0.00  0.00    +0.000 C 
BRANCH  18  19
ATOM     19  C   UNL     1       6.410   4.993  14.459  0.00  0.00    +0.000 A 
ATOM     20  C   UNL     1       7.507   5.255  13.627  0.00  0.00    +0.000 A 
ATOM     21  C   UNL     1       7.634   4.611  12.395  0.00  0.00    +0.000 A 
ATOM     22  C   UNL     1       6.671   3.689  11.987  0.00  0.00    +0.000 A 
ATOM     23  C   UNL     1       5.601   3.385  12.826  0.00  0.00    +0.000 A 
ATOM     24  C   UNL     1       5.476   4.023  14.062  0.00  0.00    +0.000 A 
ENDBRANCH  18  19
ENDBRANCH  17  18
ENDBRANCH  15  17
ENDBRANCH   1  15
TORSDOF 6
ENDMDL
MODEL 3
REMARK VINA RESULT:      -7.5      3.152      6.473
REMARK  Name = 
REMARK  7 active torsions:
REMARK  status: ('A' for Active; 'I' for Inactive)
REMARK    1  A    between atoms: C_1  and  N_2
REMARK    2  A    between atoms: N_2  and  C_3
REMARK    3  A    between atoms: N_2  and  C_17
REMARK    4  A    between atoms: C_3  and  C_4
REMARK    5  A    between atoms: N_6  and  S_7
REMARK    6  A    between atoms: S_7  and  C_10
REMARK    7  A    between atoms: C_17  and  C_18
REMARK                            x       y       z     vdW  Elec       q    Type
REMARK                         _______ _______ _______ _____ _____    ______ ____
ROOT
ATOM      1  C   UNL     1       5.239   5.762  18.746  0.00  0.00    +0.000 C 
ATOM      2  O   UNL     1       6.097   5.504  19.586  0.00  0.00    +0.000 OA
ATOM      3  N   UNL     1       5.512   5.759  17.368  0.00  0.00    +0.000 N 
ATOM      4  H   UNL     1       4.779   5.897  16.678  0.00  0.00    +0.000 HD
ENDROOT
BRANCH   3   5
ATOM      5  S   UNL     1       7.018   5.471  16.718  0.00  0.00    +0.000 S 
ATOM      6  O   UNL     1       7.639   6.770  16.561  0.00  0.00    +0.000 OA
ATOM      7  O   UNL     1       7.655   4.427  17.486  0.00  0.00    +0.000 OA
BRANCH   5   8
ATOM      8  C   UNL     1       6.658   4.867  15.087  0.00  0.00    +0.000 A 
ATOM      9  C   UNL     1       5.510   4.092  14.880  0.00  0.00    +0.000 A 
ATOM     10  C   UNL     1       5.299   3.506  13.633  0.00  0.00    +0.000 A 
ATOM     11  C   UNL     1       6.224   3.709  12.611  0.00  0.00    +0.000 A 
ATOM     12  F   UNL     1       6.033   3.116  11.426  0.00  0.00    +0.000 F 
ATOM     13  C   UNL     1       7.351   4.503  12.805  0.00  0.00    +0.000 A 
ATOM     14  C   UNL     1       7.570   5.095  14.048  0.00  0.00    +0.000 A 
ENDBRANCH   5   8
ENDBRANCH   3   5
BRANCH   1  15
ATOM     15  C   UNL     1       3.805   6.101  19.159  0.00  0.00    +0.000 C 
BRANCH  15  17
ATOM     16  C   UNL     1       2.758   8.036  18.137  0.00  0.00    +0.000 C 
ATOM     17  N   UNL     1       3.005   6.587  18.010  0.00  0.00    +0.000 NA
BRANCH  17  18
ATOM     18  C   UNL     1       1.717   5.856  17.948  0.00  0.00    +0.000 C 
BRANCH  18  19
ATOM     19  C   UNL     1       1.851   4.401  18.362  0.00  0.00    +0.000 A 
ATOM     20  C   UNL     1       2.457   3.473  17.503  0.00  0.00    +0.000 A 
ATOM     21  C   UNL     1       2.454   2.112  17.812  0.00  0.00    +0.000 A 
ATOM     22  C   UNL     1       1.853   1.665  18.989  0.00  0.00    +0.000 A 
ATOM     23  C   UNL     1       1.290   2.582  19.873  0.00  0.00    +0.000 A 
ATOM     24  C   UNL     1       1.298   3.944  19.570  0.00  0.00    +0.000 A 
ENDBRANCH  18  19
ENDBRANCH  17  18
ENDBRANCH  15  17
ENDBRANCH   1  15
TORSDOF 6
ENDMDL
MODEL 4
REMARK VINA RESULT:      -7.4      3.134      6.361
REMARK  Name = 
REMARK  7 active torsions:
REMARK  status: ('A' for Active; 'I' for Inactive)
REMARK    1  A    between atoms: C_1  and  N_2
REMARK    2  A    between atoms: N_2  and  C_3
REMARK    3  A    between atoms: N_2  and  C_17
REMARK    4  A    between atoms: C_3  and  C_4
REMARK    5  A    between atoms: N_6  and  S_7
REMARK    6  A    between atoms: S_7  and  C_10
REMARK    7  A    between atoms: C_17  and  C_18
REMARK                            x       y       z     vdW  Elec       q    Type
REMARK                         _______ _______ _______ _____ _____    ______ ____
ROOT
ATOM      1  C   UNL     1       5.165   5.444  18.696  0.00  0.00    +0.000 C 
ATOM      2  O   UNL     1       5.698   4.446  19.175  0.00  0.00    +0.000 OA
ATOM      3  N   UNL     1       5.723   6.148  17.615  0.00  0.00    +0.000 N 
ATOM      4  H   UNL     1       5.238   6.924  17.176  0.00  0.00    +0.000 HD
ENDROOT
BRANCH   3   5
ATOM      5  S   UNL     1       7.179   5.761  16.905  0.00  0.00    +0.000 S 
ATOM      6  O   UNL     1       7.826   7.022  16.608  0.00  0.00    +0.000 OA
ATOM      7  O   UNL     1       7.831   4.759  17.716  0.00  0.00    +0.000 OA
BRANCH   5   8
ATOM      8  C   UNL     1       6.705   5.042  15.351  0.00  0.00    +0.000 A 
ATOM      9  C   UNL     1       5.577   4.214  15.294  0.00  0.00    +0.000 A 
ATOM     10  C   UNL     1       5.284   3.543  14.107  0.00  0.00    +0.000 A 
ATOM     11  C   UNL     1       6.107   3.716  12.997  0.00  0.00    +0.000 A 
ATOM     12  F   UNL     1       5.839   3.043  11.870  0.00  0.00    +0.000 F 
ATOM     13  C   UNL     1       7.212   4.561  13.042  0.00  0.00    +0.000 A 
ATOM     14  C   UNL     1       7.513   5.238  14.223  0.00  0.00    +0.000 A 
ENDBRANCH   5   8
ENDBRANCH   3   5
BRANCH   1  15
ATOM     15  C   UNL     1       3.844   5.980  19.252  0.00  0.00    +0.000 C 
BRANCH  15  17
ATOM     16  C   UNL     1       2.697   7.899  18.311  0.00  0.00    +0.000 C 
ATOM     17  N   UNL     1       2.947   6.452  18.171  0.00  0.00    +0.000 NA
BRANCH  17  18
ATOM     18  C   UNL     1       1.665   5.709  18.221  0.00  0.00    +0.000 C 
BRANCH  18  19
ATOM     19  C   UNL     1       1.864   4.211  18.372  0.00  0.00    +0.000 A 
ATOM     20  C   UNL     1       1.458   3.556  19.543  0.00  0.00    +0.000 A 
ATOM     21  C   UNL     1       1.768   2.211  19.749  0.00  0.00    +0.000 A 
ATOM     22  C   UNL     1       2.480   1.503  18.782  0.00  0.00    +0.000 A 
ATOM     23  C   UNL     1       2.848   2.129  17.593  0.00  0.00    +0.000 A 
ATOM     24  C   UNL     1       2.533   3.473  17.382  0.00  0.00    +0.000 A 
ENDBRANCH  18  19
ENDBRANCH  17  18
ENDBRANCH  15  17
ENDBRANCH   1  15
TORSDOF 6
ENDMDL
MODEL 5
REMARK VINA RESULT:      -7.4      2.960      6.876
REMARK  Name = 
REMARK  7 active torsions:
REMARK  status: ('A' for Active; 'I' for Inactive)
REMARK    1  A    between atoms: C_1  and  N_2
REMARK    2  A    between atoms: N_2  and  C_3
REMARK    3  A    between atoms: N_2  and  C_17
REMARK    4  A    between atoms: C_3  and  C_4
REMARK    5  A    between atoms: N_6  and  S_7
REMARK    6  A    between atoms: S_7  and  C_10
REMARK    7  A    between atoms: C_17  and  C_18
REMARK                            x       y       z     vdW  Elec       q    Type
REMARK                         _______ _______ _______ _____ _____    ______ ____
ROOT
ATOM      1  C   UNL     1       5.335   4.635  18.904  0.00  0.00    +0.000 C 
ATOM      2  O   UNL     1       6.107   5.137  19.718  0.00  0.00    +0.000 OA
ATOM      3  N   UNL     1       5.652   4.522  17.540  0.00  0.00    +0.000 N 
ATOM      4  H   UNL     1       5.043   4.036  16.889  0.00  0.00    +0.000 HD
ENDROOT
BRANCH   3   5
ATOM      5  S   UNL     1       7.057   5.100  16.860  0.00  0.00    +0.000 S 
ATOM      6  O   UNL     1       6.962   6.544  16.915  0.00  0.00    +0.000 OA
ATOM      7  O   UNL     1       8.174   4.402  17.454  0.00  0.00    +0.000 OA
BRANCH   5   8
ATOM      8  C   UNL     1       6.915   4.635  15.151  0.00  0.00    +0.000 A 
ATOM      9  C   UNL     1       7.783   5.204  14.211  0.00  0.00    +0.000 A 
ATOM     10  C   UNL     1       7.586   4.943  12.856  0.00  0.00    +0.000 A 
ATOM     11  C   UNL     1       6.539   4.113  12.460  0.00  0.00    +0.000 A 
ATOM     12  F   UNL     1       6.334   3.893  11.155  0.00  0.00    +0.000 F 
ATOM     13  C   UNL     1       5.692   3.522  13.394  0.00  0.00    +0.000 A 
ATOM     14  C   UNL     1       5.883   3.776  14.752  0.00  0.00    +0.000 A 
ENDBRANCH   5   8
ENDBRANCH   3   5
BRANCH   1  15
ATOM     15  C   UNL     1       3.972   4.091  19.337  0.00  0.00    +0.000 C 
BRANCH  15  17
ATOM     16  C   UNL     1       2.073   4.404  17.860  0.00  0.00    +0.000 C 
ATOM     17  N   UNL     1       2.870   5.003  18.947  0.00  0.00    +0.000 NA
BRANCH  17  18
ATOM     18  C   UNL     1       3.427   6.306  18.510  0.00  0.00    +0.000 C 
BRANCH  18  19
ATOM     19  C   UNL     1       2.483   7.464  18.780  0.00  0.00    +0.000 A 
ATOM     20  C   UNL     1       2.235   8.422  17.787  0.00  0.00    +0.000 A 
ATOM     21  C   UNL     1       1.486   9.565  18.074  0.00  0.00    +0.000 A 
ATOM     22  C   UNL     1       0.968   9.757  19.354  0.00  0.00    +0.000 A 
ATOM     23  C   UNL     1       1.167   8.789  20.336  0.00  0.00    +0.000 A 
ATOM     24  C   UNL     1       1.910   7.642  20.050  0.00  0.00    +0.000 A 
ENDBRANCH  18  19
ENDBRANCH  17  18
ENDBRANCH  15  17
ENDBRANCH   1  15
TORSDOF 6
ENDMDL
MODEL 6
REMARK VINA RESULT:      -7.4      3.169      6.500
REMARK  Name = 
REMARK  7 active torsions:
REMARK  status: ('A' for Active; 'I' for Inactive)
REMARK    1  A    between atoms: C_1  and  N_2
REMARK    2  A    between atoms: N_2  and  C_3
REMARK    3  A    between atoms: N_2  and  C_17
REMARK    4  A    between atoms: C_3  and  C_4
REMARK    5  A    between atoms: N_6  and  S_7
REMARK    6  A    between atoms: S_7  and  C_10
REMARK    7  A    between atoms: C_17  and  C_18
REMARK                            x       y       z     vdW  Elec       q    Type
REMARK                         _______ _______ _______ _____ _____    ______ ____
ROOT
ATOM      1  C   UNL     1       5.656   5.757  18.526  0.00  0.00    +0.000 C 
ATOM      2  O   UNL     1       6.628   5.852  19.272  0.00  0.00    +0.000 OA
ATOM      3  N   UNL     1       5.783   5.434  17.164  0.00  0.00    +0.000 N 
ATOM      4  H   UNL     1       4.971   5.281  16.574  0.00  0.00    +0.000 HD
ENDROOT
BRANCH   3   5
ATOM      5  S   UNL     1       7.242   5.206  16.394  0.00  0.00    +0.000 S 
ATOM      6  O   UNL     1       7.783   6.530  16.166  0.00  0.00    +0.000 OA
ATOM      7  O   UNL     1       7.992   4.208  17.121  0.00  0.00    +0.000 OA
BRANCH   5   8
ATOM      8  C   UNL     1       6.777   4.554  14.809  0.00  0.00    +0.000 A 
ATOM      9  C   UNL     1       7.571   4.839  13.690  0.00  0.00    +0.000 A 
ATOM     10  C   UNL     1       7.136   4.442  12.427  0.00  0.00    +0.000 A 
ATOM     11  C   UNL     1       5.929   3.758  12.298  0.00  0.00    +0.000 A 
ATOM     12  F   UNL     1       5.500   3.408  11.078  0.00  0.00    +0.000 F 
ATOM     13  C   UNL     1       5.152   3.446  13.411  0.00  0.00    +0.000 A 
ATOM     14  C   UNL     1       5.580   3.838  14.678  0.00  0.00    +0.000 A 
ENDBRANCH   5   8
ENDBRANCH   3   5
BRANCH   1  15
ATOM     15  C   UNL     1       4.235   5.982  19.046  0.00  0.00    +0.000 C 
BRANCH  15  17
ATOM     16  C   UNL     1       3.326   7.903  17.876  0.00  0.00    +0.000 C 
ATOM     17  N   UNL     1       3.322   6.431  17.968  0.00  0.00    +0.000 NA
BRANCH  17  18
ATOM     18  C   UNL     1       1.948   5.942  18.237  0.00  0.00    +0.000 C 
BRANCH  18  19
ATOM     19  C   UNL     1       1.911   4.462  18.576  0.00  0.00    +0.000 A 
ATOM     20  C   UNL     1       2.425   3.517  17.677  0.00  0.00    +0.000 A 
ATOM     21  C   UNL     1       2.263   2.151  17.914  0.00  0.00    +0.000 A 
ATOM     22  C   UNL     1       1.594   1.715  19.057  0.00  0.00    +0.000 A 
ATOM     23  C   UNL     1       1.121   2.643  19.981  0.00  0.00    +0.000 A 
ATOM     24  C   UNL     1       1.287   4.010  19.750  0.00  0.00    +0.000 A 
ENDBRANCH  18  19
ENDBRANCH  17  18
ENDBRANCH  15  17
ENDBRANCH   1  15
TORSDOF 6
ENDMDL
MODEL 7
REMARK VINA RESULT:      -7.3      5.122      7.352
REMARK  Name = 
REMARK  7 active torsions:
REMARK  status: ('A' for Active; 'I' for Inactive)
REMARK    1  A    between atoms: C_1  and  N_2
REMARK    2  A    between atoms: N_2  and  C_3
REMARK    3  A    between atoms: N_2  and  C_17
REMARK    4  A    between atoms: C_3  and  C_4
REMARK    5  A    between atoms: N_6  and  S_7
REMARK    6  A    between atoms: S_7  and  C_10
REMARK    7  A    between atoms: C_17  and  C_18
REMARK                            x       y       z     vdW  Elec       q    Type
REMARK                         _______ _______ _______ _____ _____    ______ ____
ROOT
ATOM      1  C   UNL     1       1.868   8.553  18.933  0.00  0.00    +0.000 C 
ATOM      2  O   UNL     1       1.930   8.233  20.117  0.00  0.00    +0.000 OA
ATOM      3  N   UNL     1       1.014   9.568  18.472  0.00  0.00    +0.000 N 
ATOM      4  H   UNL     1       1.027   9.878  17.505  0.00  0.00    +0.000 HD
ENDROOT
BRANCH   3   5
ATOM      5  S   UNL     1      -0.048  10.404  19.445  0.00  0.00    +0.000 S 
ATOM      6  O   UNL     1      -0.365   9.516  20.544  0.00  0.00    +0.000 OA
ATOM      7  O   UNL     1       0.492  11.723  19.683  0.00  0.00    +0.000 OA
BRANCH   5   8
ATOM      8  C   UNL     1      -1.510  10.539  18.446  0.00  0.00    +0.000 A 
ATOM      9  C   UNL     1      -1.588   9.822  17.245  0.00  0.00    +0.000 A 
ATOM     10  C   UNL     1      -2.675  10.032  16.397  0.00  0.00    +0.000 A 
ATOM     11  C   UNL     1      -3.669  10.937  16.761  0.00  0.00    +0.000 A 
ATOM     12  F   UNL     1      -4.693  11.158  15.927  0.00  0.00    +0.000 F 
ATOM     13  C   UNL     1      -3.609  11.629  17.968  0.00  0.00    +0.000 A 
ATOM     14  C   UNL     1      -2.527  11.425  18.824  0.00  0.00    +0.000 A 
ENDBRANCH   5   8
ENDBRANCH   3   5
BRANCH   1  15
ATOM     15  C   UNL     1       2.736   7.859  17.881  0.00  0.00    +0.000 C 
BRANCH  15  17
ATOM     16  C   UNL     1       4.534   6.233  17.774  0.00  0.00    +0.000 C 
ATOM     17  N   UNL     1       3.209   6.534  18.348  0.00  0.00    +0.000 NA
BRANCH  17  18
ATOM     18  C   UNL     1       2.235   5.486  17.956  0.00  0.00    +0.000 C 
BRANCH  18  19
ATOM     19  C   UNL     1       1.898   4.545  19.100  0.00  0.00    +0.000 A 
ATOM     20  C   UNL     1       2.299   4.849  20.409  0.00  0.00    +0.000 A 
ATOM     21  C   UNL     1       2.122   3.924  21.439  0.00  0.00    +0.000 A 
ATOM     22  C   UNL     1       1.532   2.689  21.173  0.00  0.00    +0.000 A 
ATOM     23  C   UNL     1       1.086   2.394  19.887  0.00  0.00    +0.000 A 
ATOM     24  C   UNL     1       1.256   3.320  18.856  0.00  0.00    +0.000 A 
ENDBRANCH  18  19
ENDBRANCH  17  18
ENDBRANCH  15  17
ENDBRANCH   1  15
TORSDOF 6
ENDMDL
MODEL 8
REMARK VINA RESULT:      -7.3      5.123      7.392
REMARK  Name = 
REMARK  7 active torsions:
REMARK  status: ('A' for Active; 'I' for Inactive)
REMARK    1  A    between atoms: C_1  and  N_2
REMARK    2  A    between atoms: N_2  and  C_3
REMARK    3  A    between atoms: N_2  and  C_17
REMARK    4  A    between atoms: C_3  and  C_4
REMARK    5  A    between atoms: N_6  and  S_7
REMARK    6  A    between atoms: S_7  and  C_10
REMARK    7  A    between atoms: C_17  and  C_18
REMARK                            x       y       z     vdW  Elec       q    Type
REMARK                         _______ _______ _______ _____ _____    ______ ____
ROOT
ATOM      1  C   UNL     1       1.935   8.643  18.982  0.00  0.00    +0.000 C 
ATOM      2  O   UNL     1       2.000   8.291  20.158  0.00  0.00    +0.000 OA
ATOM      3  N   UNL     1       1.037   9.629  18.542  0.00  0.00    +0.000 N 
ATOM      4  H   UNL     1       1.043   9.968  17.585  0.00  0.00    +0.000 HD
ENDROOT
BRANCH   3   5
ATOM      5  S   UNL     1      -0.073  10.383  19.527  0.00  0.00    +0.000 S 
ATOM      6  O   UNL     1      -0.476   9.394  20.506  0.00  0.00    +0.000 OA
ATOM      7  O   UNL     1       0.469  11.659  19.934  0.00  0.00    +0.000 OA
BRANCH   5   8
ATOM      8  C   UNL     1      -1.465  10.651  18.457  0.00  0.00    +0.000 A 
ATOM      9  C   UNL     1      -2.445  11.583  18.825  0.00  0.00    +0.000 A 
ATOM     10  C   UNL     1      -3.601  11.695  18.055  0.00  0.00    +0.000 A 
ATOM     11  C   UNL     1      -3.759  10.892  16.928  0.00  0.00    +0.000 A 
ATOM     12  F   UNL     1      -4.887  10.982  16.211  0.00  0.00    +0.000 F 
ATOM     13  C   UNL     1      -2.774   9.987  16.542  0.00  0.00    +0.000 A 
ATOM     14  C   UNL     1      -1.614   9.868  17.305  0.00  0.00    +0.000 A 
ENDBRANCH   5   8
ENDBRANCH   3   5
BRANCH   1  15
ATOM     15  C   UNL     1       2.845   8.023  17.920  0.00  0.00    +0.000 C 
BRANCH  15  17
ATOM     16  C   UNL     1       4.511   6.288  17.599  0.00  0.00    +0.000 C 
ATOM     17  N   UNL     1       3.256   6.646  18.286  0.00  0.00    +0.000 NA
BRANCH  17  18
ATOM     18  C   UNL     1       2.185   5.688  17.920  0.00  0.00    +0.000 C 
BRANCH  18  19
ATOM     19  C   UNL     1       1.984   4.608  18.969  0.00  0.00    +0.000 A 
ATOM     20  C   UNL     1       1.415   3.376  18.617  0.00  0.00    +0.000 A 
ATOM     21  C   UNL     1       1.094   2.436  19.597  0.00  0.00    +0.000 A 
ATOM     22  C   UNL     1       1.347   2.715  20.940  0.00  0.00    +0.000 A 
ATOM     23  C   UNL     1       1.955   3.915  21.298  0.00  0.00    +0.000 A 
ATOM     24  C   UNL     1       2.284   4.854  20.318  0.00  0.00    +0.000 A 
ENDBRANCH  18  19
ENDBRANCH  17  18
ENDBRANCH  15  17
ENDBRANCH   1  15
TORSDOF 6
ENDMDL
MODEL 9
REMARK VINA RESULT:      -7.3      3.107      6.390
REMARK  Name = 
REMARK  7 active torsions:
REMARK  status: ('A' for Active; 'I' for Inactive)
REMARK    1  A    between atoms: C_1  and  N_2
REMARK    2  A    between atoms: N_2  and  C_3
REMARK    3  A    between atoms: N_2  and  C_17
REMARK    4  A    between atoms: C_3  and  C_4
REMARK    5  A    between atoms: N_6  and  S_7
REMARK    6  A    between atoms: S_7  and  C_10
REMARK    7  A    between atoms: C_17  and  C_18
REMARK                            x       y       z     vdW  Elec       q    Type
REMARK                         _______ _______ _______ _____ _____    ______ ____
ROOT
ATOM      1  C   UNL     1       5.323   5.525  18.848  0.00  0.00    +0.000 C 
ATOM      2  O   UNL     1       6.213   5.486  19.694  0.00  0.00    +0.000 OA
ATOM      3  N   UNL     1       5.594   5.476  17.470  0.00  0.00    +0.000 N 
ATOM      4  H   UNL     1       4.850   5.430  16.781  0.00  0.00    +0.000 HD
ENDROOT
BRANCH   3   5
ATOM      5  S   UNL     1       7.128   5.423  16.825  0.00  0.00    +0.000 S 
ATOM      6  O   UNL     1       7.543   6.802  16.667  0.00  0.00    +0.000 OA
ATOM      7  O   UNL     1       7.917   4.490  17.596  0.00  0.00    +0.000 OA
BRANCH   5   8
ATOM      8  C   UNL     1       6.871   4.768  15.193  0.00  0.00    +0.000 A 
ATOM      9  C   UNL     1       7.708   5.182  14.149  0.00  0.00    +0.000 A 
ATOM     10  C   UNL     1       7.424   4.774  12.846  0.00  0.00    +0.000 A 
ATOM     11  C   UNL     1       6.324   3.954  12.606  0.00  0.00    +0.000 A 
ATOM     12  F   UNL     1       6.037   3.593  11.349  0.00  0.00    +0.000 F 
ATOM     13  C   UNL     1       5.507   3.517  13.646  0.00  0.00    +0.000 A 
ATOM     14  C   UNL     1       5.784   3.918  14.952  0.00  0.00    +0.000 A 
ENDBRANCH   5   8
ENDBRANCH   3   5
BRANCH   1  15
ATOM     15  C   UNL     1       3.851   5.624  19.252  0.00  0.00    +0.000 C 
BRANCH  15  17
ATOM     16  C   UNL     1       2.603   7.690  19.005  0.00  0.00    +0.000 C 
ATOM     17  N   UNL     1       3.082   6.478  18.315  0.00  0.00    +0.000 NA
BRANCH  17  18
ATOM     18  C   UNL     1       1.933   5.716  17.769  0.00  0.00    +0.000 C 
BRANCH  18  19
ATOM     19  C   UNL     1       1.959   4.251  18.171  0.00  0.00    +0.000 A 
ATOM     20  C   UNL     1       1.324   3.828  19.346  0.00  0.00    +0.000 A 
ATOM     21  C   UNL     1       1.466   2.514  19.797  0.00  0.00    +0.000 A 
ATOM     22  C   UNL     1       2.238   1.608  19.071  0.00  0.00    +0.000 A 
ATOM     23  C   UNL     1       2.835   2.004  17.876  0.00  0.00    +0.000 A 
ATOM     24  C   UNL     1       2.688   3.315  17.420  0.00  0.00    +0.000 A 
ENDBRANCH  18  19
ENDBRANCH  17  18
ENDBRANCH  15  17
ENDBRANCH   1  15
TORSDOF 6
ENDMDL
