MODEL 1
REMARK VINA RESULT:      -8.1      0.000      0.000
REMARK  Name = 
REMARK  11 active torsions:
REMARK  status: ('A' for Active; 'I' for Inactive)
REMARK    1  A    between atoms: C_1  and  C_2
REMARK    2  A    between atoms: C_2  and  C_3
REMARK    3  A    between atoms: C_2  and  O_4
REMARK    4  A    between atoms: C_2  and  C_5
REMARK    5  A    between atoms: C_5  and  N_6
REMARK    6  A    between atoms: C_8  and  C_9
REMARK    7  A    between atoms: C_11  and  C_12
REMARK    8  A    between atoms: C_12  and  C_13
REMARK    9  A    between atoms: C_16  and  C_17
REMARK   10  A    between atoms: C_20  and  N_21
REMARK   11  A    between atoms: C_22  and  C_23
REMARK                            x       y       z     vdW  Elec       q    Type
REMARK                         _______ _______ _______ _____ _____    ______ ____
ROOT
ATOM      1  C   UNL     1       5.081   5.754  17.425  0.00  0.00    +0.000 C 
ATOM      2  C   UNL     1       4.864   4.793  16.193  0.00  0.00    +0.000 C 
ATOM      3  C   UNL     1       4.441   3.703  17.193  0.00  0.00    +0.000 C 
ATOM      4  C   UNL     1       5.291   4.434  18.256  0.00  0.00    +0.000 C 
ENDROOT
BRANCH   1   5
ATOM      5  C   UNL     1       3.823   6.667  17.858  0.00  0.00    +0.000 A 
ATOM      6  C   UNL     1       3.152   6.478  19.077  0.00  0.00    +0.000 A 
ATOM      7  C   UNL     1       2.143   7.342  19.500  0.00  0.00    +0.000 A 
ATOM      8  C   UNL     1       1.777   8.411  18.690  0.00  0.00    +0.000 A 
ATOM      9  N   UNL     1       2.357   8.598  17.481  0.00  0.00    +0.000 NA
ATOM     10  C   UNL     1       3.333   7.732  17.099  0.00  0.00    +0.000 A 
BRANCH   8  11
ATOM     11  C   UNL     1       0.828   9.451  19.121  0.00  0.00    +0.000 A 
ATOM     12  C   UNL     1       0.091  10.224  18.226  0.00  0.00    +0.000 A 
ATOM     13  N   UNL     1      -0.873  11.117  18.570  0.00  0.00    +0.000 NA
ATOM     14  C   UNL     1      -1.133  11.283  19.881  0.00  0.00    +0.000 A 
ATOM     15  C   UNL     1      -0.431  10.597  20.866  0.00  0.00    +0.000 A 
ATOM     16  C   UNL     1       0.560   9.686  20.477  0.00  0.00    +0.000 A 
BRANCH  14  17
ATOM     17  N   UNL     1      -2.210  12.120  20.156  0.00  0.00    +0.000 N 
ATOM     18  H   UNL     1      -1.874  12.887  20.735  0.00  0.00    +0.000 HD
ATOM     19  H   UNL     1      -3.010  11.648  20.563  0.00  0.00    +0.000 HD
ENDBRANCH  14  17
BRANCH  15  20
ATOM     20  C   UNL     1      -0.705  10.794  22.253  0.00  0.00    +0.000 C 
ATOM     21  N   UNL     1      -0.942  10.930  23.383  0.00  0.00    +0.000 NA
ENDBRANCH  15  20
ENDBRANCH   8  11
ENDBRANCH   1   5
BRANCH   1  24
ATOM     22  C   UNL     1       7.747   8.176  17.642  0.00  0.00    +0.000 A 
ATOM     23  N   UNL     1       6.614   7.708  18.134  0.00  0.00    +0.000 NA
ATOM     24  C   UNL     1       6.355   6.622  17.325  0.00  0.00    +0.000 A 
ATOM     25  N   UNL     1       7.288   6.401  16.388  0.00  0.00    +0.000 NA
ATOM     26  O   UNL     1       8.195   7.433  16.581  0.00  0.00    +0.000 OA
BRANCH  22  29
ATOM     27  N   UNL     1       9.424  11.334  18.327  0.00  0.00    +0.000 N 
ATOM     28  C   UNL     1       8.658  10.569  17.487  0.00  0.00    +0.000 A 
ATOM     29  C   UNL     1       8.479   9.368  18.133  0.00  0.00    +0.000 A 
ATOM     30  C   UNL     1       9.144   9.514  19.364  0.00  0.00    +0.000 A 
ATOM     31  N   UNL     1       9.722  10.712  19.486  0.00  0.00    +0.000 NA
BRANCH  27  32
ATOM     32  C   UNL     1       9.893  12.685  18.095  0.00  0.00    +0.000 C 
BRANCH  32  34
ATOM     33  C   UNL     1      12.127  13.546  18.972  0.00  0.00    +0.000 C 
ATOM     34  C   UNL     1      11.406  12.817  17.833  0.00  0.00    +0.000 C 
ATOM     35  C   UNL     1      11.711  13.488  16.491  0.00  0.00    +0.000 C 
BRANCH  34  36
ATOM     36  O   UNL     1      11.944  11.483  17.783  0.00  0.00    +0.000 OA
ATOM     37  H   UNL     1      11.372  10.948  17.204  0.00  0.00    +0.000 HD
ENDBRANCH  34  36
ENDBRANCH  32  34
ENDBRANCH  27  32
ENDBRANCH  22  29
ENDBRANCH   1  24
TORSDOF 9
ENDMDL
MODEL 2
REMARK VINA RESULT:      -8.0      3.868      6.899
REMARK  Name = 
REMARK  11 active torsions:
REMARK  status: ('A' for Active; 'I' for Inactive)
REMARK    1  A    between atoms: C_1  and  C_2
REMARK    2  A    between atoms: C_2  and  C_3
REMARK    3  A    between atoms: C_2  and  O_4
REMARK    4  A    between atoms: C_2  and  C_5
REMARK    5  A    between atoms: C_5  and  N_6
REMARK    6  A    between atoms: C_8  and  C_9
REMARK    7  A    between atoms: C_11  and  C_12
REMARK    8  A    between atoms: C_12  and  C_13
REMARK    9  A    between atoms: C_16  and  C_17
REMARK   10  A    between atoms: C_20  and  N_21
REMARK   11  A    between atoms: C_22  and  C_23
REMARK                            x       y       z     vdW  Elec       q    Type
REMARK                         _______ _______ _______ _____ _____    ______ ____
ROOT
ATOM      1  C   UNL     1      -0.120  11.657  18.952  0.00  0.00    +0.000 C 
ATOM      2  C   UNL     1      -1.310  11.882  19.962  0.00  0.00    +0.000 C 
ATOM      3  C   UNL     1      -2.230  11.189  18.940  0.00  0.00    +0.000 C 
ATOM      4  C   UNL     1      -1.235  11.625  17.842  0.00  0.00    +0.000 C 
ENDROOT
BRANCH   1   5
ATOM      5  C   UNL     1       0.734  10.300  19.133  0.00  0.00    +0.000 A 
ATOM      6  C   UNL     1       0.817   9.633  20.366  0.00  0.00    +0.000 A 
ATOM      7  C   UNL     1       1.458   8.401  20.491  0.00  0.00    +0.000 A 
ATOM      8  C   UNL     1       2.045   7.821  19.372  0.00  0.00    +0.000 A 
ATOM      9  N   UNL     1       2.040   8.456  18.177  0.00  0.00    +0.000 NA
ATOM     10  C   UNL     1       1.411   9.658  18.093  0.00  0.00    +0.000 A 
BRANCH   8  11
ATOM     11  C   UNL     1       2.613   6.463  19.383  0.00  0.00    +0.000 A 
ATOM     12  C   UNL     1       3.674   6.078  18.565  0.00  0.00    +0.000 A 
ATOM     13  N   UNL     1       4.303   4.875  18.612  0.00  0.00    +0.000 NA
ATOM     14  C   UNL     1       3.863   3.972  19.509  0.00  0.00    +0.000 A 
ATOM     15  C   UNL     1       2.783   4.231  20.348  0.00  0.00    +0.000 A 
ATOM     16  C   UNL     1       2.155   5.480  20.271  0.00  0.00    +0.000 A 
BRANCH  14  17
ATOM     17  N   UNL     1       4.626   2.812  19.586  0.00  0.00    +0.000 N 
ATOM     18  H   UNL     1       4.605   2.359  18.675  0.00  0.00    +0.000 HD
ATOM     19  H   UNL     1       4.357   2.186  20.337  0.00  0.00    +0.000 HD
ENDBRANCH  14  17
BRANCH  15  20
ATOM     20  C   UNL     1       2.316   3.259  21.284  0.00  0.00    +0.000 C 
ATOM     21  N   UNL     1       1.947   2.449  22.031  0.00  0.00    +0.000 NA
ENDBRANCH  15  20
ENDBRANCH   8  11
ENDBRANCH   1   5
BRANCH   1  24
ATOM     22  C   UNL     1       2.580  14.049  18.855  0.00  0.00    +0.000 A 
ATOM     23  N   UNL     1       2.203  12.787  18.951  0.00  0.00    +0.000 NA
ATOM     24  C   UNL     1       0.832  12.868  18.827  0.00  0.00    +0.000 A 
ATOM     25  N   UNL     1       0.370  14.112  18.639  0.00  0.00    +0.000 NA
ATOM     26  O   UNL     1       1.515  14.895  18.676  0.00  0.00    +0.000 OA
BRANCH  22  29
ATOM     27  N   UNL     1       6.058  15.071  18.521  0.00  0.00    +0.000 N 
ATOM     28  C   UNL     1       4.932  14.536  17.954  0.00  0.00    +0.000 A 
ATOM     29  C   UNL     1       3.973  14.548  18.940  0.00  0.00    +0.000 A 
ATOM     30  C   UNL     1       4.603  15.135  20.052  0.00  0.00    +0.000 A 
ATOM     31  N   UNL     1       5.875  15.457  19.801  0.00  0.00    +0.000 NA
BRANCH  27  32
ATOM     32  C   UNL     1       7.347  15.267  17.889  0.00  0.00    +0.000 C 
BRANCH  32  34
ATOM     33  C   UNL     1       9.830  14.693  17.966  0.00  0.00    +0.000 C 
ATOM     34  C   UNL     1       8.404  14.191  18.208  0.00  0.00    +0.000 C 
ATOM     35  C   UNL     1       8.158  12.886  17.445  0.00  0.00    +0.000 C 
BRANCH  34  36
ATOM     36  O   UNL     1       8.296  13.898  19.614  0.00  0.00    +0.000 OA
ATOM     37  H   UNL     1       7.369  13.665  19.804  0.00  0.00    +0.000 HD
ENDBRANCH  34  36
ENDBRANCH  32  34
ENDBRANCH  27  32
ENDBRANCH  22  29
ENDBRANCH   1  24
TORSDOF 9
ENDMDL
MODEL 3
REMARK VINA RESULT:      -7.9      4.994      9.995
REMARK  Name = 
REMARK  11 active torsions:
REMARK  status: ('A' for Active; 'I' for Inactive)
REMARK    1  A    between atoms: C_1  and  C_2
REMARK    2  A    between atoms: C_2  and  C_3
REMARK    3  A    between atoms: C_2  and  O_4
REMARK    4  A    between atoms: C_2  and  C_5
REMARK    5  A    between atoms: C_5  and  N_6
REMARK    6  A    between atoms: C_8  and  C_9
REMARK    7  A    between atoms: C_11  and  C_12
REMARK    8  A    between atoms: C_12  and  C_13
REMARK    9  A    between atoms: C_16  and  C_17
REMARK   10  A    between atoms: C_20  and  N_21
REMARK   11  A    between atoms: C_22  and  C_23
REMARK                            x       y       z     vdW  Elec       q    Type
REMARK                         _______ _______ _______ _____ _____    ______ ____
ROOT
ATOM      1  C   UNL     1       2.076   5.127  20.236  0.00  0.00    +0.000 C 
ATOM      2  C   UNL     1       2.475   4.442  21.600  0.00  0.00    +0.000 C 
ATOM      3  C   UNL     1       1.609   3.240  21.180  0.00  0.00    +0.000 C 
ATOM      4  C   UNL     1       0.797   4.212  20.296  0.00  0.00    +0.000 C 
ENDROOT
BRANCH   1   5
ATOM      5  C   UNL     1       3.064   4.876  18.985  0.00  0.00    +0.000 A 
ATOM      6  C   UNL     1       2.743   3.982  17.951  0.00  0.00    +0.000 A 
ATOM      7  C   UNL     1       3.543   3.856  16.816  0.00  0.00    +0.000 A 
ATOM      8  C   UNL     1       4.699   4.621  16.709  0.00  0.00    +0.000 A 
ATOM      9  N   UNL     1       5.079   5.452  17.708  0.00  0.00    +0.000 NA
ATOM     10  C   UNL     1       4.277   5.545  18.802  0.00  0.00    +0.000 A 
BRANCH   8  11
ATOM     11  C   UNL     1       5.522   4.657  15.489  0.00  0.00    +0.000 A 
ATOM     12  C   UNL     1       6.664   5.444  15.367  0.00  0.00    +0.000 A 
ATOM     13  N   UNL     1       7.515   5.433  14.308  0.00  0.00    +0.000 NA
ATOM     14  C   UNL     1       7.230   4.606  13.284  0.00  0.00    +0.000 A 
ATOM     15  C   UNL     1       6.092   3.805  13.277  0.00  0.00    +0.000 A 
ATOM     16  C   UNL     1       5.234   3.844  14.383  0.00  0.00    +0.000 A 
BRANCH  14  17
ATOM     17  N   UNL     1       8.202   4.555  12.290  0.00  0.00    +0.000 N 
ATOM     18  H   UNL     1       8.265   3.595  11.958  0.00  0.00    +0.000 HD
ATOM     19  H   UNL     1       9.102   4.929  12.570  0.00  0.00    +0.000 HD
ENDBRANCH  14  17
BRANCH  15  20
ATOM     20  C   UNL     1       5.792   2.943  12.178  0.00  0.00    +0.000 C 
ATOM     21  N   UNL     1       5.568   2.225  11.292  0.00  0.00    +0.000 NA
ENDBRANCH  15  20
ENDBRANCH   8  11
ENDBRANCH   1   5
BRANCH   1  24
ATOM     22  C   UNL     1       0.977   8.459  21.077  0.00  0.00    +0.000 A 
ATOM     23  N   UNL     1       1.096   7.194  21.436  0.00  0.00    +0.000 NA
ATOM     24  C   UNL     1       1.755   6.633  20.362  0.00  0.00    +0.000 A 
ATOM     25  N   UNL     1       2.058   7.504  19.389  0.00  0.00    +0.000 NA
ATOM     26  O   UNL     1       1.531   8.702  19.847  0.00  0.00    +0.000 OA
BRANCH  22  29
ATOM     27  N   UNL     1      -0.571  11.409  22.545  0.00  0.00    +0.000 N 
ATOM     28  C   UNL     1      -0.018  10.794  21.453  0.00  0.00    +0.000 A 
ATOM     29  C   UNL     1       0.318   9.527  21.868  0.00  0.00    +0.000 A 
ATOM     30  C   UNL     1      -0.097   9.461  23.211  0.00  0.00    +0.000 A 
ATOM     31  N   UNL     1      -0.641  10.607  23.627  0.00  0.00    +0.000 NA
BRANCH  27  32
ATOM     32  C   UNL     1      -1.078  12.765  22.620  0.00  0.00    +0.000 C 
BRANCH  32  34
ATOM     33  C   UNL     1      -3.163  12.728  21.152  0.00  0.00    +0.000 C 
ATOM     34  C   UNL     1      -2.614  12.893  22.573  0.00  0.00    +0.000 C 
ATOM     35  C   UNL     1      -3.111  14.203  23.191  0.00  0.00    +0.000 C 
BRANCH  34  36
ATOM     36  O   UNL     1      -3.152  11.812  23.357  0.00  0.00    +0.000 OA
ATOM     37  H   UNL     1      -2.795  10.976  23.007  0.00  0.00    +0.000 HD
ENDBRANCH  34  36
ENDBRANCH  32  34
ENDBRANCH  27  32
ENDBRANCH  22  29
ENDBRANCH   1  24
TORSDOF 9
ENDMDL
MODEL 4
REMARK VINA RESULT:      -7.9      0.857      1.580
REMARK  Name = 
REMARK  11 active torsions:
REMARK  status: ('A' for Active; 'I' for Inactive)
REMARK    1  A    between atoms: C_1  and  C_2
REMARK    2  A    between atoms: C_2  and  C_3
REMARK    3  A    between atoms: C_2  and  O_4
REMARK    4  A    between atoms: C_2  and  C_5
REMARK    5  A    between atoms: C_5  and  N_6
REMARK    6  A    between atoms: C_8  and  C_9
REMARK    7  A    between atoms: C_11  and  C_12
REMARK    8  A    between atoms: C_12  and  C_13
REMARK    9  A    between atoms: C_16  and  C_17
REMARK   10  A    between atoms: C_20  and  N_21
REMARK   11  A    between atoms: C_22  and  C_23
REMARK                            x       y       z     vdW  Elec       q    Type
REMARK                         _______ _______ _______ _____ _____    ______ ____
ROOT
ATOM      1  C   UNL     1       5.038   5.787  17.418  0.00  0.00    +0.000 C 
ATOM      2  C   UNL     1       4.807   4.850  16.170  0.00  0.00    +0.000 C 
ATOM      3  C   UNL     1       4.375   3.748  17.154  0.00  0.00    +0.000 C 
ATOM      4  C   UNL     1       5.237   4.452  18.225  0.00  0.00    +0.000 C 
ENDROOT
BRANCH   1   5
ATOM      5  C   UNL     1       3.793   6.707  17.871  0.00  0.00    +0.000 A 
ATOM      6  C   UNL     1       3.149   6.530  19.106  0.00  0.00    +0.000 A 
ATOM      7  C   UNL     1       2.150   7.400  19.544  0.00  0.00    +0.000 A 
ATOM      8  C   UNL     1       1.770   8.463  18.734  0.00  0.00    +0.000 A 
ATOM      9  N   UNL     1       2.322   8.638  17.511  0.00  0.00    +0.000 NA
ATOM     10  C   UNL     1       3.288   7.767  17.114  0.00  0.00    +0.000 A 
BRANCH   8  11
ATOM     11  C   UNL     1       0.832   9.508  19.177  0.00  0.00    +0.000 A 
ATOM     12  C   UNL     1       1.029  10.266  20.329  0.00  0.00    +0.000 A 
ATOM     13  N   UNL     1       0.254  11.310  20.722  0.00  0.00    +0.000 NA
ATOM     14  C   UNL     1      -0.799  11.636  19.948  0.00  0.00    +0.000 A 
ATOM     15  C   UNL     1      -1.117  10.922  18.797  0.00  0.00    +0.000 A 
ATOM     16  C   UNL     1      -0.300   9.848  18.422  0.00  0.00    +0.000 A 
BRANCH  14  17
ATOM     17  N   UNL     1      -1.476  12.785  20.343  0.00  0.00    +0.000 N 
ATOM     18  H   UNL     1      -1.140  13.047  21.268  0.00  0.00    +0.000 HD
ATOM     19  H   UNL     1      -2.486  12.707  20.303  0.00  0.00    +0.000 HD
ENDBRANCH  14  17
BRANCH  15  20
ATOM     20  C   UNL     1      -2.246  11.267  17.993  0.00  0.00    +0.000 C 
ATOM     21  N   UNL     1      -3.179  11.549  17.361  0.00  0.00    +0.000 NA
ENDBRANCH  15  20
ENDBRANCH   8  11
ENDBRANCH   1   5
BRANCH   1  24
ATOM     22  C   UNL     1       7.723   8.188  17.649  0.00  0.00    +0.000 A 
ATOM     23  N   UNL     1       6.579   7.735  18.129  0.00  0.00    +0.000 NA
ATOM     24  C   UNL     1       6.322   6.643  17.328  0.00  0.00    +0.000 A 
ATOM     25  N   UNL     1       7.267   6.404  16.407  0.00  0.00    +0.000 NA
ATOM     26  O   UNL     1       8.180   7.430  16.602  0.00  0.00    +0.000 OA
BRANCH  22  29
ATOM     27  N   UNL     1       9.404  11.344  18.332  0.00  0.00    +0.000 N 
ATOM     28  C   UNL     1       8.632  10.582  17.496  0.00  0.00    +0.000 A 
ATOM     29  C   UNL     1       8.459   9.378  18.138  0.00  0.00    +0.000 A 
ATOM     30  C   UNL     1       9.136   9.519  19.363  0.00  0.00    +0.000 A 
ATOM     31  N   UNL     1       9.713  10.717  19.486  0.00  0.00    +0.000 NA
BRANCH  27  32
ATOM     32  C   UNL     1       9.870  12.697  18.101  0.00  0.00    +0.000 C 
BRANCH  32  34
ATOM     33  C   UNL     1      12.140  13.502  18.938  0.00  0.00    +0.000 C 
ATOM     34  C   UNL     1      11.376  12.827  17.795  0.00  0.00    +0.000 C 
ATOM     35  C   UNL     1      11.642  13.551  16.472  0.00  0.00    +0.000 C 
BRANCH  34  36
ATOM     36  O   UNL     1      11.899  11.492  17.672  0.00  0.00    +0.000 OA
ATOM     37  H   UNL     1      12.745  11.541  17.192  0.00  0.00    +0.000 HD
ENDBRANCH  34  36
ENDBRANCH  32  34
ENDBRANCH  27  32
ENDBRANCH  22  29
ENDBRANCH   1  24
TORSDOF 9
ENDMDL
MODEL 5
REMARK VINA RESULT:      -7.8      3.830      7.302
REMARK  Name = 
REMARK  11 active torsions:
REMARK  status: ('A' for Active; 'I' for Inactive)
REMARK    1  A    between atoms: C_1  and  C_2
REMARK    2  A    between atoms: C_2  and  C_3
REMARK    3  A    between atoms: C_2  and  O_4
REMARK    4  A    between atoms: C_2  and  C_5
REMARK    5  A    between atoms: C_5  and  N_6
REMARK    6  A    between atoms: C_8  and  C_9
REMARK    7  A    between atoms: C_11  and  C_12
REMARK    8  A    between atoms: C_12  and  C_13
REMARK    9  A    between atoms: C_16  and  C_17
REMARK   10  A    between atoms: C_20  and  N_21
REMARK   11  A    between atoms: C_22  and  C_23
REMARK                            x       y       z     vdW  Elec       q    Type
REMARK                         _______ _______ _______ _____ _____    ______ ____
ROOT
ATOM      1  C   UNL     1       0.237  11.409  19.590  0.00  0.00    +0.000 C 
ATOM      2  C   UNL     1      -1.090  11.508  20.437  0.00  0.00    +0.000 C 
ATOM      3  C   UNL     1      -1.871  11.312  19.125  0.00  0.00    +0.000 C 
ATOM      4  C   UNL     1      -0.648  11.892  18.382  0.00  0.00    +0.000 C 
ENDROOT
BRANCH   1   5
ATOM      5  C   UNL     1       0.892   9.942  19.442  0.00  0.00    +0.000 A 
ATOM      6  C   UNL     1       1.454   9.498  18.235  0.00  0.00    +0.000 A 
ATOM      7  C   UNL     1       2.122   8.277  18.143  0.00  0.00    +0.000 A 
ATOM      8  C   UNL     1       2.224   7.469  19.270  0.00  0.00    +0.000 A 
ATOM      9  N   UNL     1       1.646   7.831  20.439  0.00  0.00    +0.000 NA
ATOM     10  C   UNL     1       0.998   9.025  20.490  0.00  0.00    +0.000 A 
BRANCH   8  11
ATOM     11  C   UNL     1       3.031   6.239  19.299  0.00  0.00    +0.000 A 
ATOM     12  C   UNL     1       2.747   5.165  20.141  0.00  0.00    +0.000 A 
ATOM     13  N   UNL     1       3.393   3.969  20.131  0.00  0.00    +0.000 NA
ATOM     14  C   UNL     1       4.398   3.807  19.249  0.00  0.00    +0.000 A 
ATOM     15  C   UNL     1       4.798   4.826  18.390  0.00  0.00    +0.000 A 
ATOM     16  C   UNL     1       4.113   6.047  18.429  0.00  0.00    +0.000 A 
BRANCH  14  17
ATOM     17  N   UNL     1       4.934   2.524  19.210  0.00  0.00    +0.000 N 
ATOM     18  H   UNL     1       4.311   1.939  18.658  0.00  0.00    +0.000 HD
ATOM     19  H   UNL     1       5.132   2.128  20.122  0.00  0.00    +0.000 HD
ENDBRANCH  14  17
BRANCH  15  20
ATOM     20  C   UNL     1       5.875   4.647  17.470  0.00  0.00    +0.000 C 
ATOM     21  N   UNL     1       6.735   4.505  16.701  0.00  0.00    +0.000 NA
ENDBRANCH  15  20
ENDBRANCH   8  11
ENDBRANCH   1   5
BRANCH   1  24
ATOM     22  C   UNL     1       2.963  13.753  19.908  0.00  0.00    +0.000 A 
ATOM     23  N   UNL     1       2.182  13.042  19.115  0.00  0.00    +0.000 NA
ATOM     24  C   UNL     1       1.320  12.433  20.002  0.00  0.00    +0.000 A 
ATOM     25  N   UNL     1       1.529  12.761  21.284  0.00  0.00    +0.000 NA
ATOM     26  O   UNL     1       2.622  13.614  21.229  0.00  0.00    +0.000 OA
BRANCH  22  29
ATOM     27  N   UNL     1       5.968  15.735  19.369  0.00  0.00    +0.000 N 
ATOM     28  C   UNL     1       5.250  14.886  20.168  0.00  0.00    +0.000 A 
ATOM     29  C   UNL     1       4.096  14.604  19.474  0.00  0.00    +0.000 A 
ATOM     30  C   UNL     1       4.223  15.302  18.259  0.00  0.00    +0.000 A 
ATOM     31  N   UNL     1       5.364  15.993  18.191  0.00  0.00    +0.000 NA
BRANCH  27  32
ATOM     32  C   UNL     1       7.259  16.327  19.659  0.00  0.00    +0.000 C 
BRANCH  32  34
ATOM     33  C   UNL     1       8.645  14.222  19.272  0.00  0.00    +0.000 C 
ATOM     34  C   UNL     1       8.451  15.698  18.910  0.00  0.00    +0.000 C 
ATOM     35  C   UNL     1       9.752  16.478  19.123  0.00  0.00    +0.000 C 
BRANCH  34  36
ATOM     36  O   UNL     1       8.140  15.747  17.506  0.00  0.00    +0.000 OA
ATOM     37  H   UNL     1       7.241  16.109  17.407  0.00  0.00    +0.000 HD
ENDBRANCH  34  36
ENDBRANCH  32  34
ENDBRANCH  27  32
ENDBRANCH  22  29
ENDBRANCH   1  24
TORSDOF 9
ENDMDL
MODEL 6
REMARK VINA RESULT:      -7.7      5.001      9.728
REMARK  Name = 
REMARK  11 active torsions:
REMARK  status: ('A' for Active; 'I' for Inactive)
REMARK    1  A    between atoms: C_1  and  C_2
REMARK    2  A    between atoms: C_2  and  C_3
REMARK    3  A    between atoms: C_2  and  O_4
REMARK    4  A    between atoms: C_2  and  C_5
REMARK    5  A    between atoms: C_5  and  N_6
REMARK    6  A    between atoms: C_8  and  C_9
REMARK    7  A    between atoms: C_11  and  C_12
REMARK    8  A    between atoms: C_12  and  C_13
REMARK    9  A    between atoms: C_16  and  C_17
REMARK   10  A    between atoms: C_20  and  N_21
REMARK   11  A    between atoms: C_22  and  C_23
REMARK                            x       y       z     vdW  Elec       q    Type
REMARK                         _______ _______ _______ _____ _____    ______ ____
ROOT
ATOM      1  C   UNL     1       2.083   5.035  20.297  0.00  0.00    +0.000 C 
ATOM      2  C   UNL     1       2.540   4.368  21.652  0.00  0.00    +0.000 C 
ATOM      3  C   UNL     1       1.678   3.150  21.274  0.00  0.00    +0.000 C 
ATOM      4  C   UNL     1       0.821   4.102  20.411  0.00  0.00    +0.000 C 
ENDROOT
BRANCH   1   5
ATOM      5  C   UNL     1       3.030   4.787  19.015  0.00  0.00    +0.000 A 
ATOM      6  C   UNL     1       2.562   4.141  17.859  0.00  0.00    +0.000 A 
ATOM      7  C   UNL     1       3.347   4.033  16.711  0.00  0.00    +0.000 A 
ATOM      8  C   UNL     1       4.632   4.563  16.712  0.00  0.00    +0.000 A 
ATOM      9  N   UNL     1       5.145   5.142  17.823  0.00  0.00    +0.000 NA
ATOM     10  C   UNL     1       4.354   5.224  18.926  0.00  0.00    +0.000 A 
BRANCH   8  11
ATOM     11  C   UNL     1       5.472   4.621  15.504  0.00  0.00    +0.000 A 
ATOM     12  C   UNL     1       6.603   5.428  15.405  0.00  0.00    +0.000 A 
ATOM     13  N   UNL     1       7.470   5.438  14.358  0.00  0.00    +0.000 NA
ATOM     14  C   UNL     1       7.213   4.613  13.325  0.00  0.00    +0.000 A 
ATOM     15  C   UNL     1       6.089   3.794  13.296  0.00  0.00    +0.000 A 
ATOM     16  C   UNL     1       5.214   3.811  14.389  0.00  0.00    +0.000 A 
BRANCH  14  17
ATOM     17  N   UNL     1       8.201   4.586  12.346  0.00  0.00    +0.000 N 
ATOM     18  H   UNL     1       7.814   4.132  11.520  0.00  0.00    +0.000 HD
ATOM     19  H   UNL     1       9.073   4.167  12.647  0.00  0.00    +0.000 HD
ENDBRANCH  14  17
BRANCH  15  20
ATOM     20  C   UNL     1       5.820   2.935  12.187  0.00  0.00    +0.000 C 
ATOM     21  N   UNL     1       5.623   2.222  11.291  0.00  0.00    +0.000 NA
ENDBRANCH  15  20
ENDBRANCH   8  11
ENDBRANCH   1   5
BRANCH   1  24
ATOM     22  C   UNL     1       0.849   8.340  21.054  0.00  0.00    +0.000 A 
ATOM     23  N   UNL     1       0.900   7.061  21.378  0.00  0.00    +0.000 NA
ATOM     24  C   UNL     1       1.745   6.538  20.422  0.00  0.00    +0.000 A 
ATOM     25  N   UNL     1       2.221   7.443  19.556  0.00  0.00    +0.000 NA
ATOM     26  O   UNL     1       1.619   8.626  19.956  0.00  0.00    +0.000 OA
BRANCH  22  29
ATOM     27  N   UNL     1      -1.191  11.113  22.237  0.00  0.00    +0.000 N 
ATOM     28  C   UNL     1      -0.667  10.406  21.188  0.00  0.00    +0.000 A 
ATOM     29  C   UNL     1       0.057   9.381  21.752  0.00  0.00    +0.000 A 
ATOM     30  C   UNL     1      -0.115   9.535  23.140  0.00  0.00    +0.000 A 
ATOM     31  N   UNL     1      -0.877  10.590  23.440  0.00  0.00    +0.000 NA
BRANCH  27  32
ATOM     32  C   UNL     1      -2.026  12.296  22.163  0.00  0.00    +0.000 C 
BRANCH  32  34
ATOM     33  C   UNL     1      -2.103  14.713  22.972  0.00  0.00    +0.000 C 
ATOM     34  C   UNL     1      -1.273  13.637  22.266  0.00  0.00    +0.000 C 
ATOM     35  C   UNL     1      -0.789  14.142  20.903  0.00  0.00    +0.000 C 
BRANCH  34  36
ATOM     36  O   UNL     1      -0.108  13.406  23.080  0.00  0.00    +0.000 OA
ATOM     37  H   UNL     1      -0.009  12.444  23.201  0.00  0.00    +0.000 HD
ENDBRANCH  34  36
ENDBRANCH  32  34
ENDBRANCH  27  32
ENDBRANCH  22  29
ENDBRANCH   1  24
TORSDOF 9
ENDMDL
MODEL 7
REMARK VINA RESULT:      -7.6      4.348      7.286
REMARK  Name = 
REMARK  11 active torsions:
REMARK  status: ('A' for Active; 'I' for Inactive)
REMARK    1  A    between atoms: C_1  and  C_2
REMARK    2  A    between atoms: C_2  and  C_3
REMARK    3  A    between atoms: C_2  and  O_4
REMARK    4  A    between atoms: C_2  and  C_5
REMARK    5  A    between atoms: C_5  and  N_6
REMARK    6  A    between atoms: C_8  and  C_9
REMARK    7  A    between atoms: C_11  and  C_12
REMARK    8  A    between atoms: C_12  and  C_13
REMARK    9  A    between atoms: C_16  and  C_17
REMARK   10  A    between atoms: C_20  and  N_21
REMARK   11  A    between atoms: C_22  and  C_23
REMARK                            x       y       z     vdW  Elec       q    Type
REMARK                         _______ _______ _______ _____ _____    ______ ____
ROOT
ATOM      1  C   UNL     1       0.240  11.852  19.487  0.00  0.00    +0.000 C 
ATOM      2  C   UNL     1      -1.121  12.013  20.270  0.00  0.00    +0.000 C 
ATOM      3  C   UNL     1      -1.844  11.904  18.916  0.00  0.00    +0.000 C 
ATOM      4  C   UNL     1      -0.550  12.425  18.252  0.00  0.00    +0.000 C 
ENDROOT
BRANCH   1   5
ATOM      5  C   UNL     1       0.808  10.351  19.327  0.00  0.00    +0.000 A 
ATOM      6  C   UNL     1       1.346   9.885  18.117  0.00  0.00    +0.000 A 
ATOM      7  C   UNL     1       1.942   8.628  18.015  0.00  0.00    +0.000 A 
ATOM      8  C   UNL     1       1.992   7.805  19.134  0.00  0.00    +0.000 A 
ATOM      9  N   UNL     1       1.433   8.189  20.306  0.00  0.00    +0.000 NA
ATOM     10  C   UNL     1       0.856   9.419  20.367  0.00  0.00    +0.000 A 
BRANCH   8  11
ATOM     11  C   UNL     1       2.726   6.529  19.154  0.00  0.00    +0.000 A 
ATOM     12  C   UNL     1       3.823   6.271  18.335  0.00  0.00    +0.000 A 
ATOM     13  N   UNL     1       4.598   5.156  18.390  0.00  0.00    +0.000 NA
ATOM     14  C   UNL     1       4.276   4.215  19.298  0.00  0.00    +0.000 A 
ATOM     15  C   UNL     1       3.176   4.345  20.139  0.00  0.00    +0.000 A 
ATOM     16  C   UNL     1       2.396   5.506  20.053  0.00  0.00    +0.000 A 
BRANCH  14  17
ATOM     17  N   UNL     1       5.179   3.159  19.382  0.00  0.00    +0.000 N 
ATOM     18  H   UNL     1       4.911   2.460  18.692  0.00  0.00    +0.000 HD
ATOM     19  H   UNL     1       5.277   2.769  20.312  0.00  0.00    +0.000 HD
ENDBRANCH  14  17
BRANCH  15  20
ATOM     20  C   UNL     1       2.837   3.332  21.087  0.00  0.00    +0.000 C 
ATOM     21  N   UNL     1       2.588   2.505  21.864  0.00  0.00    +0.000 NA
ENDBRANCH  15  20
ENDBRANCH   8  11
ENDBRANCH   1   5
BRANCH   1  24
ATOM     22  C   UNL     1       2.948  14.183  19.992  0.00  0.00    +0.000 A 
ATOM     23  N   UNL     1       2.056  13.662  19.170  0.00  0.00    +0.000 NA
ATOM     24  C   UNL     1       1.362  12.792  19.984  0.00  0.00    +0.000 A 
ATOM     25  N   UNL     1       1.778  12.783  21.258  0.00  0.00    +0.000 NA
ATOM     26  O   UNL     1       2.834  13.682  21.263  0.00  0.00    +0.000 OA
BRANCH  22  29
ATOM     27  N   UNL     1       5.816  16.178  18.967  0.00  0.00    +0.000 N 
ATOM     28  C   UNL     1       5.225  14.949  19.091  0.00  0.00    +0.000 A 
ATOM     29  C   UNL     1       3.982  15.182  19.630  0.00  0.00    +0.000 A 
ATOM     30  C   UNL     1       3.902  16.580  19.767  0.00  0.00    +0.000 A 
ATOM     31  N   UNL     1       5.018  17.192  19.363  0.00  0.00    +0.000 NA
BRANCH  27  32
ATOM     32  C   UNL     1       7.141  16.464  18.454  0.00  0.00    +0.000 C 
BRANCH  32  34
ATOM     33  C   UNL     1       9.489  17.306  18.982  0.00  0.00    +0.000 C 
ATOM     34  C   UNL     1       8.241  16.603  19.525  0.00  0.00    +0.000 C 
ATOM     35  C   UNL     1       8.616  15.258  20.156  0.00  0.00    +0.000 C 
BRANCH  34  36
ATOM     36  O   UNL     1       7.711  17.439  20.570  0.00  0.00    +0.000 OA
ATOM     37  H   UNL     1       7.248  16.867  21.209  0.00  0.00    +0.000 HD
ENDBRANCH  34  36
ENDBRANCH  32  34
ENDBRANCH  27  32
ENDBRANCH  22  29
ENDBRANCH   1  24
TORSDOF 9
ENDMDL
MODEL 8
REMARK VINA RESULT:      -7.5      3.609      7.254
REMARK  Name = 
REMARK  11 active torsions:
REMARK  status: ('A' for Active; 'I' for Inactive)
REMARK    1  A    between atoms: C_1  and  C_2
REMARK    2  A    between atoms: C_2  and  C_3
REMARK    3  A    between atoms: C_2  and  O_4
REMARK    4  A    between atoms: C_2  and  C_5
REMARK    5  A    between atoms: C_5  and  N_6
REMARK    6  A    between atoms: C_8  and  C_9
REMARK    7  A    between atoms: C_11  and  C_12
REMARK    8  A    between atoms: C_12  and  C_13
REMARK    9  A    between atoms: C_16  and  C_17
REMARK   10  A    between atoms: C_20  and  N_21
REMARK   11  A    between atoms: C_22  and  C_23
REMARK                            x       y       z     vdW  Elec       q    Type
REMARK                         _______ _______ _______ _____ _____    ______ ____
ROOT
ATOM      1  C   UNL     1       0.259  11.911  19.984  0.00  0.00    +0.000 C 
ATOM      2  C   UNL     1      -0.104  12.067  21.511  0.00  0.00    +0.000 C 
ATOM      3  C   UNL     1      -1.534  11.623  21.155  0.00  0.00    +0.000 C 
ATOM      4  C   UNL     1      -1.275  12.147  19.725  0.00  0.00    +0.000 C 
ENDROOT
BRANCH   1   5
ATOM      5  C   UNL     1       0.841  10.479  19.523  0.00  0.00    +0.000 A 
ATOM      6  C   UNL     1       1.153  10.201  18.182  0.00  0.00    +0.000 A 
ATOM      7  C   UNL     1       1.763   9.005  17.805  0.00  0.00    +0.000 A 
ATOM      8  C   UNL     1       2.059   8.055  18.775  0.00  0.00    +0.000 A 
ATOM      9  N   UNL     1       1.723   8.256  20.071  0.00  0.00    +0.000 NA
ATOM     10  C   UNL     1       1.123   9.431  20.402  0.00  0.00    +0.000 A 
BRANCH   8  11
ATOM     11  C   UNL     1       2.829   6.833  18.488  0.00  0.00    +0.000 A 
ATOM     12  C   UNL     1       2.591   5.618  19.127  0.00  0.00    +0.000 A 
ATOM     13  N   UNL     1       3.198   4.441  18.823  0.00  0.00    +0.000 NA
ATOM     14  C   UNL     1       4.114   4.445  17.836  0.00  0.00    +0.000 A 
ATOM     15  C   UNL     1       4.464   5.608  17.158  0.00  0.00    +0.000 A 
ATOM     16  C   UNL     1       3.822   6.806  17.499  0.00  0.00    +0.000 A 
BRANCH  14  17
ATOM     17  N   UNL     1       4.606   3.188  17.497  0.00  0.00    +0.000 N 
ATOM     18  H   UNL     1       5.098   3.271  16.610  0.00  0.00    +0.000 HD
ATOM     19  H   UNL     1       3.905   2.456  17.486  0.00  0.00    +0.000 HD
ENDBRANCH  14  17
BRANCH  15  20
ATOM     20  C   UNL     1       5.449   5.602  16.124  0.00  0.00    +0.000 C 
ATOM     21  N   UNL     1       6.249   5.624  15.282  0.00  0.00    +0.000 NA
ENDBRANCH  15  20
ENDBRANCH   8  11
ENDBRANCH   1   5
BRANCH   1  24
ATOM     22  C   UNL     1       2.832  14.268  19.064  0.00  0.00    +0.000 A 
ATOM     23  N   UNL     1       2.516  13.116  19.625  0.00  0.00    +0.000 NA
ATOM     24  C   UNL     1       1.153  13.047  19.435  0.00  0.00    +0.000 A 
ATOM     25  N   UNL     1       0.639  14.089  18.767  0.00  0.00    +0.000 NA
ATOM     26  O   UNL     1       1.737  14.905  18.539  0.00  0.00    +0.000 OA
BRANCH  22  29
ATOM     27  N   UNL     1       6.249  15.361  18.446  0.00  0.00    +0.000 N 
ATOM     28  C   UNL     1       5.171  14.607  18.066  0.00  0.00    +0.000 A 
ATOM     29  C   UNL     1       4.191  14.858  18.997  0.00  0.00    +0.000 A 
ATOM     30  C   UNL     1       4.758  15.797  19.879  0.00  0.00    +0.000 A 
ATOM     31  N   UNL     1       6.014  16.107  19.545  0.00  0.00    +0.000 NA
BRANCH  27  32
ATOM     32  C   UNL     1       7.539  15.438  17.789  0.00  0.00    +0.000 C 
BRANCH  32  34
ATOM     33  C   UNL     1      10.028  14.999  18.123  0.00  0.00    +0.000 C 
ATOM     34  C   UNL     1       8.607  14.466  18.328  0.00  0.00    +0.000 C 
ATOM     35  C   UNL     1       8.471  13.060  17.736  0.00  0.00    +0.000 C 
BRANCH  34  36
ATOM     36  O   UNL     1       8.401  14.359  19.749  0.00  0.00    +0.000 OA
ATOM     37  H   UNL     1       9.274  14.357  20.182  0.00  0.00    +0.000 HD
ENDBRANCH  34  36
ENDBRANCH  32  34
ENDBRANCH  27  32
ENDBRANCH  22  29
ENDBRANCH   1  24
TORSDOF 9
ENDMDL
MODEL 9
REMARK VINA RESULT:      -7.5      3.996      7.096
REMARK  Name = 
REMARK  11 active torsions:
REMARK  status: ('A' for Active; 'I' for Inactive)
REMARK    1  A    between atoms: C_1  and  C_2
REMARK    2  A    between atoms: C_2  and  C_3
REMARK    3  A    between atoms: C_2  and  O_4
REMARK    4  A    between atoms: C_2  and  C_5
REMARK    5  A    between atoms: C_5  and  N_6
REMARK    6  A    between atoms: C_8  and  C_9
REMARK    7  A    between atoms: C_11  and  C_12
REMARK    8  A    between atoms: C_12  and  C_13
REMARK    9  A    between atoms: C_16  and  C_17
REMARK   10  A    between atoms: C_20  and  N_21
REMARK   11  A    between atoms: C_22  and  C_23
REMARK                            x       y       z     vdW  Elec       q    Type
REMARK                         _______ _______ _______ _____ _____    ______ ____
ROOT
ATOM      1  C   UNL     1      -0.435  11.569  18.791  0.00  0.00    +0.000 C 
ATOM      2  C   UNL     1      -1.645  11.701  19.794  0.00  0.00    +0.000 C 
ATOM      3  C   UNL     1      -2.506  10.952  18.760  0.00  0.00    +0.000 C 
ATOM      4  C   UNL     1      -1.537  11.466  17.673  0.00  0.00    +0.000 C 
ENDROOT
BRANCH   1   5
ATOM      5  C   UNL     1       0.513  10.276  18.970  0.00  0.00    +0.000 A 
ATOM      6  C   UNL     1       0.700   9.658  20.217  0.00  0.00    +0.000 A 
ATOM      7  C   UNL     1       1.424   8.473  20.347  0.00  0.00    +0.000 A 
ATOM      8  C   UNL     1       1.991   7.894  19.218  0.00  0.00    +0.000 A 
ATOM      9  N   UNL     1       1.886   8.486  18.005  0.00  0.00    +0.000 NA
ATOM     10  C   UNL     1       1.177   9.643  17.916  0.00  0.00    +0.000 A 
BRANCH   8  11
ATOM     11  C   UNL     1       2.646   6.576  19.240  0.00  0.00    +0.000 A 
ATOM     12  C   UNL     1       3.733   6.254  18.431  0.00  0.00    +0.000 A 
ATOM     13  N   UNL     1       4.439   5.094  18.489  0.00  0.00    +0.000 NA
ATOM     14  C   UNL     1       4.052   4.171  19.391  0.00  0.00    +0.000 A 
ATOM     15  C   UNL     1       2.954   4.365  20.222  0.00  0.00    +0.000 A 
ATOM     16  C   UNL     1       2.246   5.571  20.133  0.00  0.00    +0.000 A 
BRANCH  14  17
ATOM     17  N   UNL     1       4.889   3.063  19.480  0.00  0.00    +0.000 N 
ATOM     18  H   UNL     1       5.816   3.341  19.167  0.00  0.00    +0.000 HD
ATOM     19  H   UNL     1       4.544   2.242  18.994  0.00  0.00    +0.000 HD
ENDBRANCH  14  17
BRANCH  15  20
ATOM     20  C   UNL     1       2.545   3.372  21.163  0.00  0.00    +0.000 C 
ATOM     21  N   UNL     1       2.194   2.581  21.938  0.00  0.00    +0.000 NA
ENDBRANCH  15  20
ENDBRANCH   8  11
ENDBRANCH   1   5
BRANCH   1  24
ATOM     22  C   UNL     1       2.102  14.130  18.617  0.00  0.00    +0.000 A 
ATOM     23  N   UNL     1       1.806  12.843  18.619  0.00  0.00    +0.000 NA
ATOM     24  C   UNL     1       0.429  12.846  18.682  0.00  0.00    +0.000 A 
ATOM     25  N   UNL     1      -0.117  14.071  18.694  0.00  0.00    +0.000 NA
ATOM     26  O   UNL     1       0.981  14.918  18.672  0.00  0.00    +0.000 OA
BRANCH  22  29
ATOM     27  N   UNL     1       5.563  15.200  18.977  0.00  0.00    +0.000 N 
ATOM     28  C   UNL     1       4.543  14.375  19.369  0.00  0.00    +0.000 A 
ATOM     29  C   UNL     1       3.467  14.706  18.579  0.00  0.00    +0.000 A 
ATOM     30  C   UNL     1       3.943  15.716  17.722  0.00  0.00    +0.000 A 
ATOM     31  N   UNL     1       5.221  16.020  17.961  0.00  0.00    +0.000 NA
BRANCH  27  32
ATOM     32  C   UNL     1       6.907  15.245  19.516  0.00  0.00    +0.000 C 
BRANCH  32  34
ATOM     33  C   UNL     1       8.846  13.640  19.105  0.00  0.00    +0.000 C 
ATOM     34  C   UNL     1       8.018  14.800  18.543  0.00  0.00    +0.000 C 
ATOM     35  C   UNL     1       8.930  15.958  18.129  0.00  0.00    +0.000 C 
BRANCH  34  36
ATOM     36  O   UNL     1       7.368  14.314  17.354  0.00  0.00    +0.000 OA
ATOM     37  H   UNL     1       6.425  14.178  17.559  0.00  0.00    +0.000 HD
ENDBRANCH  34  36
ENDBRANCH  32  34
ENDBRANCH  27  32
ENDBRANCH  22  29
ENDBRANCH   1  24
TORSDOF 9
ENDMDL
