MODEL 1
REMARK VINA RESULT:      -7.3      0.000      0.000
REMARK  Name = 
REMARK  3 active torsions:
REMARK  status: ('A' for Active; 'I' for Inactive)
REMARK    1  A    between atoms: N_2  and  C_4
REMARK    2  A    between atoms: C_7  and  S_8
REMARK    3  A    between atoms: S_8  and  C_9
REMARK                            x       y       z     vdW  Elec       q    Type
REMARK                         _______ _______ _______ _____ _____    ______ ____
ROOT
ATOM      1  S   UNL     1       6.081   4.943  18.415  0.00  0.00    +0.000 S 
ENDROOT
BRANCH   1   2
ATOM      2  C   UNL     1       4.350   5.289  18.779  0.00  0.00    +0.000 A 
ATOM      3  C   UNL     1       3.875   6.554  18.385  0.00  0.00    +0.000 A 
ATOM      4  C   UNL     1       2.634   7.008  18.816  0.00  0.00    +0.000 A 
ATOM      5  C   UNL     1       1.879   6.218  19.675  0.00  0.00    +0.000 A 
ATOM      6  C   UNL     1       2.344   4.953  20.071  0.00  0.00    +0.000 A 
ATOM      7  C   UNL     1       1.604   4.184  20.981  0.00  0.00    +0.000 A 
ATOM      8  C   UNL     1       2.053   2.926  21.355  0.00  0.00    +0.000 A 
ATOM      9  C   UNL     1       3.225   2.471  20.793  0.00  0.00    +0.000 A 
ATOM     10  N   UNL     1       3.987   3.199  19.949  0.00  0.00    +0.000 NA
ATOM     11  C   UNL     1       3.574   4.441  19.593  0.00  0.00    +0.000 A 
ENDBRANCH   1   2
BRANCH   1  15
ATOM     12  C   UNL     1       6.331   4.111  13.928  0.00  0.00    +0.000 A 
ATOM     13  C   UNL     1       7.325   4.875  14.553  0.00  0.00    +0.000 A 
ATOM     14  C   UNL     1       7.209   5.176  15.914  0.00  0.00    +0.000 A 
ATOM     15  C   UNL     1       6.110   4.719  16.652  0.00  0.00    +0.000 A 
ATOM     16  C   UNL     1       5.124   3.955  16.015  0.00  0.00    +0.000 A 
ATOM     17  C   UNL     1       5.224   3.652  14.653  0.00  0.00    +0.000 A 
BRANCH  12  19
ATOM     18  O   UNL     1       7.329   4.372  11.847  0.00  0.00    +0.000 OA
ATOM     19  N   UNL     1       6.468   3.767  12.505  0.00  0.00    +0.000 N 
ATOM     20  O   UNL     1       5.720   2.891  12.052  0.00  0.00    +0.000 OA
ENDBRANCH  12  19
ENDBRANCH   1  15
TORSDOF 3
ENDMDL
MODEL 2
REMARK VINA RESULT:      -7.2      0.338      1.133
REMARK  Name = 
REMARK  3 active torsions:
REMARK  status: ('A' for Active; 'I' for Inactive)
REMARK    1  A    between atoms: N_2  and  C_4
REMARK    2  A    between atoms: C_7  and  S_8
REMARK    3  A    between atoms: S_8  and  C_9
REMARK                            x       y       z     vdW  Elec       q    Type
REMARK                         _______ _______ _______ _____ _____    ______ ____
ROOT
ATOM      1  S   UNL     1       6.222   5.287  18.445  0.00  0.00    +0.000 S 
ENDROOT
BRANCH   1   2
ATOM      2  C   UNL     1       4.465   5.450  18.809  0.00  0.00    +0.000 A 
ATOM      3  C   UNL     1       3.873   6.679  18.467  0.00  0.00    +0.000 A 
ATOM      4  C   UNL     1       2.592   6.993  18.906  0.00  0.00    +0.000 A 
ATOM      5  C   UNL     1       1.912   6.097  19.723  0.00  0.00    +0.000 A 
ATOM      6  C   UNL     1       2.494   4.866  20.068  0.00  0.00    +0.000 A 
ATOM      7  C   UNL     1       1.828   3.990  20.937  0.00  0.00    +0.000 A 
ATOM      8  C   UNL     1       2.394   2.766  21.260  0.00  0.00    +0.000 A 
ATOM      9  C   UNL     1       3.607   2.450  20.688  0.00  0.00    +0.000 A 
ATOM     10  N   UNL     1       4.298   3.285  19.883  0.00  0.00    +0.000 NA
ATOM     11  C   UNL     1       3.770   4.496  19.579  0.00  0.00    +0.000 A 
ENDBRANCH   1   2
BRANCH   1  15
ATOM     12  C   UNL     1       6.140   4.070  14.041  0.00  0.00    +0.000 A 
ATOM     13  C   UNL     1       5.123   3.642  14.903  0.00  0.00    +0.000 A 
ATOM     14  C   UNL     1       5.187   3.968  16.261  0.00  0.00    +0.000 A 
ATOM     15  C   UNL     1       6.259   4.717  16.762  0.00  0.00    +0.000 A 
ATOM     16  C   UNL     1       7.270   5.140  15.890  0.00  0.00    +0.000 A 
ATOM     17  C   UNL     1       7.221   4.815  14.530  0.00  0.00    +0.000 A 
BRANCH  12  19
ATOM     18  O   UNL     1       7.079   3.917  11.922  0.00  0.00    +0.000 OA
ATOM     19  N   UNL     1       6.057   3.756  12.607  0.00  0.00    +0.000 N 
ATOM     20  O   UNL     1       4.974   3.344  12.171  0.00  0.00    +0.000 OA
ENDBRANCH  12  19
ENDBRANCH   1  15
TORSDOF 3
ENDMDL
MODEL 3
REMARK VINA RESULT:      -7.0      1.468      1.990
REMARK  Name = 
REMARK  3 active torsions:
REMARK  status: ('A' for Active; 'I' for Inactive)
REMARK    1  A    between atoms: N_2  and  C_4
REMARK    2  A    between atoms: C_7  and  S_8
REMARK    3  A    between atoms: S_8  and  C_9
REMARK                            x       y       z     vdW  Elec       q    Type
REMARK                         _______ _______ _______ _____ _____    ______ ____
ROOT
ATOM      1  S   UNL     1       5.490   5.507  19.318  0.00  0.00    +0.000 S 
ENDROOT
BRANCH   1   2
ATOM      2  C   UNL     1       3.715   5.230  19.444  0.00  0.00    +0.000 A 
ATOM      3  C   UNL     1       2.963   6.274  20.015  0.00  0.00    +0.000 A 
ATOM      4  C   UNL     1       1.632   6.076  20.365  0.00  0.00    +0.000 A 
ATOM      5  C   UNL     1       1.058   4.824  20.184  0.00  0.00    +0.000 A 
ATOM      6  C   UNL     1       1.799   3.776  19.612  0.00  0.00    +0.000 A 
ATOM      7  C   UNL     1       1.232   2.501  19.482  0.00  0.00    +0.000 A 
ATOM      8  C   UNL     1       1.958   1.473  18.897  0.00  0.00    +0.000 A 
ATOM      9  C   UNL     1       3.227   1.761  18.446  0.00  0.00    +0.000 A 
ATOM     10  N   UNL     1       3.822   2.964  18.594  0.00  0.00    +0.000 NA
ATOM     11  C   UNL     1       3.135   3.972  19.186  0.00  0.00    +0.000 A 
ENDBRANCH   1   2
BRANCH   1  15
ATOM     12  C   UNL     1       6.585   4.909  14.922  0.00  0.00    +0.000 A 
ATOM     13  C   UNL     1       5.415   5.598  15.263  0.00  0.00    +0.000 A 
ATOM     14  C   UNL     1       5.056   5.725  16.608  0.00  0.00    +0.000 A 
ATOM     15  C   UNL     1       5.857   5.168  17.613  0.00  0.00    +0.000 A 
ATOM     16  C   UNL     1       7.025   4.481  17.259  0.00  0.00    +0.000 A 
ATOM     17  C   UNL     1       7.393   4.342  15.916  0.00  0.00    +0.000 A 
BRANCH  12  19
ATOM     18  O   UNL     1       6.395   3.963  12.809  0.00  0.00    +0.000 OA
ATOM     19  N   UNL     1       6.980   4.803  13.510  0.00  0.00    +0.000 N 
ATOM     20  O   UNL     1       7.870   5.563  13.104  0.00  0.00    +0.000 OA
ENDBRANCH  12  19
ENDBRANCH   1  15
TORSDOF 3
ENDMDL
MODEL 4
REMARK VINA RESULT:      -7.0      1.494      1.766
REMARK  Name = 
REMARK  3 active torsions:
REMARK  status: ('A' for Active; 'I' for Inactive)
REMARK    1  A    between atoms: N_2  and  C_4
REMARK    2  A    between atoms: C_7  and  S_8
REMARK    3  A    between atoms: S_8  and  C_9
REMARK                            x       y       z     vdW  Elec       q    Type
REMARK                         _______ _______ _______ _____ _____    ______ ____
ROOT
ATOM      1  S   UNL     1       5.619   5.449  19.402  0.00  0.00    +0.000 S 
ENDROOT
BRANCH   1   2
ATOM      2  C   UNL     1       3.842   5.152  19.434  0.00  0.00    +0.000 A 
ATOM      3  C   UNL     1       3.053   6.170  20.001  0.00  0.00    +0.000 A 
ATOM      4  C   UNL     1       1.709   5.950  20.281  0.00  0.00    +0.000 A 
ATOM      5  C   UNL     1       1.157   4.698  20.033  0.00  0.00    +0.000 A 
ATOM      6  C   UNL     1       1.936   3.677  19.464  0.00  0.00    +0.000 A 
ATOM      7  C   UNL     1       1.389   2.401  19.267  0.00  0.00    +0.000 A 
ATOM      8  C   UNL     1       2.152   1.399  18.686  0.00  0.00    +0.000 A 
ATOM      9  C   UNL     1       3.438   1.712  18.306  0.00  0.00    +0.000 A 
ATOM     10  N   UNL     1       4.013   2.915  18.519  0.00  0.00    +0.000 NA
ATOM     11  C   UNL     1       3.288   3.898  19.110  0.00  0.00    +0.000 A 
ENDBRANCH   1   2
BRANCH   1  15
ATOM     12  C   UNL     1       6.543   4.913  14.958  0.00  0.00    +0.000 A 
ATOM     13  C   UNL     1       7.404   4.371  15.921  0.00  0.00    +0.000 A 
ATOM     14  C   UNL     1       7.146   4.591  17.278  0.00  0.00    +0.000 A 
ATOM     15  C   UNL     1       6.038   5.347  17.677  0.00  0.00    +0.000 A 
ATOM     16  C   UNL     1       5.184   5.883  16.705  0.00  0.00    +0.000 A 
ATOM     17  C   UNL     1       5.433   5.676  15.344  0.00  0.00    +0.000 A 
BRANCH  12  19
ATOM     18  O   UNL     1       7.642   5.358  12.961  0.00  0.00    +0.000 OA
ATOM     19  N   UNL     1       6.794   4.656  13.533  0.00  0.00    +0.000 N 
ATOM     20  O   UNL     1       6.148   3.749  12.991  0.00  0.00    +0.000 OA
ENDBRANCH  12  19
ENDBRANCH   1  15
TORSDOF 3
ENDMDL
MODEL 5
REMARK VINA RESULT:      -7.0      4.493      7.121
REMARK  Name = 
REMARK  3 active torsions:
REMARK  status: ('A' for Active; 'I' for Inactive)
REMARK    1  A    between atoms: N_2  and  C_4
REMARK    2  A    between atoms: C_7  and  S_8
REMARK    3  A    between atoms: S_8  and  C_9
REMARK                            x       y       z     vdW  Elec       q    Type
REMARK                         _______ _______ _______ _____ _____    ______ ____
ROOT
ATOM      1  S   UNL     1       3.089   4.678  18.390  0.00  0.00    +0.000 S 
ENDROOT
BRANCH   1   2
ATOM      2  C   UNL     1       4.877   4.783  18.190  0.00  0.00    +0.000 A 
ATOM      3  C   UNL     1       5.603   5.207  19.319  0.00  0.00    +0.000 A 
ATOM      4  C   UNL     1       6.948   5.538  19.209  0.00  0.00    +0.000 A 
ATOM      5  C   UNL     1       7.565   5.486  17.965  0.00  0.00    +0.000 A 
ATOM      6  C   UNL     1       6.849   5.061  16.833  0.00  0.00    +0.000 A 
ATOM      7  C   UNL     1       7.460   5.063  15.571  0.00  0.00    +0.000 A 
ATOM      8  C   UNL     1       6.759   4.623  14.458  0.00  0.00    +0.000 A 
ATOM      9  C   UNL     1       5.469   4.180  14.647  0.00  0.00    +0.000 A 
ATOM     10  N   UNL     1       4.833   4.204  15.838  0.00  0.00    +0.000 NA
ATOM     11  C   UNL     1       5.496   4.655  16.932  0.00  0.00    +0.000 A 
ENDBRANCH   1   2
BRANCH   1  15
ATOM     12  C   UNL     1       1.571   8.858  19.442  0.00  0.00    +0.000 A 
ATOM     13  C   UNL     1       2.059   8.596  18.156  0.00  0.00    +0.000 A 
ATOM     14  C   UNL     1       2.578   7.331  17.860  0.00  0.00    +0.000 A 
ATOM     15  C   UNL     1       2.612   6.330  18.839  0.00  0.00    +0.000 A 
ATOM     16  C   UNL     1       2.119   6.605  20.121  0.00  0.00    +0.000 A 
ATOM     17  C   UNL     1       1.604   7.867  20.432  0.00  0.00    +0.000 A 
BRANCH  12  19
ATOM     18  O   UNL     1       0.416  10.316  20.834  0.00  0.00    +0.000 OA
ATOM     19  N   UNL     1       0.996  10.177  19.746  0.00  0.00    +0.000 N 
ATOM     20  O   UNL     1       1.131  11.070  18.899  0.00  0.00    +0.000 OA
ENDBRANCH  12  19
ENDBRANCH   1  15
TORSDOF 3
ENDMDL
MODEL 6
REMARK VINA RESULT:      -7.0      4.418      7.194
REMARK  Name = 
REMARK  3 active torsions:
REMARK  status: ('A' for Active; 'I' for Inactive)
REMARK    1  A    between atoms: N_2  and  C_4
REMARK    2  A    between atoms: C_7  and  S_8
REMARK    3  A    between atoms: S_8  and  C_9
REMARK                            x       y       z     vdW  Elec       q    Type
REMARK                         _______ _______ _______ _____ _____    ______ ____
ROOT
ATOM      1  S   UNL     1       3.211   4.074  18.246  0.00  0.00    +0.000 S 
ENDROOT
BRANCH   1   2
ATOM      2  C   UNL     1       4.960   4.474  18.081  0.00  0.00    +0.000 A 
ATOM      3  C   UNL     1       5.596   4.965  19.237  0.00  0.00    +0.000 A 
ATOM      4  C   UNL     1       6.872   5.512  19.163  0.00  0.00    +0.000 A 
ATOM      5  C   UNL     1       7.501   5.610  17.927  0.00  0.00    +0.000 A 
ATOM      6  C   UNL     1       6.876   5.120  16.769  0.00  0.00    +0.000 A 
ATOM      7  C   UNL     1       7.493   5.270  15.518  0.00  0.00    +0.000 A 
ATOM      8  C   UNL     1       6.884   4.767  14.378  0.00  0.00    +0.000 A 
ATOM      9  C   UNL     1       5.681   4.114  14.529  0.00  0.00    +0.000 A 
ATOM     10  N   UNL     1       5.036   3.989  15.709  0.00  0.00    +0.000 NA
ATOM     11  C   UNL     1       5.606   4.498  16.829  0.00  0.00    +0.000 A 
ENDBRANCH   1   2
BRANCH   1  15
ATOM     12  C   UNL     1       1.661   7.912  20.183  0.00  0.00    +0.000 A 
ATOM     13  C   UNL     1       1.567   6.696  20.871  0.00  0.00    +0.000 A 
ATOM     14  C   UNL     1       1.989   5.517  20.247  0.00  0.00    +0.000 A 
ATOM     15  C   UNL     1       2.501   5.546  18.944  0.00  0.00    +0.000 A 
ATOM     16  C   UNL     1       2.590   6.769  18.268  0.00  0.00    +0.000 A 
ATOM     17  C   UNL     1       2.167   7.955  18.878  0.00  0.00    +0.000 A 
BRANCH  12  19
ATOM     18  O   UNL     1       0.898  10.105  20.131  0.00  0.00    +0.000 OA
ATOM     19  N   UNL     1       1.248   9.156  20.849  0.00  0.00    +0.000 N 
ATOM     20  O   UNL     1       1.271   9.179  22.087  0.00  0.00    +0.000 OA
ENDBRANCH  12  19
ENDBRANCH   1  15
TORSDOF 3
ENDMDL
MODEL 7
REMARK VINA RESULT:      -6.8      3.126      4.551
REMARK  Name = 
REMARK  3 active torsions:
REMARK  status: ('A' for Active; 'I' for Inactive)
REMARK    1  A    between atoms: N_2  and  C_4
REMARK    2  A    between atoms: C_7  and  S_8
REMARK    3  A    between atoms: S_8  and  C_9
REMARK                            x       y       z     vdW  Elec       q    Type
REMARK                         _______ _______ _______ _____ _____    ______ ____
ROOT
ATOM      1  S   UNL     1       2.518   5.753  20.190  0.00  0.00    +0.000 S 
ENDROOT
BRANCH   1   2
ATOM      2  C   UNL     1       1.972   7.310  19.467  0.00  0.00    +0.000 A 
ATOM      3  C   UNL     1       2.404   7.568  18.153  0.00  0.00    +0.000 A 
ATOM      4  C   UNL     1       2.232   8.827  17.587  0.00  0.00    +0.000 A 
ATOM      5  C   UNL     1       1.667   9.844  18.346  0.00  0.00    +0.000 A 
ATOM      6  C   UNL     1       1.230   9.595  19.658  0.00  0.00    +0.000 A 
ATOM      7  C   UNL     1       0.710  10.639  20.438  0.00  0.00    +0.000 A 
ATOM      8  C   UNL     1       0.260  10.387  21.725  0.00  0.00    +0.000 A 
ATOM      9  C   UNL     1       0.331   9.091  22.187  0.00  0.00    +0.000 A 
ATOM     10  N   UNL     1       0.865   8.071  21.483  0.00  0.00    +0.000 NA
ATOM     11  C   UNL     1       1.333   8.306  20.232  0.00  0.00    +0.000 A 
ENDBRANCH   1   2
BRANCH   1  15
ATOM     12  C   UNL     1       5.683   4.526  17.130  0.00  0.00    +0.000 A 
ATOM     13  C   UNL     1       4.338   4.198  16.914  0.00  0.00    +0.000 A 
ATOM     14  C   UNL     1       3.385   4.524  17.884  0.00  0.00    +0.000 A 
ATOM     15  C   UNL     1       3.766   5.173  19.065  0.00  0.00    +0.000 A 
ATOM     16  C   UNL     1       5.113   5.496  19.268  0.00  0.00    +0.000 A 
ATOM     17  C   UNL     1       6.078   5.170  18.309  0.00  0.00    +0.000 A 
BRANCH  12  19
ATOM     18  O   UNL     1       7.872   4.449  16.356  0.00  0.00    +0.000 OA
ATOM     19  N   UNL     1       6.681   4.213  16.097  0.00  0.00    +0.000 N 
ATOM     20  O   UNL     1       6.274   3.726  15.034  0.00  0.00    +0.000 OA
ENDBRANCH  12  19
ENDBRANCH   1  15
TORSDOF 3
ENDMDL
MODEL 8
REMARK VINA RESULT:      -6.8      4.254      6.817
REMARK  Name = 
REMARK  3 active torsions:
REMARK  status: ('A' for Active; 'I' for Inactive)
REMARK    1  A    between atoms: N_2  and  C_4
REMARK    2  A    between atoms: C_7  and  S_8
REMARK    3  A    between atoms: S_8  and  C_9
REMARK                            x       y       z     vdW  Elec       q    Type
REMARK                         _______ _______ _______ _____ _____    ______ ____
ROOT
ATOM      1  S   UNL     1       3.498   4.357  19.088  0.00  0.00    +0.000 S 
ENDROOT
BRANCH   1   2
ATOM      2  C   UNL     1       5.191   4.669  18.558  0.00  0.00    +0.000 A 
ATOM      3  C   UNL     1       6.040   5.260  19.512  0.00  0.00    +0.000 A 
ATOM      4  C   UNL     1       7.288   5.748  19.142  0.00  0.00    +0.000 A 
ATOM      5  C   UNL     1       7.677   5.684  17.809  0.00  0.00    +0.000 A 
ATOM      6  C   UNL     1       6.838   5.093  16.850  0.00  0.00    +0.000 A 
ATOM      7  C   UNL     1       7.212   5.080  15.498  0.00  0.00    +0.000 A 
ATOM      8  C   UNL     1       6.392   4.478  14.556  0.00  0.00    +0.000 A 
ATOM      9  C   UNL     1       5.228   3.892  15.000  0.00  0.00    +0.000 A 
ATOM     10  N   UNL     1       4.814   3.922  16.285  0.00  0.00    +0.000 NA
ATOM     11  C   UNL     1       5.591   4.530  17.215  0.00  0.00    +0.000 A 
ENDBRANCH   1   2
BRANCH   1  15
ATOM     12  C   UNL     1       1.790   8.595  19.030  0.00  0.00    +0.000 A 
ATOM     13  C   UNL     1       1.709   7.826  20.197  0.00  0.00    +0.000 A 
ATOM     14  C   UNL     1       2.179   6.509  20.189  0.00  0.00    +0.000 A 
ATOM     15  C   UNL     1       2.728   5.958  19.024  0.00  0.00    +0.000 A 
ATOM     16  C   UNL     1       2.805   6.738  17.864  0.00  0.00    +0.000 A 
ATOM     17  C   UNL     1       2.332   8.055  17.857  0.00  0.00    +0.000 A 
BRANCH  12  19
ATOM     18  O   UNL     1       0.367  10.270  19.784  0.00  0.00    +0.000 OA
ATOM     19  N   UNL     1       1.325   9.990  19.047  0.00  0.00    +0.000 N 
ATOM     20  O   UNL     1       1.923  10.803  18.329  0.00  0.00    +0.000 OA
ENDBRANCH  12  19
ENDBRANCH   1  15
TORSDOF 3
ENDMDL
MODEL 9
REMARK VINA RESULT:      -6.7      1.203      1.308
REMARK  Name = 
REMARK  3 active torsions:
REMARK  status: ('A' for Active; 'I' for Inactive)
REMARK    1  A    between atoms: N_2  and  C_4
REMARK    2  A    between atoms: C_7  and  S_8
REMARK    3  A    between atoms: S_8  and  C_9
REMARK                            x       y       z     vdW  Elec       q    Type
REMARK                         _______ _______ _______ _____ _____    ______ ____
ROOT
ATOM      1  S   UNL     1       5.672   4.248  18.612  0.00  0.00    +0.000 S 
ENDROOT
BRANCH   1   2
ATOM      2  C   UNL     1       3.871   4.192  18.612  0.00  0.00    +0.000 A 
ATOM      3  C   UNL     1       3.226   4.997  17.654  0.00  0.00    +0.000 A 
ATOM      4  C   UNL     1       1.852   5.203  17.714  0.00  0.00    +0.000 A 
ATOM      5  C   UNL     1       1.123   4.639  18.755  0.00  0.00    +0.000 A 
ATOM      6  C   UNL     1       1.757   3.832  19.714  0.00  0.00    +0.000 A 
ATOM      7  C   UNL     1       1.027   3.311  20.791  0.00  0.00    +0.000 A 
ATOM      8  C   UNL     1       1.650   2.497  21.725  0.00  0.00    +0.000 A 
ATOM      9  C   UNL     1       2.986   2.218  21.542  0.00  0.00    +0.000 A 
ATOM     10  N   UNL     1       3.732   2.736  20.543  0.00  0.00    +0.000 NA
ATOM     11  C   UNL     1       3.143   3.554  19.635  0.00  0.00    +0.000 A 
ENDBRANCH   1   2
BRANCH   1  15
ATOM     12  C   UNL     1       6.998   4.830  14.278  0.00  0.00    +0.000 A 
ATOM     13  C   UNL     1       7.499   5.671  15.280  0.00  0.00    +0.000 A 
ATOM     14  C   UNL     1       7.042   5.525  16.594  0.00  0.00    +0.000 A 
ATOM     15  C   UNL     1       6.091   4.548  16.911  0.00  0.00    +0.000 A 
ATOM     16  C   UNL     1       5.599   3.713  15.900  0.00  0.00    +0.000 A 
ATOM     17  C   UNL     1       6.043   3.852  14.581  0.00  0.00    +0.000 A 
BRANCH  12  19
ATOM     18  O   UNL     1       8.266   5.907  12.657  0.00  0.00    +0.000 OA
ATOM     19  N   UNL     1       7.502   4.961  12.903  0.00  0.00    +0.000 N 
ATOM     20  O   UNL     1       7.137   4.116  12.075  0.00  0.00    +0.000 OA
ENDBRANCH  12  19
ENDBRANCH   1  15
TORSDOF 3
ENDMDL
