MODEL 1
REMARK VINA RESULT:      -9.7      0.000      0.000
REMARK  Name = 
REMARK  6 active torsions:
REMARK  status: ('A' for Active; 'I' for Inactive)
REMARK    1  A    between atoms: C_1  and  C_2
REMARK    2  A    between atoms: C_7  and  C_8
REMARK    3  A    between atoms: C_20  and  C_21
REMARK    4  A    between atoms: N_27  and  C_28
REMARK    5  A    between atoms: C_28  and  C_29
REMARK    6  A    between atoms: C_29  and  N_30
REMARK                            x       y       z     vdW  Elec       q    Type
REMARK                         _______ _______ _______ _____ _____    ______ ____
ROOT
ATOM      1  C   UNL     1      -0.757  13.061  22.511  0.00  0.00    +0.000 C 
ATOM      2  C   UNL     1      -0.232  12.068  21.459  0.00  0.00    +0.000 C 
ATOM      3  N   UNL     1       0.158  10.923  21.896  0.00  0.00    +0.000 NA
ATOM      4  C   UNL     1       0.697   9.903  21.074  0.00  0.00    +0.000 A 
ATOM      5  C   UNL     1       1.240   8.710  21.606  0.00  0.00    +0.000 A 
ATOM      6  C   UNL     1       1.862   7.573  20.861  0.00  0.00    +0.000 A 
ATOM      7  C   UNL     1       1.958   7.569  19.485  0.00  0.00    +0.000 A 
ATOM      8  C   UNL     1       1.347   8.867  18.928  0.00  0.00    +0.000 A 
ATOM      9  C   UNL     1       0.685  10.011  19.701  0.00  0.00    +0.000 A 
ATOM     10  C   UNL     1       0.043  11.349  19.090  0.00  0.00    +0.000 C 
ATOM     11  N   UNL     1      -0.251  12.429  20.130  0.00  0.00    +0.000 N 
ENDROOT
BRANCH   7  12
ATOM     12  C   UNL     1       2.622   6.389  18.479  0.00  0.00    +0.000 A 
ATOM     13  C   UNL     1       1.854   5.252  18.658  0.00  0.00    +0.000 A 
ATOM     14  C   UNL     1       1.837   4.338  17.642  0.00  0.00    +0.000 A 
ATOM     15  C   UNL     1       3.078   3.800  17.568  0.00  0.00    +0.000 A 
ATOM     16  C   UNL     1       4.055   4.641  17.263  0.00  0.00    +0.000 A 
ATOM     17  C   UNL     1       5.162   3.933  16.676  0.00  0.00    +0.000 A 
ATOM     18  C   UNL     1       6.060   4.534  15.860  0.00  0.00    +0.000 A 
ATOM     19  C   UNL     1       5.847   5.910  15.684  0.00  0.00    +0.000 A 
ATOM     20  C   UNL     1       4.881   6.675  16.443  0.00  0.00    +0.000 A 
ATOM     21  C   UNL     1       3.867   6.082  17.405  0.00  0.00    +0.000 A 
ENDBRANCH   7  12
BRANCH  10  22
ATOM     22  C   UNL     1      -1.221  11.090  18.246  0.00  0.00    +0.000 A 
ATOM     23  C   UNL     1      -1.530  11.794  17.061  0.00  0.00    +0.000 A 
ATOM     24  C   UNL     1      -2.612  11.418  16.245  0.00  0.00    +0.000 A 
ATOM     25  C   UNL     1      -3.430  10.370  16.628  0.00  0.00    +0.000 A 
ATOM     26  C   UNL     1      -3.152   9.691  17.801  0.00  0.00    +0.000 A 
ATOM     27  C   UNL     1      -2.056  10.019  18.593  0.00  0.00    +0.000 A 
ENDBRANCH  10  22
BRANCH  11  28
ATOM     28  C   UNL     1      -0.856  13.726  19.685  0.00  0.00    +0.000 C 
BRANCH  28  29
ATOM     29  C   UNL     1      -0.064  15.011  19.999  0.00  0.00    +0.000 C 
BRANCH  29  30
ATOM     30  N   UNL     1       0.236  15.864  18.844  0.00  0.00    +0.000 NA
ATOM     31  C   UNL     1      -0.713  16.975  18.700  0.00  0.00    +0.000 C 
ATOM     32  C   UNL     1      -0.452  17.692  17.381  0.00  0.00    +0.000 C 
ATOM     33  C   UNL     1       0.975  18.219  17.317  0.00  0.00    +0.000 C 
ATOM     34  C   UNL     1       1.976  17.113  17.638  0.00  0.00    +0.000 C 
ATOM     35  C   UNL     1       1.610  16.382  18.930  0.00  0.00    +0.000 C 
ENDBRANCH  29  30
ENDBRANCH  28  29
ENDBRANCH  11  28
TORSDOF 5
ENDMDL
MODEL 2
REMARK VINA RESULT:      -9.6      1.187      1.655
REMARK  Name = 
REMARK  6 active torsions:
REMARK  status: ('A' for Active; 'I' for Inactive)
REMARK    1  A    between atoms: C_1  and  C_2
REMARK    2  A    between atoms: C_7  and  C_8
REMARK    3  A    between atoms: C_20  and  C_21
REMARK    4  A    between atoms: N_27  and  C_28
REMARK    5  A    between atoms: C_28  and  C_29
REMARK    6  A    between atoms: C_29  and  N_30
REMARK                            x       y       z     vdW  Elec       q    Type
REMARK                         _______ _______ _______ _____ _____    ______ ____
ROOT
ATOM      1  C   UNL     1      -0.760  13.016  22.512  0.00  0.00    +0.000 C 
ATOM      2  C   UNL     1      -0.237  12.026  21.458  0.00  0.00    +0.000 C 
ATOM      3  N   UNL     1       0.164  10.884  21.893  0.00  0.00    +0.000 NA
ATOM      4  C   UNL     1       0.703   9.866  21.068  0.00  0.00    +0.000 A 
ATOM      5  C   UNL     1       1.259   8.677  21.596  0.00  0.00    +0.000 A 
ATOM      6  C   UNL     1       1.881   7.544  20.848  0.00  0.00    +0.000 A 
ATOM      7  C   UNL     1       1.966   7.538  19.471  0.00  0.00    +0.000 A 
ATOM      8  C   UNL     1       1.341   8.831  18.918  0.00  0.00    +0.000 A 
ATOM      9  C   UNL     1       0.678   9.972  19.695  0.00  0.00    +0.000 A 
ATOM     10  C   UNL     1       0.022  11.304  19.087  0.00  0.00    +0.000 C 
ATOM     11  N   UNL     1      -0.270  12.385  20.128  0.00  0.00    +0.000 N 
ENDROOT
BRANCH   7  12
ATOM     12  C   UNL     1       2.629   6.361  18.462  0.00  0.00    +0.000 A 
ATOM     13  C   UNL     1       1.870   5.219  18.648  0.00  0.00    +0.000 A 
ATOM     14  C   UNL     1       1.850   4.303  17.634  0.00  0.00    +0.000 A 
ATOM     15  C   UNL     1       3.094   3.773  17.550  0.00  0.00    +0.000 A 
ATOM     16  C   UNL     1       4.062   4.620  17.236  0.00  0.00    +0.000 A 
ATOM     17  C   UNL     1       5.169   3.919  16.641  0.00  0.00    +0.000 A 
ATOM     18  C   UNL     1       6.056   4.524  15.817  0.00  0.00    +0.000 A 
ATOM     19  C   UNL     1       5.833   5.898  15.641  0.00  0.00    +0.000 A 
ATOM     20  C   UNL     1       4.868   6.659  16.406  0.00  0.00    +0.000 A 
ATOM     21  C   UNL     1       3.867   6.061  17.377  0.00  0.00    +0.000 A 
ENDBRANCH   7  12
BRANCH  10  22
ATOM     22  C   UNL     1      -1.247  11.035  18.255  0.00  0.00    +0.000 A 
ATOM     23  C   UNL     1      -1.583  11.751  17.083  0.00  0.00    +0.000 A 
ATOM     24  C   UNL     1      -2.668  11.368  16.275  0.00  0.00    +0.000 A 
ATOM     25  C   UNL     1      -3.463  10.301  16.653  0.00  0.00    +0.000 A 
ATOM     26  C   UNL     1      -3.159   9.610  17.812  0.00  0.00    +0.000 A 
ATOM     27  C   UNL     1      -2.059   9.946  18.596  0.00  0.00    +0.000 A 
ENDBRANCH  10  22
BRANCH  11  28
ATOM     28  C   UNL     1      -0.887  13.676  19.686  0.00  0.00    +0.000 C 
BRANCH  28  29
ATOM     29  C   UNL     1       0.063  14.876  19.494  0.00  0.00    +0.000 C 
BRANCH  29  30
ATOM     30  N   UNL     1       1.494  14.566  19.589  0.00  0.00    +0.000 NA
ATOM     31  C   UNL     1       2.141  14.479  18.274  0.00  0.00    +0.000 C 
ATOM     32  C   UNL     1       3.567  13.968  18.449  0.00  0.00    +0.000 C 
ATOM     33  C   UNL     1       4.370  14.885  19.362  0.00  0.00    +0.000 C 
ATOM     34  C   UNL     1       3.627  15.131  20.672  0.00  0.00    +0.000 C 
ATOM     35  C   UNL     1       2.181  15.563  20.425  0.00  0.00    +0.000 C 
ENDBRANCH  29  30
ENDBRANCH  28  29
ENDBRANCH  11  28
TORSDOF 5
ENDMDL
MODEL 3
REMARK VINA RESULT:      -9.6      3.964     10.179
REMARK  Name = 
REMARK  6 active torsions:
REMARK  status: ('A' for Active; 'I' for Inactive)
REMARK    1  A    between atoms: C_1  and  C_2
REMARK    2  A    between atoms: C_7  and  C_8
REMARK    3  A    between atoms: C_20  and  C_21
REMARK    4  A    between atoms: N_27  and  C_28
REMARK    5  A    between atoms: C_28  and  C_29
REMARK    6  A    between atoms: C_29  and  N_30
REMARK                            x       y       z     vdW  Elec       q    Type
REMARK                         _______ _______ _______ _____ _____    ______ ____
ROOT
ATOM      1  C   UNL     1       4.118   1.494  18.156  0.00  0.00    +0.000 C 
ATOM      2  C   UNL     1       3.788   2.989  18.312  0.00  0.00    +0.000 C 
ATOM      3  N   UNL     1       3.001   3.304  19.279  0.00  0.00    +0.000 NA
ATOM      4  C   UNL     1       2.568   4.626  19.549  0.00  0.00    +0.000 A 
ATOM      5  C   UNL     1       1.597   4.918  20.536  0.00  0.00    +0.000 A 
ATOM      6  C   UNL     1       1.034   6.253  20.902  0.00  0.00    +0.000 A 
ATOM      7  C   UNL     1       1.448   7.414  20.282  0.00  0.00    +0.000 A 
ATOM      8  C   UNL     1       2.515   7.074  19.227  0.00  0.00    +0.000 A 
ATOM      9  C   UNL     1       3.106   5.704  18.883  0.00  0.00    +0.000 A 
ATOM     10  C   UNL     1       4.230   5.383  17.784  0.00  0.00    +0.000 C 
ATOM     11  N   UNL     1       4.377   3.897  17.459  0.00  0.00    +0.000 N 
ENDROOT
BRANCH   7  12
ATOM     12  C   UNL     1       0.931   8.996  20.556  0.00  0.00    +0.000 A 
ATOM     13  C   UNL     1       0.235   8.973  21.752  0.00  0.00    +0.000 A 
ATOM     14  C   UNL     1       0.148  10.144  22.452  0.00  0.00    +0.000 A 
ATOM     15  C   UNL     1      -0.621  10.989  21.724  0.00  0.00    +0.000 A 
ATOM     16  C   UNL     1      -0.141  11.328  20.537  0.00  0.00    +0.000 A 
ATOM     17  C   UNL     1      -0.695  12.586  20.112  0.00  0.00    +0.000 A 
ATOM     18  C   UNL     1      -0.072  13.391  19.219  0.00  0.00    +0.000 A 
ATOM     19  C   UNL     1       1.125  12.867  18.709  0.00  0.00    +0.000 A 
ATOM     20  C   UNL     1       1.576  11.513  18.952  0.00  0.00    +0.000 A 
ATOM     21  C   UNL     1       0.913  10.537  19.906  0.00  0.00    +0.000 A 
ENDBRANCH   7  12
BRANCH  10  22
ATOM     22  C   UNL     1       5.611   5.973  18.132  0.00  0.00    +0.000 A 
ATOM     23  C   UNL     1       6.418   5.508  19.195  0.00  0.00    +0.000 A 
ATOM     24  C   UNL     1       7.732   5.973  19.378  0.00  0.00    +0.000 A 
ATOM     25  C   UNL     1       8.239   6.945  18.536  0.00  0.00    +0.000 A 
ATOM     26  C   UNL     1       7.449   7.427  17.508  0.00  0.00    +0.000 A 
ATOM     27  C   UNL     1       6.164   6.941  17.284  0.00  0.00    +0.000 A 
ENDBRANCH  10  22
BRANCH  11  28
ATOM     28  C   UNL     1       5.398   3.467  16.450  0.00  0.00    +0.000 C 
BRANCH  28  29
ATOM     29  C   UNL     1       4.989   3.545  14.965  0.00  0.00    +0.000 C 
BRANCH  29  30
ATOM     30  N   UNL     1       6.089   3.774  14.021  0.00  0.00    +0.000 NA
ATOM     31  C   UNL     1       5.670   3.630  12.622  0.00  0.00    +0.000 C 
ATOM     32  C   UNL     1       6.898   3.690  11.721  0.00  0.00    +0.000 C 
ATOM     33  C   UNL     1       7.649   5.002  11.904  0.00  0.00    +0.000 C 
ATOM     34  C   UNL     1       7.940   5.258  13.380  0.00  0.00    +0.000 C 
ATOM     35  C   UNL     1       6.683   5.102  14.236  0.00  0.00    +0.000 C 
ENDBRANCH  29  30
ENDBRANCH  28  29
ENDBRANCH  11  28
TORSDOF 5
ENDMDL
MODEL 4
REMARK VINA RESULT:      -9.5      1.626      2.796
REMARK  Name = 
REMARK  6 active torsions:
REMARK  status: ('A' for Active; 'I' for Inactive)
REMARK    1  A    between atoms: C_1  and  C_2
REMARK    2  A    between atoms: C_7  and  C_8
REMARK    3  A    between atoms: C_20  and  C_21
REMARK    4  A    between atoms: N_27  and  C_28
REMARK    5  A    between atoms: C_28  and  C_29
REMARK    6  A    between atoms: C_29  and  N_30
REMARK                            x       y       z     vdW  Elec       q    Type
REMARK                         _______ _______ _______ _____ _____    ______ ____
ROOT
ATOM      1  C   UNL     1      -0.850  14.526  22.502  0.00  0.00    +0.000 C 
ATOM      2  C   UNL     1      -0.430  13.301  21.673  0.00  0.00    +0.000 C 
ATOM      3  N   UNL     1      -0.193  12.219  22.327  0.00  0.00    +0.000 NA
ATOM      4  C   UNL     1       0.233  11.008  21.728  0.00  0.00    +0.000 A 
ATOM      5  C   UNL     1       0.615   9.879  22.491  0.00  0.00    +0.000 A 
ATOM      6  C   UNL     1       1.106   8.559  21.992  0.00  0.00    +0.000 A 
ATOM      7  C   UNL     1       1.227   8.287  20.645  0.00  0.00    +0.000 A 
ATOM      8  C   UNL     1       0.791   9.522  19.836  0.00  0.00    +0.000 A 
ATOM      9  C   UNL     1       0.260  10.859  20.359  0.00  0.00    +0.000 A 
ATOM     10  C   UNL     1      -0.202  12.125  19.488  0.00  0.00    +0.000 C 
ATOM     11  N   UNL     1      -0.380  13.408  20.299  0.00  0.00    +0.000 N 
ENDROOT
BRANCH   7  12
ATOM     12  C   UNL     1       1.760   6.871  19.901  0.00  0.00    +0.000 A 
ATOM     13  C   UNL     1       2.513   7.267  18.809  0.00  0.00    +0.000 A 
ATOM     14  C   UNL     1       3.453   6.392  18.342  0.00  0.00    +0.000 A 
ATOM     15  C   UNL     1       2.788   5.332  17.823  0.00  0.00    +0.000 A 
ATOM     16  C   UNL     1       2.057   4.633  18.679  0.00  0.00    +0.000 A 
ATOM     17  C   UNL     1       1.869   3.289  18.200  0.00  0.00    +0.000 A 
ATOM     18  C   UNL     1       1.596   2.253  19.027  0.00  0.00    +0.000 A 
ATOM     19  C   UNL     1       1.460   2.614  20.376  0.00  0.00    +0.000 A 
ATOM     20  C   UNL     1       1.420   3.984  20.839  0.00  0.00    +0.000 A 
ATOM     21  C   UNL     1       1.677   5.202  19.969  0.00  0.00    +0.000 A 
ENDBRANCH   7  12
BRANCH  10  22
ATOM     22  C   UNL     1      -1.471  11.863  18.654  0.00  0.00    +0.000 A 
ATOM     23  C   UNL     1      -1.453  11.356  17.335  0.00  0.00    +0.000 A 
ATOM     24  C   UNL     1      -2.638  10.990  16.673  0.00  0.00    +0.000 A 
ATOM     25  C   UNL     1      -3.859  11.175  17.297  0.00  0.00    +0.000 A 
ATOM     26  C   UNL     1      -3.890  11.696  18.578  0.00  0.00    +0.000 A 
ATOM     27  C   UNL     1      -2.723  12.016  19.265  0.00  0.00    +0.000 A 
ENDBRANCH  10  22
BRANCH  11  28
ATOM     28  C   UNL     1      -0.812  14.660  19.601  0.00  0.00    +0.000 C 
BRANCH  28  29
ATOM     29  C   UNL     1       0.213  15.810  19.527  0.00  0.00    +0.000 C 
BRANCH  29  30
ATOM     30  N   UNL     1       1.524  15.449  18.977  0.00  0.00    +0.000 NA
ATOM     31  C   UNL     1       2.071  16.486  18.093  0.00  0.00    +0.000 C 
ATOM     32  C   UNL     1       3.330  15.957  17.416  0.00  0.00    +0.000 C 
ATOM     33  C   UNL     1       4.376  15.551  18.445  0.00  0.00    +0.000 C 
ATOM     34  C   UNL     1       3.777  14.605  19.482  0.00  0.00    +0.000 C 
ATOM     35  C   UNL     1       2.475  15.158  20.061  0.00  0.00    +0.000 C 
ENDBRANCH  29  30
ENDBRANCH  28  29
ENDBRANCH  11  28
TORSDOF 5
ENDMDL
MODEL 5
REMARK VINA RESULT:      -9.5      4.065     10.268
REMARK  Name = 
REMARK  6 active torsions:
REMARK  status: ('A' for Active; 'I' for Inactive)
REMARK    1  A    between atoms: C_1  and  C_2
REMARK    2  A    between atoms: C_7  and  C_8
REMARK    3  A    between atoms: C_20  and  C_21
REMARK    4  A    between atoms: N_27  and  C_28
REMARK    5  A    between atoms: C_28  and  C_29
REMARK    6  A    between atoms: C_29  and  N_30
REMARK                            x       y       z     vdW  Elec       q    Type
REMARK                         _______ _______ _______ _____ _____    ______ ____
ROOT
ATOM      1  C   UNL     1       3.948   1.677  18.688  0.00  0.00    +0.000 C 
ATOM      2  C   UNL     1       3.632   3.182  18.676  0.00  0.00    +0.000 C 
ATOM      3  N   UNL     1       2.886   3.619  19.628  0.00  0.00    +0.000 NA
ATOM      4  C   UNL     1       2.472   4.967  19.755  0.00  0.00    +0.000 A 
ATOM      5  C   UNL     1       1.542   5.385  20.736  0.00  0.00    +0.000 A 
ATOM      6  C   UNL     1       1.001   6.760  20.961  0.00  0.00    +0.000 A 
ATOM      7  C   UNL     1       1.395   7.834  20.191  0.00  0.00    +0.000 A 
ATOM      8  C   UNL     1       2.417   7.360  19.143  0.00  0.00    +0.000 A 
ATOM      9  C   UNL     1       2.987   5.953  18.943  0.00  0.00    +0.000 A 
ATOM     10  C   UNL     1       4.065   5.491  17.847  0.00  0.00    +0.000 C 
ATOM     11  N   UNL     1       4.192   3.976  17.698  0.00  0.00    +0.000 N 
ENDROOT
BRANCH   7  12
ATOM     12  C   UNL     1       0.898   9.442  20.293  0.00  0.00    +0.000 A 
ATOM     13  C   UNL     1       1.339  10.058  19.135  0.00  0.00    +0.000 A 
ATOM     14  C   UNL     1       0.670  11.176  18.723  0.00  0.00    +0.000 A 
ATOM     15  C   UNL     1       0.912  12.146  19.637  0.00  0.00    +0.000 A 
ATOM     16  C   UNL     1       0.469  11.908  20.863  0.00  0.00    +0.000 A 
ATOM     17  C   UNL     1       0.266  13.143  21.573  0.00  0.00    +0.000 A 
ATOM     18  C   UNL     1      -0.591  13.251  22.615  0.00  0.00    +0.000 A 
ATOM     19  C   UNL     1      -1.217  12.047  22.973  0.00  0.00    +0.000 A 
ATOM     20  C   UNL     1      -0.854  10.760  22.420  0.00  0.00    +0.000 A 
ATOM     21  C   UNL     1       0.124  10.551  21.279  0.00  0.00    +0.000 A 
ENDBRANCH   7  12
BRANCH  10  22
ATOM     22  C   UNL     1       5.462   6.105  18.067  0.00  0.00    +0.000 A 
ATOM     23  C   UNL     1       6.424   5.568  18.951  0.00  0.00    +0.000 A 
ATOM     24  C   UNL     1       7.735   6.072  19.004  0.00  0.00    +0.000 A 
ATOM     25  C   UNL     1       8.088   7.152  18.215  0.00  0.00    +0.000 A 
ATOM     26  C   UNL     1       7.146   7.703  17.365  0.00  0.00    +0.000 A 
ATOM     27  C   UNL     1       5.859   7.183  17.266  0.00  0.00    +0.000 A 
ENDBRANCH  10  22
BRANCH  11  28
ATOM     28  C   UNL     1       5.169   3.418  16.708  0.00  0.00    +0.000 C 
BRANCH  28  29
ATOM     29  C   UNL     1       4.822   3.583  15.215  0.00  0.00    +0.000 C 
BRANCH  29  30
ATOM     30  N   UNL     1       5.969   3.776  14.321  0.00  0.00    +0.000 NA
ATOM     31  C   UNL     1       5.628   3.557  12.909  0.00  0.00    +0.000 C 
ATOM     32  C   UNL     1       6.903   3.586  12.074  0.00  0.00    +0.000 C 
ATOM     33  C   UNL     1       7.631   4.914  12.230  0.00  0.00    +0.000 C 
ATOM     34  C   UNL     1       7.840   5.247  13.705  0.00  0.00    +0.000 C 
ATOM     35  C   UNL     1       6.539   5.121  14.499  0.00  0.00    +0.000 C 
ENDBRANCH  29  30
ENDBRANCH  28  29
ENDBRANCH  11  28
TORSDOF 5
ENDMDL
MODEL 6
REMARK VINA RESULT:      -9.5      0.754      1.041
REMARK  Name = 
REMARK  6 active torsions:
REMARK  status: ('A' for Active; 'I' for Inactive)
REMARK    1  A    between atoms: C_1  and  C_2
REMARK    2  A    between atoms: C_7  and  C_8
REMARK    3  A    between atoms: C_20  and  C_21
REMARK    4  A    between atoms: N_27  and  C_28
REMARK    5  A    between atoms: C_28  and  C_29
REMARK    6  A    between atoms: C_29  and  N_30
REMARK                            x       y       z     vdW  Elec       q    Type
REMARK                         _______ _______ _______ _____ _____    ______ ____
ROOT
ATOM      1  C   UNL     1      -0.735  13.042  22.668  0.00  0.00    +0.000 C 
ATOM      2  C   UNL     1      -0.241  12.044  21.607  0.00  0.00    +0.000 C 
ATOM      3  N   UNL     1       0.190  10.913  22.041  0.00  0.00    +0.000 NA
ATOM      4  C   UNL     1       0.710   9.891  21.209  0.00  0.00    +0.000 A 
ATOM      5  C   UNL     1       1.299   8.715  21.731  0.00  0.00    +0.000 A 
ATOM      6  C   UNL     1       1.907   7.579  20.974  0.00  0.00    +0.000 A 
ATOM      7  C   UNL     1       1.940   7.557  19.595  0.00  0.00    +0.000 A 
ATOM      8  C   UNL     1       1.279   8.835  19.050  0.00  0.00    +0.000 A 
ATOM      9  C   UNL     1       0.632   9.978  19.837  0.00  0.00    +0.000 A 
ATOM     10  C   UNL     1      -0.062  11.295  19.238  0.00  0.00    +0.000 C 
ATOM     11  N   UNL     1      -0.328  12.385  20.274  0.00  0.00    +0.000 N 
ENDROOT
BRANCH   7  12
ATOM     12  C   UNL     1       2.578   6.374  18.576  0.00  0.00    +0.000 A 
ATOM     13  C   UNL     1       1.811   5.239  18.772  0.00  0.00    +0.000 A 
ATOM     14  C   UNL     1       1.769   4.324  17.758  0.00  0.00    +0.000 A 
ATOM     15  C   UNL     1       3.007   3.783  17.657  0.00  0.00    +0.000 A 
ATOM     16  C   UNL     1       3.979   4.621  17.331  0.00  0.00    +0.000 A 
ATOM     17  C   UNL     1       5.071   3.909  16.720  0.00  0.00    +0.000 A 
ATOM     18  C   UNL     1       5.953   4.507  15.885  0.00  0.00    +0.000 A 
ATOM     19  C   UNL     1       5.740   5.884  15.713  0.00  0.00    +0.000 A 
ATOM     20  C   UNL     1       4.793   6.652  16.492  0.00  0.00    +0.000 A 
ATOM     21  C   UNL     1       3.799   6.063  17.476  0.00  0.00    +0.000 A 
ENDBRANCH   7  12
BRANCH  10  22
ATOM     22  C   UNL     1      -1.359  11.000  18.457  0.00  0.00    +0.000 A 
ATOM     23  C   UNL     1      -2.599  11.619  18.734  0.00  0.00    +0.000 A 
ATOM     24  C   UNL     1      -3.714  11.433  17.899  0.00  0.00    +0.000 A 
ATOM     25  C   UNL     1      -3.623  10.588  16.808  0.00  0.00    +0.000 A 
ATOM     26  C   UNL     1      -2.421   9.956  16.543  0.00  0.00    +0.000 A 
ATOM     27  C   UNL     1      -1.294  10.168  17.332  0.00  0.00    +0.000 A 
ENDBRANCH  10  22
BRANCH  11  28
ATOM     28  C   UNL     1      -0.977  13.664  19.840  0.00  0.00    +0.000 C 
BRANCH  28  29
ATOM     29  C   UNL     1      -0.198  14.968  20.105  0.00  0.00    +0.000 C 
BRANCH  29  30
ATOM     30  N   UNL     1       0.725  15.378  19.041  0.00  0.00    +0.000 NA
ATOM     31  C   UNL     1       0.938  16.830  19.006  0.00  0.00    +0.000 C 
ATOM     32  C   UNL     1       1.746  17.190  17.765  0.00  0.00    +0.000 C 
ATOM     33  C   UNL     1       3.088  16.469  17.757  0.00  0.00    +0.000 C 
ATOM     34  C   UNL     1       2.899  14.970  17.970  0.00  0.00    +0.000 C 
ATOM     35  C   UNL     1       2.013  14.682  19.182  0.00  0.00    +0.000 C 
ENDBRANCH  29  30
ENDBRANCH  28  29
ENDBRANCH  11  28
TORSDOF 5
ENDMDL
MODEL 7
REMARK VINA RESULT:      -9.4      0.788      1.211
REMARK  Name = 
REMARK  6 active torsions:
REMARK  status: ('A' for Active; 'I' for Inactive)
REMARK    1  A    between atoms: C_1  and  C_2
REMARK    2  A    between atoms: C_7  and  C_8
REMARK    3  A    between atoms: C_20  and  C_21
REMARK    4  A    between atoms: N_27  and  C_28
REMARK    5  A    between atoms: C_28  and  C_29
REMARK    6  A    between atoms: C_29  and  N_30
REMARK                            x       y       z     vdW  Elec       q    Type
REMARK                         _______ _______ _______ _____ _____    ______ ____
ROOT
ATOM      1  C   UNL     1      -0.808  12.930  22.559  0.00  0.00    +0.000 C 
ATOM      2  C   UNL     1      -0.290  11.930  21.511  0.00  0.00    +0.000 C 
ATOM      3  N   UNL     1       0.136  10.801  21.956  0.00  0.00    +0.000 NA
ATOM      4  C   UNL     1       0.674   9.778  21.137  0.00  0.00    +0.000 A 
ATOM      5  C   UNL     1       1.257   8.606  21.674  0.00  0.00    +0.000 A 
ATOM      6  C   UNL     1       1.882   7.470  20.932  0.00  0.00    +0.000 A 
ATOM      7  C   UNL     1       1.940   7.443  19.554  0.00  0.00    +0.000 A 
ATOM      8  C   UNL     1       1.285   8.717  18.993  0.00  0.00    +0.000 A 
ATOM      9  C   UNL     1       0.621   9.860  19.764  0.00  0.00    +0.000 A 
ATOM     10  C   UNL     1      -0.067  11.173  19.148  0.00  0.00    +0.000 C 
ATOM     11  N   UNL     1      -0.354  12.266  20.176  0.00  0.00    +0.000 N 
ENDROOT
BRANCH   7  12
ATOM     12  C   UNL     1       2.601   6.258  18.551  0.00  0.00    +0.000 A 
ATOM     13  C   UNL     1       1.859   5.110  18.768  0.00  0.00    +0.000 A 
ATOM     14  C   UNL     1       1.833   4.179  17.768  0.00  0.00    +0.000 A 
ATOM     15  C   UNL     1       3.083   3.663  17.670  0.00  0.00    +0.000 A 
ATOM     16  C   UNL     1       4.035   4.518  17.327  0.00  0.00    +0.000 A 
ATOM     17  C   UNL     1       5.140   3.821  16.723  0.00  0.00    +0.000 A 
ATOM     18  C   UNL     1       6.005   4.425  15.874  0.00  0.00    +0.000 A 
ATOM     19  C   UNL     1       5.761   5.794  15.682  0.00  0.00    +0.000 A 
ATOM     20  C   UNL     1       4.800   6.553  16.452  0.00  0.00    +0.000 A 
ATOM     21  C   UNL     1       3.823   5.957  17.450  0.00  0.00    +0.000 A 
ENDBRANCH   7  12
BRANCH  10  22
ATOM     22  C   UNL     1      -1.348  10.872  18.345  0.00  0.00    +0.000 A 
ATOM     23  C   UNL     1      -2.588  11.509  18.578  0.00  0.00    +0.000 A 
ATOM     24  C   UNL     1      -3.686  11.313  17.722  0.00  0.00    +0.000 A 
ATOM     25  C   UNL     1      -3.578  10.441  16.654  0.00  0.00    +0.000 A 
ATOM     26  C   UNL     1      -2.377   9.791  16.433  0.00  0.00    +0.000 A 
ATOM     27  C   UNL     1      -1.266  10.012  17.242  0.00  0.00    +0.000 A 
ENDBRANCH  10  22
BRANCH  11  28
ATOM     28  C   UNL     1      -1.000  13.541  19.726  0.00  0.00    +0.000 C 
BRANCH  28  29
ATOM     29  C   UNL     1      -0.210  14.409  18.724  0.00  0.00    +0.000 C 
BRANCH  29  30
ATOM     30  N   UNL     1       0.286  15.685  19.252  0.00  0.00    +0.000 NA
ATOM     31  C   UNL     1       1.506  16.140  18.574  0.00  0.00    +0.000 C 
ATOM     32  C   UNL     1       2.060  17.359  19.302  0.00  0.00    +0.000 C 
ATOM     33  C   UNL     1       1.038  18.487  19.339  0.00  0.00    +0.000 C 
ATOM     34  C   UNL     1      -0.299  17.988  19.880  0.00  0.00    +0.000 C 
ATOM     35  C   UNL     1      -0.757  16.718  19.161  0.00  0.00    +0.000 C 
ENDBRANCH  29  30
ENDBRANCH  28  29
ENDBRANCH  11  28
TORSDOF 5
ENDMDL
MODEL 8
REMARK VINA RESULT:      -9.4      1.162      1.295
REMARK  Name = 
REMARK  6 active torsions:
REMARK  status: ('A' for Active; 'I' for Inactive)
REMARK    1  A    between atoms: C_1  and  C_2
REMARK    2  A    between atoms: C_7  and  C_8
REMARK    3  A    between atoms: C_20  and  C_21
REMARK    4  A    between atoms: N_27  and  C_28
REMARK    5  A    between atoms: C_28  and  C_29
REMARK    6  A    between atoms: C_29  and  N_30
REMARK                            x       y       z     vdW  Elec       q    Type
REMARK                         _______ _______ _______ _____ _____    ______ ____
ROOT
ATOM      1  C   UNL     1      -0.882  12.931  22.458  0.00  0.00    +0.000 C 
ATOM      2  C   UNL     1      -0.338  11.945  21.411  0.00  0.00    +0.000 C 
ATOM      3  N   UNL     1       0.068  10.806  21.851  0.00  0.00    +0.000 NA
ATOM      4  C   UNL     1       0.625   9.793  21.033  0.00  0.00    +0.000 A 
ATOM      5  C   UNL     1       1.184   8.609  21.569  0.00  0.00    +0.000 A 
ATOM      6  C   UNL     1       1.825   7.481  20.829  0.00  0.00    +0.000 A 
ATOM      7  C   UNL     1       1.927   7.475  19.453  0.00  0.00    +0.000 A 
ATOM      8  C   UNL     1       1.298   8.763  18.892  0.00  0.00    +0.000 A 
ATOM      9  C   UNL     1       0.617   9.898  19.660  0.00  0.00    +0.000 A 
ATOM     10  C   UNL     1      -0.043  11.225  19.044  0.00  0.00    +0.000 C 
ATOM     11  N   UNL     1      -0.357  12.303  20.080  0.00  0.00    +0.000 N 
ENDROOT
BRANCH   7  12
ATOM     12  C   UNL     1       2.613   6.303  18.453  0.00  0.00    +0.000 A 
ATOM     13  C   UNL     1       1.881   5.146  18.655  0.00  0.00    +0.000 A 
ATOM     14  C   UNL     1       1.878   4.219  17.651  0.00  0.00    +0.000 A 
ATOM     15  C   UNL     1       3.133   3.718  17.566  0.00  0.00    +0.000 A 
ATOM     16  C   UNL     1       4.080   4.584  17.237  0.00  0.00    +0.000 A 
ATOM     17  C   UNL     1       5.200   3.902  16.644  0.00  0.00    +0.000 A 
ATOM     18  C   UNL     1       6.068   4.520  15.809  0.00  0.00    +0.000 A 
ATOM     19  C   UNL     1       5.812   5.886  15.619  0.00  0.00    +0.000 A 
ATOM     20  C   UNL     1       4.834   6.632  16.382  0.00  0.00    +0.000 A 
ATOM     21  C   UNL     1       3.851   6.020  17.365  0.00  0.00    +0.000 A 
ENDBRANCH   7  12
BRANCH  10  22
ATOM     22  C   UNL     1      -1.300  10.945  18.196  0.00  0.00    +0.000 A 
ATOM     23  C   UNL     1      -1.542  11.534  16.934  0.00  0.00    +0.000 A 
ATOM     24  C   UNL     1      -2.624  11.132  16.132  0.00  0.00    +0.000 A 
ATOM     25  C   UNL     1      -3.508  10.176  16.599  0.00  0.00    +0.000 A 
ATOM     26  C   UNL     1      -3.296   9.613  17.844  0.00  0.00    +0.000 A 
ATOM     27  C   UNL     1      -2.201   9.964  18.629  0.00  0.00    +0.000 A 
ENDBRANCH  10  22
BRANCH  11  28
ATOM     28  C   UNL     1      -0.980  13.589  19.630  0.00  0.00    +0.000 C 
BRANCH  28  29
ATOM     29  C   UNL     1      -0.209  14.408  18.575  0.00  0.00    +0.000 C 
BRANCH  29  30
ATOM     30  N   UNL     1       0.850  15.276  19.102  0.00  0.00    +0.000 NA
ATOM     31  C   UNL     1       0.592  15.706  20.482  0.00  0.00    +0.000 C 
ATOM     32  C   UNL     1       1.628  16.750  20.885  0.00  0.00    +0.000 C 
ATOM     33  C   UNL     1       3.040  16.192  20.771  0.00  0.00    +0.000 C 
ATOM     34  C   UNL     1       3.272  15.579  19.393  0.00  0.00    +0.000 C 
ATOM     35  C   UNL     1       2.155  14.603  19.018  0.00  0.00    +0.000 C 
ENDBRANCH  29  30
ENDBRANCH  28  29
ENDBRANCH  11  28
TORSDOF 5
ENDMDL
MODEL 9
REMARK VINA RESULT:      -9.4      1.314      2.445
REMARK  Name = 
REMARK  6 active torsions:
REMARK  status: ('A' for Active; 'I' for Inactive)
REMARK    1  A    between atoms: C_1  and  C_2
REMARK    2  A    between atoms: C_7  and  C_8
REMARK    3  A    between atoms: C_20  and  C_21
REMARK    4  A    between atoms: N_27  and  C_28
REMARK    5  A    between atoms: C_28  and  C_29
REMARK    6  A    between atoms: C_29  and  N_30
REMARK                            x       y       z     vdW  Elec       q    Type
REMARK                         _______ _______ _______ _____ _____    ______ ____
ROOT
ATOM      1  C   UNL     1      -1.021  13.547  22.623  0.00  0.00    +0.000 C 
ATOM      2  C   UNL     1      -0.491  12.443  21.693  0.00  0.00    +0.000 C 
ATOM      3  N   UNL     1      -0.107  11.353  22.257  0.00  0.00    +0.000 NA
ATOM      4  C   UNL     1       0.435  10.247  21.558  0.00  0.00    +0.000 A 
ATOM      5  C   UNL     1       0.972   9.119  22.223  0.00  0.00    +0.000 A 
ATOM      6  C   UNL     1       1.596   7.906  21.614  0.00  0.00    +0.000 A 
ATOM      7  C   UNL     1       1.701   7.748  20.247  0.00  0.00    +0.000 A 
ATOM      8  C   UNL     1       1.096   8.976  19.546  0.00  0.00    +0.000 A 
ATOM      9  C   UNL     1       0.432  10.200  20.182  0.00  0.00    +0.000 A 
ATOM     10  C   UNL     1      -0.204  11.462  19.420  0.00  0.00    +0.000 C 
ATOM     11  N   UNL     1      -0.501  12.653  20.331  0.00  0.00    +0.000 N 
ENDROOT
BRANCH   7  12
ATOM     12  C   UNL     1       2.368   6.461  19.384  0.00  0.00    +0.000 A 
ATOM     13  C   UNL     1       3.226   7.022  18.455  0.00  0.00    +0.000 A 
ATOM     14  C   UNL     1       4.245   6.242  17.987  0.00  0.00    +0.000 A 
ATOM     15  C   UNL     1       3.684   5.251  17.253  0.00  0.00    +0.000 A 
ATOM     16  C   UNL     1       2.887   4.424  17.912  0.00  0.00    +0.000 A 
ATOM     17  C   UNL     1       2.806   3.157  17.234  0.00  0.00    +0.000 A 
ATOM     18  C   UNL     1       2.479   2.009  17.873  0.00  0.00    +0.000 A 
ATOM     19  C   UNL     1       2.175   2.174  19.233  0.00  0.00    +0.000 A 
ATOM     20  C   UNL     1       2.031   3.465  19.872  0.00  0.00    +0.000 A 
ATOM     21  C   UNL     1       2.340   4.797  19.214  0.00  0.00    +0.000 A 
ENDBRANCH   7  12
BRANCH  10  22
ATOM     22  C   UNL     1      -1.463  11.112  18.603  0.00  0.00    +0.000 A 
ATOM     23  C   UNL     1      -2.745  11.642  18.871  0.00  0.00    +0.000 A 
ATOM     24  C   UNL     1      -3.830  11.414  18.006  0.00  0.00    +0.000 A 
ATOM     25  C   UNL     1      -3.663  10.611  16.892  0.00  0.00    +0.000 A 
ATOM     26  C   UNL     1      -2.418  10.065  16.635  0.00  0.00    +0.000 A 
ATOM     27  C   UNL     1      -1.323  10.323  17.454  0.00  0.00    +0.000 A 
ENDBRANCH  10  22
BRANCH  11  28
ATOM     28  C   UNL     1      -1.101  13.892  19.740  0.00  0.00    +0.000 C 
BRANCH  28  29
ATOM     29  C   UNL     1      -0.270  14.629  18.670  0.00  0.00    +0.000 C 
BRANCH  29  30
ATOM     30  N   UNL     1       1.046  15.103  19.112  0.00  0.00    +0.000 NA
ATOM     31  C   UNL     1       2.148  14.307  18.558  0.00  0.00    +0.000 C 
ATOM     32  C   UNL     1       3.457  14.737  19.212  0.00  0.00    +0.000 C 
ATOM     33  C   UNL     1       3.723  16.219  18.982  0.00  0.00    +0.000 C 
ATOM     34  C   UNL     1       2.514  17.055  19.390  0.00  0.00    +0.000 C 
ATOM     35  C   UNL     1       1.224  16.522  18.764  0.00  0.00    +0.000 C 
ENDBRANCH  29  30
ENDBRANCH  28  29
ENDBRANCH  11  28
TORSDOF 5
ENDMDL
