MODEL 1
REMARK VINA RESULT:      -7.7      0.000      0.000
REMARK  Name = 
REMARK  6 active torsions:
REMARK  status: ('A' for Active; 'I' for Inactive)
REMARK    1  A    between atoms: C_1  and  C_2
REMARK    2  A    between atoms: C_9  and  C_10
REMARK    3  A    between atoms: C_9  and  O_11
REMARK    4  A    between atoms: C_12  and  C_13
REMARK    5  A    between atoms: C_12  and  C_14
REMARK    6  A    between atoms: C_14  and  O_16
REMARK                            x       y       z     vdW  Elec       q    Type
REMARK                         _______ _______ _______ _____ _____    ______ ____
ROOT
ATOM      1  C   UNL     1       0.495   2.516  18.885  0.00  0.00    +0.000 C 
ATOM      2  C   UNL     1       1.881   3.153  18.930  0.00  0.00    +0.000 C 
ATOM      3  C   UNL     1       2.897   2.309  18.155  0.00  0.00    +0.000 C 
ATOM      4  C   UNL     1       4.293   2.937  18.185  0.00  0.00    +0.000 C 
ATOM      5  C   UNL     1       4.273   4.375  17.626  0.00  0.00    +0.000 C 
ATOM      6  C   UNL     1       3.253   5.216  18.451  0.00  0.00    +0.000 C 
ATOM      7  C   UNL     1       3.242   6.671  18.053  0.00  0.00    +0.000 C 
ATOM      8  C   UNL     1       4.217   7.240  17.328  0.00  0.00    +0.000 C 
ATOM      9  C   UNL     1       5.424   6.493  16.812  0.00  0.00    +0.000 C 
ATOM     10  C   UNL     1       5.255   6.376  15.284  0.00  0.00    +0.000 C 
ATOM     11  C   UNL     1       5.655   5.121  17.550  0.00  0.00    +0.000 C 
ATOM     12  C   UNL     1       6.235   5.328  18.978  0.00  0.00    +0.000 C 
ATOM     13  C   UNL     1       1.850   4.590  18.390  0.00  0.00    +0.000 C 
ENDROOT
BRANCH   9  14
ATOM     14  O   UNL     1       6.589   7.308  17.043  0.00  0.00    +0.000 OA
ATOM     15  H   UNL     1       6.337   8.003  17.680  0.00  0.00    +0.000 HD
ENDBRANCH   9  14
BRANCH  11  16
ATOM     16  C   UNL     1       6.719   4.349  16.753  0.00  0.00    +0.000 C 
ATOM     17  O   UNL     1       7.925   4.518  16.832  0.00  0.00    +0.000 OA
BRANCH  16  18
ATOM     18  O   UNL     1       6.207   3.408  15.919  0.00  0.00    +0.000 OA
ATOM     19  H   UNL     1       6.841   3.146  15.211  0.00  0.00    +0.000 HD
ENDBRANCH  16  18
ENDBRANCH  11  16
TORSDOF 3
ENDMDL
MODEL 2
REMARK VINA RESULT:      -7.5      2.810      5.023
REMARK  Name = 
REMARK  6 active torsions:
REMARK  status: ('A' for Active; 'I' for Inactive)
REMARK    1  A    between atoms: C_1  and  C_2
REMARK    2  A    between atoms: C_9  and  C_10
REMARK    3  A    between atoms: C_9  and  O_11
REMARK    4  A    between atoms: C_12  and  C_13
REMARK    5  A    between atoms: C_12  and  C_14
REMARK    6  A    between atoms: C_14  and  O_16
REMARK                            x       y       z     vdW  Elec       q    Type
REMARK                         _______ _______ _______ _____ _____    ______ ____
ROOT
ATOM      1  C   UNL     1       7.116   6.679  17.100  0.00  0.00    +0.000 C 
ATOM      2  C   UNL     1       5.736   6.034  17.171  0.00  0.00    +0.000 C 
ATOM      3  C   UNL     1       5.836   4.511  17.052  0.00  0.00    +0.000 C 
ATOM      4  C   UNL     1       4.459   3.846  17.126  0.00  0.00    +0.000 C 
ATOM      5  C   UNL     1       3.726   4.220  18.433  0.00  0.00    +0.000 C 
ATOM      6  C   UNL     1       3.614   5.772  18.513  0.00  0.00    +0.000 C 
ATOM      7  C   UNL     1       2.812   6.236  19.703  0.00  0.00    +0.000 C 
ATOM      8  C   UNL     1       2.011   5.424  20.410  0.00  0.00    +0.000 C 
ATOM      9  C   UNL     1       1.832   3.954  20.109  0.00  0.00    +0.000 C 
ATOM     10  C   UNL     1       2.526   3.181  21.249  0.00  0.00    +0.000 C 
ATOM     11  C   UNL     1       2.317   3.562  18.664  0.00  0.00    +0.000 C 
ATOM     12  C   UNL     1       1.315   4.037  17.573  0.00  0.00    +0.000 C 
ATOM     13  C   UNL     1       5.005   6.426  18.464  0.00  0.00    +0.000 C 
ENDROOT
BRANCH   9  14
ATOM     14  O   UNL     1       0.427   3.648  20.190  0.00  0.00    +0.000 OA
ATOM     15  H   UNL     1       0.320   2.944  20.858  0.00  0.00    +0.000 HD
ENDBRANCH   9  14
BRANCH  11  16
ATOM     16  C   UNL     1       2.345   2.027  18.594  0.00  0.00    +0.000 C 
ATOM     17  O   UNL     1       3.352   1.337  18.567  0.00  0.00    +0.000 OA
BRANCH  16  18
ATOM     18  O   UNL     1       1.115   1.454  18.575  0.00  0.00    +0.000 OA
ATOM     19  H   UNL     1       0.596   1.649  19.391  0.00  0.00    +0.000 HD
ENDBRANCH  16  18
ENDBRANCH  11  16
TORSDOF 3
ENDMDL
MODEL 3
REMARK VINA RESULT:      -7.0      2.539      4.721
REMARK  Name = 
REMARK  6 active torsions:
REMARK  status: ('A' for Active; 'I' for Inactive)
REMARK    1  A    between atoms: C_1  and  C_2
REMARK    2  A    between atoms: C_9  and  C_10
REMARK    3  A    between atoms: C_9  and  O_11
REMARK    4  A    between atoms: C_12  and  C_13
REMARK    5  A    between atoms: C_12  and  C_14
REMARK    6  A    between atoms: C_14  and  O_16
REMARK                            x       y       z     vdW  Elec       q    Type
REMARK                         _______ _______ _______ _____ _____    ______ ____
ROOT
ATOM      1  C   UNL     1       7.856   7.924  17.580  0.00  0.00    +0.000 C 
ATOM      2  C   UNL     1       6.835   6.807  17.387  0.00  0.00    +0.000 C 
ATOM      3  C   UNL     1       7.259   5.542  18.138  0.00  0.00    +0.000 C 
ATOM      4  C   UNL     1       6.244   4.410  17.958  0.00  0.00    +0.000 C 
ATOM      5  C   UNL     1       4.835   4.844  18.419  0.00  0.00    +0.000 C 
ATOM      6  C   UNL     1       4.419   6.114  17.618  0.00  0.00    +0.000 C 
ATOM      7  C   UNL     1       3.008   6.552  17.916  0.00  0.00    +0.000 C 
ATOM      8  C   UNL     1       2.107   5.765  18.524  0.00  0.00    +0.000 C 
ATOM      9  C   UNL     1       2.405   4.361  18.996  0.00  0.00    +0.000 C 
ATOM     10  C   UNL     1       2.432   4.407  20.537  0.00  0.00    +0.000 C 
ATOM     11  C   UNL     1       3.702   3.757  18.338  0.00  0.00    +0.000 C 
ATOM     12  C   UNL     1       3.456   3.344  16.858  0.00  0.00    +0.000 C 
ATOM     13  C   UNL     1       5.433   7.251  17.828  0.00  0.00    +0.000 C 
ENDROOT
BRANCH   9  14
ATOM     14  O   UNL     1       1.300   3.518  18.622  0.00  0.00    +0.000 OA
ATOM     15  H   UNL     1       0.479   3.981  18.879  0.00  0.00    +0.000 HD
ENDBRANCH   9  14
BRANCH  11  16
ATOM     16  C   UNL     1       4.042   2.467  19.102  0.00  0.00    +0.000 C 
ATOM     17  O   UNL     1       4.842   2.377  20.020  0.00  0.00    +0.000 OA
BRANCH  16  18
ATOM     18  O   UNL     1       3.352   1.378  18.678  0.00  0.00    +0.000 OA
ATOM     19  H   UNL     1       2.467   1.612  18.309  0.00  0.00    +0.000 HD
ENDBRANCH  16  18
ENDBRANCH  11  16
TORSDOF 3
ENDMDL
MODEL 4
REMARK VINA RESULT:      -6.5      2.592      5.027
REMARK  Name = 
REMARK  6 active torsions:
REMARK  status: ('A' for Active; 'I' for Inactive)
REMARK    1  A    between atoms: C_1  and  C_2
REMARK    2  A    between atoms: C_9  and  C_10
REMARK    3  A    between atoms: C_9  and  O_11
REMARK    4  A    between atoms: C_12  and  C_13
REMARK    5  A    between atoms: C_12  and  C_14
REMARK    6  A    between atoms: C_14  and  O_16
REMARK                            x       y       z     vdW  Elec       q    Type
REMARK                         _______ _______ _______ _____ _____    ______ ____
ROOT
ATOM      1  C   UNL     1       6.956   4.784  13.745  0.00  0.00    +0.000 C 
ATOM      2  C   UNL     1       6.418   4.937  15.165  0.00  0.00    +0.000 C 
ATOM      3  C   UNL     1       5.662   6.258  15.325  0.00  0.00    +0.000 C 
ATOM      4  C   UNL     1       5.111   6.426  16.744  0.00  0.00    +0.000 C 
ATOM      5  C   UNL     1       4.191   5.247  17.130  0.00  0.00    +0.000 C 
ATOM      6  C   UNL     1       4.995   3.920  16.985  0.00  0.00    +0.000 C 
ATOM      7  C   UNL     1       4.216   2.715  17.448  0.00  0.00    +0.000 C 
ATOM      8  C   UNL     1       3.111   2.801  18.204  0.00  0.00    +0.000 C 
ATOM      9  C   UNL     1       2.510   4.110  18.663  0.00  0.00    +0.000 C 
ATOM     10  C   UNL     1       1.195   4.293  17.880  0.00  0.00    +0.000 C 
ATOM     11  C   UNL     1       3.513   5.317  18.547  0.00  0.00    +0.000 C 
ATOM     12  C   UNL     1       4.594   5.276  19.665  0.00  0.00    +0.000 C 
ATOM     13  C   UNL     1       5.520   3.752  15.549  0.00  0.00    +0.000 C 
ENDROOT
BRANCH   9  14
ATOM     14  O   UNL     1       2.155   3.977  20.052  0.00  0.00    +0.000 OA
ATOM     15  H   UNL     1       2.864   4.394  20.577  0.00  0.00    +0.000 HD
ENDBRANCH   9  14
BRANCH  11  16
ATOM     16  C   UNL     1       2.703   6.605  18.769  0.00  0.00    +0.000 C 
ATOM     17  O   UNL     1       2.270   7.330  17.888  0.00  0.00    +0.000 OA
BRANCH  16  18
ATOM     18  O   UNL     1       2.477   6.895  20.076  0.00  0.00    +0.000 OA
ATOM     19  H   UNL     1       3.051   6.370  20.683  0.00  0.00    +0.000 HD
ENDBRANCH  16  18
ENDBRANCH  11  16
TORSDOF 3
ENDMDL
MODEL 5
REMARK VINA RESULT:      -6.5      2.295      4.500
REMARK  Name = 
REMARK  6 active torsions:
REMARK  status: ('A' for Active; 'I' for Inactive)
REMARK    1  A    between atoms: C_1  and  C_2
REMARK    2  A    between atoms: C_9  and  C_10
REMARK    3  A    between atoms: C_9  and  O_11
REMARK    4  A    between atoms: C_12  and  C_13
REMARK    5  A    between atoms: C_12  and  C_14
REMARK    6  A    between atoms: C_14  and  O_16
REMARK                            x       y       z     vdW  Elec       q    Type
REMARK                         _______ _______ _______ _____ _____    ______ ____
ROOT
ATOM      1  C   UNL     1       5.882   3.424  11.958  0.00  0.00    +0.000 C 
ATOM      2  C   UNL     1       6.355   3.675  13.386  0.00  0.00    +0.000 C 
ATOM      3  C   UNL     1       7.090   5.015  13.492  0.00  0.00    +0.000 C 
ATOM      4  C   UNL     1       7.568   5.286  14.921  0.00  0.00    +0.000 C 
ATOM      5  C   UNL     1       6.392   5.255  15.920  0.00  0.00    +0.000 C 
ATOM      6  C   UNL     1       5.682   3.872  15.811  0.00  0.00    +0.000 C 
ATOM      7  C   UNL     1       4.584   3.700  16.830  0.00  0.00    +0.000 C 
ATOM      8  C   UNL     1       4.456   4.485  17.911  0.00  0.00    +0.000 C 
ATOM      9  C   UNL     1       5.381   5.639  18.223  0.00  0.00    +0.000 C 
ATOM     10  C   UNL     1       4.570   6.931  18.000  0.00  0.00    +0.000 C 
ATOM     11  C   UNL     1       6.735   5.571  17.422  0.00  0.00    +0.000 C 
ATOM     12  C   UNL     1       7.689   4.485  17.997  0.00  0.00    +0.000 C 
ATOM     13  C   UNL     1       5.183   3.624  14.377  0.00  0.00    +0.000 C 
ENDROOT
BRANCH   9  14
ATOM     14  O   UNL     1       5.707   5.586  19.625  0.00  0.00    +0.000 OA
ATOM     15  H   UNL     1       6.515   6.117  19.757  0.00  0.00    +0.000 HD
ENDBRANCH   9  14
BRANCH  11  16
ATOM     16  C   UNL     1       7.444   6.921  17.612  0.00  0.00    +0.000 C 
ATOM     17  O   UNL     1       7.362   7.877  16.857  0.00  0.00    +0.000 OA
BRANCH  16  18
ATOM     18  O   UNL     1       8.200   6.993  18.737  0.00  0.00    +0.000 OA
ATOM     19  H   UNL     1       8.527   7.907  18.914  0.00  0.00    +0.000 HD
ENDBRANCH  16  18
ENDBRANCH  11  16
TORSDOF 3
ENDMDL
MODEL 6
REMARK VINA RESULT:      -6.5      3.328      5.284
REMARK  Name = 
REMARK  6 active torsions:
REMARK  status: ('A' for Active; 'I' for Inactive)
REMARK    1  A    between atoms: C_1  and  C_2
REMARK    2  A    between atoms: C_9  and  C_10
REMARK    3  A    between atoms: C_9  and  O_11
REMARK    4  A    between atoms: C_12  and  C_13
REMARK    5  A    between atoms: C_12  and  C_14
REMARK    6  A    between atoms: C_14  and  O_16
REMARK                            x       y       z     vdW  Elec       q    Type
REMARK                         _______ _______ _______ _____ _____    ______ ____
ROOT
ATOM      1  C   UNL     1       1.988   9.049  18.111  0.00  0.00    +0.000 C 
ATOM      2  C   UNL     1       2.568   7.717  18.576  0.00  0.00    +0.000 C 
ATOM      3  C   UNL     1       2.017   7.331  19.951  0.00  0.00    +0.000 C 
ATOM      4  C   UNL     1       2.586   5.993  20.433  0.00  0.00    +0.000 C 
ATOM      5  C   UNL     1       2.297   4.865  19.418  0.00  0.00    +0.000 C 
ATOM      6  C   UNL     1       2.893   5.273  18.037  0.00  0.00    +0.000 C 
ATOM      7  C   UNL     1       2.760   4.183  17.003  0.00  0.00    +0.000 C 
ATOM      8  C   UNL     1       2.481   2.908  17.312  0.00  0.00    +0.000 C 
ATOM      9  C   UNL     1       2.249   2.418  18.723  0.00  0.00    +0.000 C 
ATOM     10  C   UNL     1       0.747   2.088  18.837  0.00  0.00    +0.000 C 
ATOM     11  C   UNL     1       2.782   3.422  19.813  0.00  0.00    +0.000 C 
ATOM     12  C   UNL     1       4.333   3.384  19.919  0.00  0.00    +0.000 C 
ATOM     13  C   UNL     1       2.294   6.604  17.554  0.00  0.00    +0.000 C 
ENDROOT
BRANCH   9  14
ATOM     14  O   UNL     1       2.964   1.180  18.891  0.00  0.00    +0.000 OA
ATOM     15  H   UNL     1       2.510   0.673  19.590  0.00  0.00    +0.000 HD
ENDBRANCH   9  14
BRANCH  11  16
ATOM     16  C   UNL     1       2.238   2.949  21.171  0.00  0.00    +0.000 C 
ATOM     17  O   UNL     1       1.125   3.189  21.611  0.00  0.00    +0.000 OA
BRANCH  16  18
ATOM     18  O   UNL     1       3.115   2.197  21.884  0.00  0.00    +0.000 OA
ATOM     19  H   UNL     1       3.017   1.232  21.705  0.00  0.00    +0.000 HD
ENDBRANCH  16  18
ENDBRANCH  11  16
TORSDOF 3
ENDMDL
MODEL 7
REMARK VINA RESULT:      -6.5      2.146      3.814
REMARK  Name = 
REMARK  6 active torsions:
REMARK  status: ('A' for Active; 'I' for Inactive)
REMARK    1  A    between atoms: C_1  and  C_2
REMARK    2  A    between atoms: C_9  and  C_10
REMARK    3  A    between atoms: C_9  and  O_11
REMARK    4  A    between atoms: C_12  and  C_13
REMARK    5  A    between atoms: C_12  and  C_14
REMARK    6  A    between atoms: C_14  and  O_16
REMARK                            x       y       z     vdW  Elec       q    Type
REMARK                         _______ _______ _______ _____ _____    ______ ____
ROOT
ATOM      1  C   UNL     1       1.025   9.511  18.627  0.00  0.00    +0.000 C 
ATOM      2  C   UNL     1       2.183   8.539  18.833  0.00  0.00    +0.000 C 
ATOM      3  C   UNL     1       1.731   7.307  19.623  0.00  0.00    +0.000 C 
ATOM      4  C   UNL     1       2.880   6.318  19.834  0.00  0.00    +0.000 C 
ATOM      5  C   UNL     1       3.495   5.878  18.488  0.00  0.00    +0.000 C 
ATOM      6  C   UNL     1       3.971   7.148  17.720  0.00  0.00    +0.000 C 
ATOM      7  C   UNL     1       4.690   6.815  16.437  0.00  0.00    +0.000 C 
ATOM      8  C   UNL     1       5.164   5.591  16.157  0.00  0.00    +0.000 C 
ATOM      9  C   UNL     1       5.018   4.404  17.081  0.00  0.00    +0.000 C 
ATOM     10  C   UNL     1       4.006   3.448  16.418  0.00  0.00    +0.000 C 
ATOM     11  C   UNL     1       4.655   4.819  18.556  0.00  0.00    +0.000 C 
ATOM     12  C   UNL     1       5.883   5.411  19.304  0.00  0.00    +0.000 C 
ATOM     13  C   UNL     1       2.802   8.120  17.491  0.00  0.00    +0.000 C 
ENDROOT
BRANCH   9  14
ATOM     14  O   UNL     1       6.280   3.713  17.126  0.00  0.00    +0.000 OA
ATOM     15  H   UNL     1       6.148   2.838  16.714  0.00  0.00    +0.000 HD
ENDBRANCH   9  14
BRANCH  11  16
ATOM     16  C   UNL     1       4.262   3.536  19.306  0.00  0.00    +0.000 C 
ATOM     17  O   UNL     1       3.126   3.216  19.616  0.00  0.00    +0.000 OA
BRANCH  16  18
ATOM     18  O   UNL     1       5.313   2.731  19.608  0.00  0.00    +0.000 OA
ATOM     19  H   UNL     1       6.151   3.029  19.181  0.00  0.00    +0.000 HD
ENDBRANCH  16  18
ENDBRANCH  11  16
TORSDOF 3
ENDMDL
MODEL 8
REMARK VINA RESULT:      -6.5      1.504      2.598
REMARK  Name = 
REMARK  6 active torsions:
REMARK  status: ('A' for Active; 'I' for Inactive)
REMARK    1  A    between atoms: C_1  and  C_2
REMARK    2  A    between atoms: C_9  and  C_10
REMARK    3  A    between atoms: C_9  and  O_11
REMARK    4  A    between atoms: C_12  and  C_13
REMARK    5  A    between atoms: C_12  and  C_14
REMARK    6  A    between atoms: C_14  and  O_16
REMARK                            x       y       z     vdW  Elec       q    Type
REMARK                         _______ _______ _______ _____ _____    ______ ____
ROOT
ATOM      1  C   UNL     1       1.331   2.291  19.128  0.00  0.00    +0.000 C 
ATOM      2  C   UNL     1       2.253   3.458  18.787  0.00  0.00    +0.000 C 
ATOM      3  C   UNL     1       3.246   3.721  19.923  0.00  0.00    +0.000 C 
ATOM      4  C   UNL     1       4.183   4.887  19.596  0.00  0.00    +0.000 C 
ATOM      5  C   UNL     1       4.950   4.637  18.280  0.00  0.00    +0.000 C 
ATOM      6  C   UNL     1       3.916   4.400  17.138  0.00  0.00    +0.000 C 
ATOM      7  C   UNL     1       4.566   4.256  15.786  0.00  0.00    +0.000 C 
ATOM      8  C   UNL     1       5.833   4.623  15.538  0.00  0.00    +0.000 C 
ATOM      9  C   UNL     1       6.757   5.204  16.582  0.00  0.00    +0.000 C 
ATOM     10  C   UNL     1       7.820   4.128  16.882  0.00  0.00    +0.000 C 
ATOM     11  C   UNL     1       5.990   5.735  17.850  0.00  0.00    +0.000 C 
ATOM     12  C   UNL     1       5.264   7.080  17.561  0.00  0.00    +0.000 C 
ATOM     13  C   UNL     1       2.999   3.210  17.468  0.00  0.00    +0.000 C 
ENDROOT
BRANCH   9  14
ATOM     14  O   UNL     1       7.448   6.324  15.997  0.00  0.00    +0.000 OA
ATOM     15  H   UNL     1       7.951   5.988  15.230  0.00  0.00    +0.000 HD
ENDBRANCH   9  14
BRANCH  11  16
ATOM     16  C   UNL     1       7.043   6.029  18.930  0.00  0.00    +0.000 C 
ATOM     17  O   UNL     1       7.161   5.430  19.988  0.00  0.00    +0.000 OA
BRANCH  16  18
ATOM     18  O   UNL     1       7.889   7.043  18.613  0.00  0.00    +0.000 OA
ATOM     19  H   UNL     1       7.411   7.877  18.391  0.00  0.00    +0.000 HD
ENDBRANCH  16  18
ENDBRANCH  11  16
TORSDOF 3
ENDMDL
MODEL 9
REMARK VINA RESULT:      -6.4      2.245      4.491
REMARK  Name = 
REMARK  6 active torsions:
REMARK  status: ('A' for Active; 'I' for Inactive)
REMARK    1  A    between atoms: C_1  and  C_2
REMARK    2  A    between atoms: C_9  and  C_10
REMARK    3  A    between atoms: C_9  and  O_11
REMARK    4  A    between atoms: C_12  and  C_13
REMARK    5  A    between atoms: C_12  and  C_14
REMARK    6  A    between atoms: C_14  and  O_16
REMARK                            x       y       z     vdW  Elec       q    Type
REMARK                         _______ _______ _______ _____ _____    ______ ____
ROOT
ATOM      1  C   UNL     1       1.218   8.426  21.169  0.00  0.00    +0.000 C 
ATOM      2  C   UNL     1       1.460   7.273  20.199  0.00  0.00    +0.000 C 
ATOM      3  C   UNL     1       2.825   7.406  19.518  0.00  0.00    +0.000 C 
ATOM      4  C   UNL     1       3.086   6.254  18.544  0.00  0.00    +0.000 C 
ATOM      5  C   UNL     1       2.988   4.887  19.256  0.00  0.00    +0.000 C 
ATOM      6  C   UNL     1       1.581   4.768  19.914  0.00  0.00    +0.000 C 
ATOM      7  C   UNL     1       1.346   3.417  20.542  0.00  0.00    +0.000 C 
ATOM      8  C   UNL     1       2.103   2.342  20.276  0.00  0.00    +0.000 C 
ATOM      9  C   UNL     1       3.286   2.362  19.335  0.00  0.00    +0.000 C 
ATOM     10  C   UNL     1       4.549   2.221  20.208  0.00  0.00    +0.000 C 
ATOM     11  C   UNL     1       3.287   3.615  18.382  0.00  0.00    +0.000 C 
ATOM     12  C   UNL     1       2.228   3.477  17.250  0.00  0.00    +0.000 C 
ATOM     13  C   UNL     1       1.343   5.916  20.909  0.00  0.00    +0.000 C 
ENDROOT
BRANCH   9  14
ATOM     14  O   UNL     1       3.217   1.188  18.504  0.00  0.00    +0.000 OA
ATOM     15  H   UNL     1       2.609   0.559  18.936  0.00  0.00    +0.000 HD
ENDBRANCH   9  14
BRANCH  11  16
ATOM     16  C   UNL     1       4.660   3.661  17.692  0.00  0.00    +0.000 C 
ATOM     17  O   UNL     1       5.575   4.415  17.984  0.00  0.00    +0.000 OA
BRANCH  16  18
ATOM     18  O   UNL     1       4.806   2.753  16.693  0.00  0.00    +0.000 OA
ATOM     19  H   UNL     1       5.503   2.084  16.890  0.00  0.00    +0.000 HD
ENDBRANCH  16  18
ENDBRANCH  11  16
TORSDOF 3
ENDMDL
