MODEL 1
REMARK VINA RESULT:      -6.7      0.000      0.000
REMARK  Name = 
REMARK  2 active torsions:
REMARK  status: ('A' for Active; 'I' for Inactive)
REMARK    1  A    between atoms: C_2  and  C_3
REMARK    2  A    between atoms: C_6  and  N_7
REMARK                            x       y       z     vdW  Elec       q    Type
REMARK                         _______ _______ _______ _____ _____    ______ ____
ROOT
ATOM      1  C   UNL     1       5.717   4.982  15.552  0.00  0.00    +0.000 A 
ATOM      2  C   UNL     1       5.406   3.673  15.913  0.00  0.00    +0.000 A 
ATOM      3  C   UNL     1       4.445   3.443  16.900  0.00  0.00    +0.000 A 
ATOM      4  C   UNL     1       3.768   4.500  17.537  0.00  0.00    +0.000 A 
ATOM      5  C   UNL     1       4.121   5.806  17.170  0.00  0.00    +0.000 A 
ATOM      6  C   UNL     1       5.091   6.052  16.188  0.00  0.00    +0.000 A 
ENDROOT
BRANCH   4   7
ATOM      7  N   UNL     1       2.773   4.203  18.476  0.00  0.00    +0.000 N 
ATOM      8  C   UNL     1       2.287   5.255  19.374  0.00  0.00    +0.000 C 
ATOM      9  C   UNL     1       2.482   4.801  20.822  0.00  0.00    +0.000 C 
ATOM     10  C   UNL     1       1.531   3.704  21.296  0.00  0.00    +0.000 C 
ATOM     11  C   UNL     1       1.485   2.454  20.418  0.00  0.00    +0.000 C 
ATOM     12  C   UNL     1       0.831   2.716  19.062  0.00  0.00    +0.000 C 
ATOM     13  C   UNL     1       1.794   3.219  17.987  0.00  0.00    +0.000 C 
ENDBRANCH   4   7
BRANCH   1  15
ATOM     14  O   UNL     1       7.870   5.494  14.706  0.00  0.00    +0.000 OA
ATOM     15  C   UNL     1       6.694   5.245  14.476  0.00  0.00    +0.000 C 
ENDBRANCH   1  15
TORSDOF 2
ENDMDL
MODEL 2
REMARK VINA RESULT:      -6.7      1.227      1.999
REMARK  Name = 
REMARK  2 active torsions:
REMARK  status: ('A' for Active; 'I' for Inactive)
REMARK    1  A    between atoms: C_2  and  C_3
REMARK    2  A    between atoms: C_6  and  N_7
REMARK                            x       y       z     vdW  Elec       q    Type
REMARK                         _______ _______ _______ _____ _____    ______ ____
ROOT
ATOM      1  C   UNL     1       6.278   4.551  15.852  0.00  0.00    +0.000 A 
ATOM      2  C   UNL     1       6.721   4.680  17.166  0.00  0.00    +0.000 A 
ATOM      3  C   UNL     1       5.811   4.531  18.216  0.00  0.00    +0.000 A 
ATOM      4  C   UNL     1       4.454   4.241  17.984  0.00  0.00    +0.000 A 
ATOM      5  C   UNL     1       4.033   4.143  16.651  0.00  0.00    +0.000 A 
ATOM      6  C   UNL     1       4.933   4.299  15.588  0.00  0.00    +0.000 A 
ENDROOT
BRANCH   4   7
ATOM      7  N   UNL     1       3.604   4.046  19.080  0.00  0.00    +0.000 N 
ATOM      8  C   UNL     1       3.755   2.846  19.908  0.00  0.00    +0.000 C 
ATOM      9  C   UNL     1       2.426   2.087  19.930  0.00  0.00    +0.000 C 
ATOM     10  C   UNL     1       1.317   2.739  20.754  0.00  0.00    +0.000 C 
ATOM     11  C   UNL     1       1.016   4.196  20.409  0.00  0.00    +0.000 C 
ATOM     12  C   UNL     1       2.148   5.139  20.815  0.00  0.00    +0.000 C 
ATOM     13  C   UNL     1       3.240   5.300  19.758  0.00  0.00    +0.000 C 
ENDBRANCH   4   7
BRANCH   1  15
ATOM     14  O   UNL     1       7.926   5.649  14.551  0.00  0.00    +0.000 OA
ATOM     15  C   UNL     1       7.233   4.656  14.731  0.00  0.00    +0.000 C 
ENDBRANCH   1  15
TORSDOF 2
ENDMDL
MODEL 3
REMARK VINA RESULT:      -6.7      0.921      1.653
REMARK  Name = 
REMARK  2 active torsions:
REMARK  status: ('A' for Active; 'I' for Inactive)
REMARK    1  A    between atoms: C_2  and  C_3
REMARK    2  A    between atoms: C_6  and  N_7
REMARK                            x       y       z     vdW  Elec       q    Type
REMARK                         _______ _______ _______ _____ _____    ______ ____
ROOT
ATOM      1  C   UNL     1       5.875   4.924  15.563  0.00  0.00    +0.000 A 
ATOM      2  C   UNL     1       5.462   3.650  15.945  0.00  0.00    +0.000 A 
ATOM      3  C   UNL     1       4.678   3.497  17.091  0.00  0.00    +0.000 A 
ATOM      4  C   UNL     1       4.280   4.600  17.870  0.00  0.00    +0.000 A 
ATOM      5  C   UNL     1       4.733   5.866  17.474  0.00  0.00    +0.000 A 
ATOM      6  C   UNL     1       5.527   6.033  16.332  0.00  0.00    +0.000 A 
ENDROOT
BRANCH   4   7
ATOM      7  N   UNL     1       3.446   4.386  18.974  0.00  0.00    +0.000 N 
ATOM      8  C   UNL     1       3.696   3.246  19.861  0.00  0.00    +0.000 C 
ATOM      9  C   UNL     1       2.438   2.378  19.921  0.00  0.00    +0.000 C 
ATOM     10  C   UNL     1       1.273   2.972  20.712  0.00  0.00    +0.000 C 
ATOM     11  C   UNL     1       0.849   4.379  20.295  0.00  0.00    +0.000 C 
ATOM     12  C   UNL     1       1.895   5.435  20.654  0.00  0.00    +0.000 C 
ATOM     13  C   UNL     1       2.973   5.637  19.590  0.00  0.00    +0.000 C 
ENDBRANCH   4   7
BRANCH   1  15
ATOM     14  O   UNL     1       7.820   5.506  14.343  0.00  0.00    +0.000 OA
ATOM     15  C   UNL     1       6.661   5.112  14.328  0.00  0.00    +0.000 C 
ENDBRANCH   1  15
TORSDOF 2
ENDMDL
MODEL 4
REMARK VINA RESULT:      -6.6      2.026      2.335
REMARK  Name = 
REMARK  2 active torsions:
REMARK  status: ('A' for Active; 'I' for Inactive)
REMARK    1  A    between atoms: C_2  and  C_3
REMARK    2  A    between atoms: C_6  and  N_7
REMARK                            x       y       z     vdW  Elec       q    Type
REMARK                         _______ _______ _______ _____ _____    ______ ____
ROOT
ATOM      1  C   UNL     1       6.442   6.639  17.743  0.00  0.00    +0.000 A 
ATOM      2  C   UNL     1       5.193   6.882  17.176  0.00  0.00    +0.000 A 
ATOM      3  C   UNL     1       4.085   6.154  17.617  0.00  0.00    +0.000 A 
ATOM      4  C   UNL     1       4.191   5.184  18.631  0.00  0.00    +0.000 A 
ATOM      5  C   UNL     1       5.465   4.944  19.164  0.00  0.00    +0.000 A 
ATOM      6  C   UNL     1       6.587   5.661  18.724  0.00  0.00    +0.000 A 
ENDROOT
BRANCH   4   7
ATOM      7  N   UNL     1       3.033   4.530  19.070  0.00  0.00    +0.000 N 
ATOM      8  C   UNL     1       2.236   5.116  20.150  0.00  0.00    +0.000 C 
ATOM      9  C   UNL     1       2.117   4.100  21.288  0.00  0.00    +0.000 C 
ATOM     10  C   UNL     1       1.199   2.912  21.008  0.00  0.00    +0.000 C 
ATOM     11  C   UNL     1       1.499   2.141  19.724  0.00  0.00    +0.000 C 
ATOM     12  C   UNL     1       1.173   2.948  18.468  0.00  0.00    +0.000 C 
ATOM     13  C   UNL     1       2.312   3.845  17.985  0.00  0.00    +0.000 C 
ENDBRANCH   4   7
BRANCH   1  15
ATOM     14  O   UNL     1       7.749   8.611  17.628  0.00  0.00    +0.000 OA
ATOM     15  C   UNL     1       7.615   7.432  17.326  0.00  0.00    +0.000 C 
ENDBRANCH   1  15
TORSDOF 2
ENDMDL
MODEL 5
REMARK VINA RESULT:      -6.5      2.071      2.918
REMARK  Name = 
REMARK  2 active torsions:
REMARK  status: ('A' for Active; 'I' for Inactive)
REMARK    1  A    between atoms: C_2  and  C_3
REMARK    2  A    between atoms: C_6  and  N_7
REMARK                            x       y       z     vdW  Elec       q    Type
REMARK                         _______ _______ _______ _____ _____    ______ ____
ROOT
ATOM      1  C   UNL     1       6.632   6.687  17.690  0.00  0.00    +0.000 A 
ATOM      2  C   UNL     1       5.371   6.710  17.098  0.00  0.00    +0.000 A 
ATOM      3  C   UNL     1       4.386   5.826  17.546  0.00  0.00    +0.000 A 
ATOM      4  C   UNL     1       4.627   4.917  18.593  0.00  0.00    +0.000 A 
ATOM      5  C   UNL     1       5.912   4.901  19.151  0.00  0.00    +0.000 A 
ATOM      6  C   UNL     1       6.913   5.775  18.705  0.00  0.00    +0.000 A 
ENDROOT
BRANCH   4   7
ATOM      7  N   UNL     1       3.580   4.098  19.036  0.00  0.00    +0.000 N 
ATOM      8  C   UNL     1       3.584   2.672  18.697  0.00  0.00    +0.000 C 
ATOM      9  C   UNL     1       2.290   2.335  17.954  0.00  0.00    +0.000 C 
ATOM     10  C   UNL     1       1.029   2.314  18.817  0.00  0.00    +0.000 C 
ATOM     11  C   UNL     1       0.778   3.576  19.639  0.00  0.00    +0.000 C 
ATOM     12  C   UNL     1       1.792   3.748  20.770  0.00  0.00    +0.000 C 
ATOM     13  C   UNL     1       3.069   4.482  20.361  0.00  0.00    +0.000 C 
ENDBRANCH   4   7
BRANCH   1  15
ATOM     14  O   UNL     1       7.744   8.779  17.724  0.00  0.00    +0.000 OA
ATOM     15  C   UNL     1       7.671   7.646  17.265  0.00  0.00    +0.000 C 
ENDBRANCH   1  15
TORSDOF 2
ENDMDL
MODEL 6
REMARK VINA RESULT:      -6.5      2.003      2.755
REMARK  Name = 
REMARK  2 active torsions:
REMARK  status: ('A' for Active; 'I' for Inactive)
REMARK    1  A    between atoms: C_2  and  C_3
REMARK    2  A    between atoms: C_6  and  N_7
REMARK                            x       y       z     vdW  Elec       q    Type
REMARK                         _______ _______ _______ _____ _____    ______ ____
ROOT
ATOM      1  C   UNL     1       6.522   6.655  17.722  0.00  0.00    +0.000 A 
ATOM      2  C   UNL     1       6.740   5.741  18.750  0.00  0.00    +0.000 A 
ATOM      3  C   UNL     1       5.685   4.938  19.191  0.00  0.00    +0.000 A 
ATOM      4  C   UNL     1       4.403   5.018  18.616  0.00  0.00    +0.000 A 
ATOM      5  C   UNL     1       4.208   5.966  17.602  0.00  0.00    +0.000 A 
ATOM      6  C   UNL     1       5.255   6.784  17.156  0.00  0.00    +0.000 A 
ENDROOT
BRANCH   4   7
ATOM      7  N   UNL     1       3.403   4.145  19.063  0.00  0.00    +0.000 N 
ATOM      8  C   UNL     1       3.461   2.729  18.693  0.00  0.00    +0.000 C 
ATOM      9  C   UNL     1       2.166   2.351  17.970  0.00  0.00    +0.000 C 
ATOM     10  C   UNL     1       0.927   2.257  18.858  0.00  0.00    +0.000 C 
ATOM     11  C   UNL     1       0.640   3.490  19.713  0.00  0.00    +0.000 C 
ATOM     12  C   UNL     1       1.670   3.682  20.826  0.00  0.00    +0.000 C 
ATOM     13  C   UNL     1       2.905   4.479  20.407  0.00  0.00    +0.000 C 
ENDBRANCH   4   7
BRANCH   1  15
ATOM     14  O   UNL     1       7.957   8.540  17.722  0.00  0.00    +0.000 OA
ATOM     15  C   UNL     1       7.636   7.477  17.208  0.00  0.00    +0.000 C 
ENDBRANCH   1  15
TORSDOF 2
ENDMDL
MODEL 7
REMARK VINA RESULT:      -6.5      0.956      1.214
REMARK  Name = 
REMARK  2 active torsions:
REMARK  status: ('A' for Active; 'I' for Inactive)
REMARK    1  A    between atoms: C_2  and  C_3
REMARK    2  A    between atoms: C_6  and  N_7
REMARK                            x       y       z     vdW  Elec       q    Type
REMARK                         _______ _______ _______ _____ _____    ______ ____
ROOT
ATOM      1  C   UNL     1       6.157   4.787  15.266  0.00  0.00    +0.000 A 
ATOM      2  C   UNL     1       5.463   3.650  15.676  0.00  0.00    +0.000 A 
ATOM      3  C   UNL     1       4.458   3.769  16.639  0.00  0.00    +0.000 A 
ATOM      4  C   UNL     1       4.115   5.012  17.203  0.00  0.00    +0.000 A 
ATOM      5  C   UNL     1       4.848   6.132  16.789  0.00  0.00    +0.000 A 
ATOM      6  C   UNL     1       5.865   6.027  15.831  0.00  0.00    +0.000 A 
ENDROOT
BRANCH   4   7
ATOM      7  N   UNL     1       3.060   5.073  18.121  0.00  0.00    +0.000 N 
ATOM      8  C   UNL     1       2.375   6.348  18.352  0.00  0.00    +0.000 C 
ATOM      9  C   UNL     1       2.456   6.694  19.840  0.00  0.00    +0.000 C 
ATOM     10  C   UNL     1       1.575   5.845  20.755  0.00  0.00    +0.000 C 
ATOM     11  C   UNL     1       1.752   4.334  20.618  0.00  0.00    +0.000 C 
ATOM     12  C   UNL     1       1.226   3.803  19.284  0.00  0.00    +0.000 C 
ATOM     13  C   UNL     1       2.245   3.848  18.146  0.00  0.00    +0.000 C 
ENDBRANCH   4   7
BRANCH   1  15
ATOM     14  O   UNL     1       7.910   5.631  13.916  0.00  0.00    +0.000 OA
ATOM     15  C   UNL     1       7.187   4.690  14.213  0.00  0.00    +0.000 C 
ENDBRANCH   1  15
TORSDOF 2
ENDMDL
MODEL 8
REMARK VINA RESULT:      -6.5      0.958      1.791
REMARK  Name = 
REMARK  2 active torsions:
REMARK  status: ('A' for Active; 'I' for Inactive)
REMARK    1  A    between atoms: C_2  and  C_3
REMARK    2  A    between atoms: C_6  and  N_7
REMARK                            x       y       z     vdW  Elec       q    Type
REMARK                         _______ _______ _______ _____ _____    ______ ____
ROOT
ATOM      1  C   UNL     1       6.080   4.901  15.217  0.00  0.00    +0.000 A 
ATOM      2  C   UNL     1       5.546   6.122  15.623  0.00  0.00    +0.000 A 
ATOM      3  C   UNL     1       4.535   6.143  16.587  0.00  0.00    +0.000 A 
ATOM      4  C   UNL     1       4.044   4.961  17.172  0.00  0.00    +0.000 A 
ATOM      5  C   UNL     1       4.583   3.747  16.724  0.00  0.00    +0.000 A 
ATOM      6  C   UNL     1       5.591   3.711  15.752  0.00  0.00    +0.000 A 
ENDROOT
BRANCH   4   7
ATOM      7  N   UNL     1       3.071   5.053  18.175  0.00  0.00    +0.000 N 
ATOM      8  C   UNL     1       2.251   6.263  18.280  0.00  0.00    +0.000 C 
ATOM      9  C   UNL     1       2.414   6.854  19.682  0.00  0.00    +0.000 C 
ATOM     10  C   UNL     1       1.729   6.072  20.802  0.00  0.00    +0.000 C 
ATOM     11  C   UNL     1       2.085   4.589  20.877  0.00  0.00    +0.000 C 
ATOM     12  C   UNL     1       1.519   3.792  19.701  0.00  0.00    +0.000 C 
ATOM     13  C   UNL     1       2.423   3.764  18.469  0.00  0.00    +0.000 C 
ENDBRANCH   4   7
BRANCH   1  15
ATOM     14  O   UNL     1       8.107   5.663  14.258  0.00  0.00    +0.000 OA
ATOM     15  C   UNL     1       7.183   4.861  14.237  0.00  0.00    +0.000 C 
ENDBRANCH   1  15
TORSDOF 2
ENDMDL
MODEL 9
REMARK VINA RESULT:      -6.5      0.172      1.254
REMARK  Name = 
REMARK  2 active torsions:
REMARK  status: ('A' for Active; 'I' for Inactive)
REMARK    1  A    between atoms: C_2  and  C_3
REMARK    2  A    between atoms: C_6  and  N_7
REMARK                            x       y       z     vdW  Elec       q    Type
REMARK                         _______ _______ _______ _____ _____    ______ ____
ROOT
ATOM      1  C   UNL     1       5.678   4.915  15.558  0.00  0.00    +0.000 A 
ATOM      2  C   UNL     1       5.053   5.959  16.236  0.00  0.00    +0.000 A 
ATOM      3  C   UNL     1       4.066   5.670  17.182  0.00  0.00    +0.000 A 
ATOM      4  C   UNL     1       3.691   4.347  17.481  0.00  0.00    +0.000 A 
ATOM      5  C   UNL     1       4.320   3.320  16.764  0.00  0.00    +0.000 A 
ATOM      6  C   UNL     1       5.305   3.595  15.806  0.00  0.00    +0.000 A 
ENDROOT
BRANCH   4   7
ATOM      7  N   UNL     1       2.737   4.120  18.481  0.00  0.00    +0.000 N 
ATOM      8  C   UNL     1       2.284   5.237  19.315  0.00  0.00    +0.000 C 
ATOM      9  C   UNL     1       2.540   4.896  20.784  0.00  0.00    +0.000 C 
ATOM     10  C   UNL     1       1.615   3.837  21.379  0.00  0.00    +0.000 C 
ATOM     11  C   UNL     1       1.538   2.524  20.603  0.00  0.00    +0.000 C 
ATOM     12  C   UNL     1       0.828   2.680  19.259  0.00  0.00    +0.000 C 
ATOM     13  C   UNL     1       1.743   3.100  18.110  0.00  0.00    +0.000 C 
ENDBRANCH   4   7
BRANCH   1  15
ATOM     14  O   UNL     1       7.812   5.724  14.922  0.00  0.00    +0.000 OA
ATOM     15  C   UNL     1       6.758   5.197  14.592  0.00  0.00    +0.000 C 
ENDBRANCH   1  15
TORSDOF 2
ENDMDL
