MODEL 1
REMARK VINA RESULT:      -7.7      0.000      0.000
REMARK  Name = 
REMARK  5 active torsions:
REMARK  status: ('A' for Active; 'I' for Inactive)
REMARK    1  A    between atoms: C_1  and  C_2
REMARK    2  A    between atoms: C_2  and  O_3
REMARK    3  A    between atoms: O_3  and  C_4
REMARK    4  A    between atoms: C_4  and  C_6
REMARK    5  A    between atoms: C_7  and  C_8
REMARK                            x       y       z     vdW  Elec       q    Type
REMARK                         _______ _______ _______ _____ _____    ______ ____
ROOT
ATOM      1  C   UNL     1       3.232   5.210  17.695  0.00  0.00    +0.000 A 
ATOM      2  C   UNL     1       3.342   6.625  17.954  0.00  0.00    +0.000 A 
ATOM      3  C   UNL     1       4.513   7.055  17.356  0.00  0.00    +0.000 A 
ATOM      4  N   UNL     1       5.128   5.984  16.755  0.00  0.00    +0.000 N 
ATOM      5  C   UNL     1       6.314   5.980  16.018  0.00  0.00    +0.000 A 
ATOM      6  C   UNL     1       6.759   4.830  15.487  0.00  0.00    +0.000 A 
ATOM      7  C   UNL     1       5.987   3.618  15.699  0.00  0.00    +0.000 A 
ATOM      8  C   UNL     1       4.844   3.623  16.411  0.00  0.00    +0.000 A 
ATOM      9  C   UNL     1       4.363   4.844  16.977  0.00  0.00    +0.000 A 
ENDROOT
BRANCH   2  10
ATOM     10  C   UNL     1       2.446   7.512  18.693  0.00  0.00    +0.000 A 
ATOM     11  C   UNL     1       1.900   8.645  18.070  0.00  0.00    +0.000 A 
ATOM     12  C   UNL     1       1.131   9.561  18.790  0.00  0.00    +0.000 A 
ATOM     13  C   UNL     1       0.859   9.332  20.136  0.00  0.00    +0.000 A 
ATOM     14  C   UNL     1       1.352   8.186  20.757  0.00  0.00    +0.000 A 
ATOM     15  C   UNL     1       2.145   7.282  20.041  0.00  0.00    +0.000 A 
ENDBRANCH   2  10
BRANCH   1  16
ATOM     16  C   UNL     1       2.124   4.340  18.068  0.00  0.00    +0.000 C 
ATOM     17  O   UNL     1       1.130   4.183  17.366  0.00  0.00    +0.000 OA
BRANCH  16  18
ATOM     18  O   UNL     1       2.270   3.776  19.304  0.00  0.00    +0.000 OA
BRANCH  18  20
ATOM     19  C   UNL     1       1.313   2.848  21.330  0.00  0.00    +0.000 C 
ATOM     20  C   UNL     1       1.036   3.494  19.983  0.00  0.00    +0.000 C 
ENDBRANCH  18  20
ENDBRANCH  16  18
ENDBRANCH   1  16
TORSDOF 4
ENDMDL
MODEL 2
REMARK VINA RESULT:      -7.5      0.202      1.095
REMARK  Name = 
REMARK  5 active torsions:
REMARK  status: ('A' for Active; 'I' for Inactive)
REMARK    1  A    between atoms: C_1  and  C_2
REMARK    2  A    between atoms: C_2  and  O_3
REMARK    3  A    between atoms: O_3  and  C_4
REMARK    4  A    between atoms: C_4  and  C_6
REMARK    5  A    between atoms: C_7  and  C_8
REMARK                            x       y       z     vdW  Elec       q    Type
REMARK                         _______ _______ _______ _____ _____    ______ ____
ROOT
ATOM      1  C   UNL     1       3.225   5.343  17.713  0.00  0.00    +0.000 A 
ATOM      2  C   UNL     1       3.345   6.770  17.881  0.00  0.00    +0.000 A 
ATOM      3  C   UNL     1       4.506   7.158  17.235  0.00  0.00    +0.000 A 
ATOM      4  N   UNL     1       5.106   6.049  16.691  0.00  0.00    +0.000 N 
ATOM      5  C   UNL     1       6.277   5.994  15.934  0.00  0.00    +0.000 A 
ATOM      6  C   UNL     1       6.709   4.811  15.468  0.00  0.00    +0.000 A 
ATOM      7  C   UNL     1       5.938   3.618  15.769  0.00  0.00    +0.000 A 
ATOM      8  C   UNL     1       4.809   3.672  16.501  0.00  0.00    +0.000 A 
ATOM      9  C   UNL     1       4.342   4.928  16.999  0.00  0.00    +0.000 A 
ENDROOT
BRANCH   2  10
ATOM     10  C   UNL     1       2.466   7.706  18.580  0.00  0.00    +0.000 A 
ATOM     11  C   UNL     1       2.170   7.518  19.939  0.00  0.00    +0.000 A 
ATOM     12  C   UNL     1       1.249   8.336  20.594  0.00  0.00    +0.000 A 
ATOM     13  C   UNL     1       0.643   9.386  19.910  0.00  0.00    +0.000 A 
ATOM     14  C   UNL     1       0.963   9.617  18.573  0.00  0.00    +0.000 A 
ATOM     15  C   UNL     1       1.867   8.779  17.910  0.00  0.00    +0.000 A 
ENDBRANCH   2  10
BRANCH   1  16
ATOM     16  C   UNL     1       2.122   4.503  18.161  0.00  0.00    +0.000 C 
ATOM     17  O   UNL     1       1.127   4.284  17.478  0.00  0.00    +0.000 OA
BRANCH  16  18
ATOM     18  O   UNL     1       2.275   4.042  19.438  0.00  0.00    +0.000 OA
BRANCH  18  20
ATOM     19  C   UNL     1       1.255   2.840  21.281  0.00  0.00    +0.000 C 
ATOM     20  C   UNL     1       1.045   3.834  20.150  0.00  0.00    +0.000 C 
ENDBRANCH  18  20
ENDBRANCH  16  18
ENDBRANCH   1  16
TORSDOF 4
ENDMDL
MODEL 3
REMARK VINA RESULT:      -7.0      3.376      6.722
REMARK  Name = 
REMARK  5 active torsions:
REMARK  status: ('A' for Active; 'I' for Inactive)
REMARK    1  A    between atoms: C_1  and  C_2
REMARK    2  A    between atoms: C_2  and  O_3
REMARK    3  A    between atoms: O_3  and  C_4
REMARK    4  A    between atoms: C_4  and  C_6
REMARK    5  A    between atoms: C_7  and  C_8
REMARK                            x       y       z     vdW  Elec       q    Type
REMARK                         _______ _______ _______ _____ _____    ______ ____
ROOT
ATOM      1  C   UNL     1       5.910   4.612  17.110  0.00  0.00    +0.000 A 
ATOM      2  C   UNL     1       5.394   4.395  15.781  0.00  0.00    +0.000 A 
ATOM      3  C   UNL     1       4.024   4.239  15.900  0.00  0.00    +0.000 A 
ATOM      4  N   UNL     1       3.676   4.339  17.225  0.00  0.00    +0.000 N 
ATOM      5  C   UNL     1       2.398   4.271  17.782  0.00  0.00    +0.000 A 
ATOM      6  C   UNL     1       2.246   4.407  19.109  0.00  0.00    +0.000 A 
ATOM      7  C   UNL     1       3.426   4.622  19.929  0.00  0.00    +0.000 A 
ATOM      8  C   UNL     1       4.659   4.686  19.390  0.00  0.00    +0.000 A 
ATOM      9  C   UNL     1       4.828   4.545  17.977  0.00  0.00    +0.000 A 
ENDROOT
BRANCH   2  10
ATOM     10  C   UNL     1       6.100   4.333  14.503  0.00  0.00    +0.000 A 
ATOM     11  C   UNL     1       7.199   5.172  14.260  0.00  0.00    +0.000 A 
ATOM     12  C   UNL     1       7.816   5.203  13.009  0.00  0.00    +0.000 A 
ATOM     13  C   UNL     1       7.372   4.361  11.994  0.00  0.00    +0.000 A 
ATOM     14  C   UNL     1       6.314   3.485  12.234  0.00  0.00    +0.000 A 
ATOM     15  C   UNL     1       5.678   3.474  13.481  0.00  0.00    +0.000 A 
ENDBRANCH   2  10
BRANCH   1  16
ATOM     16  C   UNL     1       7.292   4.900  17.471  0.00  0.00    +0.000 C 
ATOM     17  O   UNL     1       8.216   4.120  17.260  0.00  0.00    +0.000 OA
BRANCH  16  18
ATOM     18  O   UNL     1       7.445   6.088  18.130  0.00  0.00    +0.000 OA
BRANCH  18  20
ATOM     19  C   UNL     1       8.072   8.405  17.789  0.00  0.00    +0.000 C 
ATOM     20  C   UNL     1       7.195   7.252  17.328  0.00  0.00    +0.000 C 
ENDBRANCH  18  20
ENDBRANCH  16  18
ENDBRANCH   1  16
TORSDOF 4
ENDMDL
MODEL 4
REMARK VINA RESULT:      -7.0      1.620      5.337
REMARK  Name = 
REMARK  5 active torsions:
REMARK  status: ('A' for Active; 'I' for Inactive)
REMARK    1  A    between atoms: C_1  and  C_2
REMARK    2  A    between atoms: C_2  and  O_3
REMARK    3  A    between atoms: O_3  and  C_4
REMARK    4  A    between atoms: C_4  and  C_6
REMARK    5  A    between atoms: C_7  and  C_8
REMARK                            x       y       z     vdW  Elec       q    Type
REMARK                         _______ _______ _______ _____ _____    ______ ____
ROOT
ATOM      1  C   UNL     1       3.755   4.817  18.581  0.00  0.00    +0.000 A 
ATOM      2  C   UNL     1       4.297   5.574  17.478  0.00  0.00    +0.000 A 
ATOM      3  C   UNL     1       3.782   6.855  17.574  0.00  0.00    +0.000 A 
ATOM      4  N   UNL     1       2.951   6.921  18.665  0.00  0.00    +0.000 N 
ATOM      5  C   UNL     1       2.251   8.031  19.142  0.00  0.00    +0.000 A 
ATOM      6  C   UNL     1       1.491   7.912  20.243  0.00  0.00    +0.000 A 
ATOM      7  C   UNL     1       1.421   6.622  20.907  0.00  0.00    +0.000 A 
ATOM      8  C   UNL     1       2.096   5.552  20.445  0.00  0.00    +0.000 A 
ATOM      9  C   UNL     1       2.909   5.672  19.275  0.00  0.00    +0.000 A 
ENDROOT
BRANCH   2  10
ATOM     10  C   UNL     1       5.213   5.155  16.419  0.00  0.00    +0.000 A 
ATOM     11  C   UNL     1       6.582   5.453  16.509  0.00  0.00    +0.000 A 
ATOM     12  C   UNL     1       7.452   5.157  15.458  0.00  0.00    +0.000 A 
ATOM     13  C   UNL     1       6.973   4.517  14.319  0.00  0.00    +0.000 A 
ATOM     14  C   UNL     1       5.625   4.169  14.235  0.00  0.00    +0.000 A 
ATOM     15  C   UNL     1       4.749   4.490  15.278  0.00  0.00    +0.000 A 
ENDBRANCH   2  10
BRANCH   1  16
ATOM     16  C   UNL     1       4.073   3.439  18.931  0.00  0.00    +0.000 C 
ATOM     17  O   UNL     1       5.033   3.129  19.629  0.00  0.00    +0.000 OA
BRANCH  16  18
ATOM     18  O   UNL     1       3.239   2.526  18.349  0.00  0.00    +0.000 OA
BRANCH  18  20
ATOM     19  C   UNL     1       0.851   2.429  18.761  0.00  0.00    +0.000 C 
ATOM     20  C   UNL     1       2.232   1.994  19.224  0.00  0.00    +0.000 C 
ENDBRANCH  18  20
ENDBRANCH  16  18
ENDBRANCH   1  16
TORSDOF 4
ENDMDL
MODEL 5
REMARK VINA RESULT:      -6.9      1.637      5.309
REMARK  Name = 
REMARK  5 active torsions:
REMARK  status: ('A' for Active; 'I' for Inactive)
REMARK    1  A    between atoms: C_1  and  C_2
REMARK    2  A    between atoms: C_2  and  O_3
REMARK    3  A    between atoms: O_3  and  C_4
REMARK    4  A    between atoms: C_4  and  C_6
REMARK    5  A    between atoms: C_7  and  C_8
REMARK                            x       y       z     vdW  Elec       q    Type
REMARK                         _______ _______ _______ _____ _____    ______ ____
ROOT
ATOM      1  C   UNL     1       3.746   4.864  18.580  0.00  0.00    +0.000 A 
ATOM      2  C   UNL     1       4.262   5.663  17.496  0.00  0.00    +0.000 A 
ATOM      3  C   UNL     1       3.722   6.929  17.634  0.00  0.00    +0.000 A 
ATOM      4  N   UNL     1       2.899   6.947  18.732  0.00  0.00    +0.000 N 
ATOM      5  C   UNL     1       2.180   8.027  19.247  0.00  0.00    +0.000 A 
ATOM      6  C   UNL     1       1.432   7.860  20.349  0.00  0.00    +0.000 A 
ATOM      7  C   UNL     1       1.395   6.550  20.976  0.00  0.00    +0.000 A 
ATOM      8  C   UNL     1       2.087   5.508  20.478  0.00  0.00    +0.000 A 
ATOM      9  C   UNL     1       2.888   5.680  19.306  0.00  0.00    +0.000 A 
ENDROOT
BRANCH   2  10
ATOM     10  C   UNL     1       5.178   5.294  16.418  0.00  0.00    +0.000 A 
ATOM     11  C   UNL     1       4.711   4.570  15.310  0.00  0.00    +0.000 A 
ATOM     12  C   UNL     1       5.590   4.116  14.326  0.00  0.00    +0.000 A 
ATOM     13  C   UNL     1       6.945   4.421  14.411  0.00  0.00    +0.000 A 
ATOM     14  C   UNL     1       7.418   5.183  15.479  0.00  0.00    +0.000 A 
ATOM     15  C   UNL     1       6.539   5.614  16.480  0.00  0.00    +0.000 A 
ENDBRANCH   2  10
BRANCH   1  16
ATOM     16  C   UNL     1       4.094   3.483  18.887  0.00  0.00    +0.000 C 
ATOM     17  O   UNL     1       5.051   3.174  19.590  0.00  0.00    +0.000 OA
BRANCH  16  18
ATOM     18  O   UNL     1       3.295   2.569  18.259  0.00  0.00    +0.000 OA
BRANCH  18  20
ATOM     19  C   UNL     1       0.916   2.472  18.721  0.00  0.00    +0.000 C 
ATOM     20  C   UNL     1       2.299   1.967  19.101  0.00  0.00    +0.000 C 
ENDBRANCH  18  20
ENDBRANCH  16  18
ENDBRANCH   1  16
TORSDOF 4
ENDMDL
MODEL 6
REMARK VINA RESULT:      -6.9      3.367      6.719
REMARK  Name = 
REMARK  5 active torsions:
REMARK  status: ('A' for Active; 'I' for Inactive)
REMARK    1  A    between atoms: C_1  and  C_2
REMARK    2  A    between atoms: C_2  and  O_3
REMARK    3  A    between atoms: O_3  and  C_4
REMARK    4  A    between atoms: C_4  and  C_6
REMARK    5  A    between atoms: C_7  and  C_8
REMARK                            x       y       z     vdW  Elec       q    Type
REMARK                         _______ _______ _______ _____ _____    ______ ____
ROOT
ATOM      1  C   UNL     1       5.967   4.682  17.143  0.00  0.00    +0.000 A 
ATOM      2  C   UNL     1       5.407   4.522  15.823  0.00  0.00    +0.000 A 
ATOM      3  C   UNL     1       4.038   4.389  15.978  0.00  0.00    +0.000 A 
ATOM      4  N   UNL     1       3.732   4.449  17.315  0.00  0.00    +0.000 N 
ATOM      5  C   UNL     1       2.470   4.386  17.908  0.00  0.00    +0.000 A 
ATOM      6  C   UNL     1       2.360   4.478  19.243  0.00  0.00    +0.000 A 
ATOM      7  C   UNL     1       3.568   4.641  20.033  0.00  0.00    +0.000 A 
ATOM      8  C   UNL     1       4.785   4.700  19.460  0.00  0.00    +0.000 A 
ATOM      9  C   UNL     1       4.909   4.605  18.039  0.00  0.00    +0.000 A 
ENDROOT
BRANCH   2  10
ATOM     10  C   UNL     1       6.074   4.492  14.523  0.00  0.00    +0.000 A 
ATOM     11  C   UNL     1       5.632   3.613  13.522  0.00  0.00    +0.000 A 
ATOM     12  C   UNL     1       6.323   3.492  12.315  0.00  0.00    +0.000 A 
ATOM     13  C   UNL     1       7.441   4.285  12.073  0.00  0.00    +0.000 A 
ATOM     14  C   UNL     1       7.863   5.199  13.037  0.00  0.00    +0.000 A 
ATOM     15  C   UNL     1       7.186   5.299  14.257  0.00  0.00    +0.000 A 
ENDBRANCH   2  10
BRANCH   1  16
ATOM     16  C   UNL     1       7.365   4.929  17.472  0.00  0.00    +0.000 C 
ATOM     17  O   UNL     1       8.259   4.120  17.245  0.00  0.00    +0.000 OA
BRANCH  16  18
ATOM     18  O   UNL     1       7.568   6.116  18.119  0.00  0.00    +0.000 OA
BRANCH  18  20
ATOM     19  C   UNL     1       8.047   8.474  17.819  0.00  0.00    +0.000 C 
ATOM     20  C   UNL     1       7.230   7.281  17.351  0.00  0.00    +0.000 C 
ENDBRANCH  18  20
ENDBRANCH  16  18
ENDBRANCH   1  16
TORSDOF 4
ENDMDL
MODEL 7
REMARK VINA RESULT:      -6.9      1.902      5.950
REMARK  Name = 
REMARK  5 active torsions:
REMARK  status: ('A' for Active; 'I' for Inactive)
REMARK    1  A    between atoms: C_1  and  C_2
REMARK    2  A    between atoms: C_2  and  O_3
REMARK    3  A    between atoms: O_3  and  C_4
REMARK    4  A    between atoms: C_4  and  C_6
REMARK    5  A    between atoms: C_7  and  C_8
REMARK                            x       y       z     vdW  Elec       q    Type
REMARK                         _______ _______ _______ _____ _____    ______ ____
ROOT
ATOM      1  C   UNL     1       3.504   5.179  18.062  0.00  0.00    +0.000 A 
ATOM      2  C   UNL     1       4.227   4.157  17.345  0.00  0.00    +0.000 A 
ATOM      3  C   UNL     1       3.824   2.938  17.862  0.00  0.00    +0.000 A 
ATOM      4  N   UNL     1       2.906   3.157  18.859  0.00  0.00    +0.000 N 
ATOM      5  C   UNL     1       2.226   2.205  19.620  0.00  0.00    +0.000 A 
ATOM      6  C   UNL     1       1.343   2.608  20.549  0.00  0.00    +0.000 A 
ATOM      7  C   UNL     1       1.123   4.032  20.733  0.00  0.00    +0.000 A 
ATOM      8  C   UNL     1       1.781   4.949  19.998  0.00  0.00    +0.000 A 
ATOM      9  C   UNL     1       2.720   4.528  19.005  0.00  0.00    +0.000 A 
ENDROOT
BRANCH   2  10
ATOM     10  C   UNL     1       5.211   4.287  16.272  0.00  0.00    +0.000 A 
ATOM     11  C   UNL     1       6.527   4.679  16.562  0.00  0.00    +0.000 A 
ATOM     12  C   UNL     1       7.449   4.914  15.541  0.00  0.00    +0.000 A 
ATOM     13  C   UNL     1       7.080   4.715  14.214  0.00  0.00    +0.000 A 
ATOM     14  C   UNL     1       5.792   4.277  13.911  0.00  0.00    +0.000 A 
ATOM     15  C   UNL     1       4.860   4.069  14.934  0.00  0.00    +0.000 A 
ENDBRANCH   2  10
BRANCH   1  16
ATOM     16  C   UNL     1       3.547   6.614  17.813  0.00  0.00    +0.000 C 
ATOM     17  O   UNL     1       4.594   7.237  17.667  0.00  0.00    +0.000 OA
BRANCH  16  18
ATOM     18  O   UNL     1       2.315   7.204  17.830  0.00  0.00    +0.000 OA
BRANCH  18  20
ATOM     19  C   UNL     1       1.163   9.338  17.868  0.00  0.00    +0.000 C 
ATOM     20  C   UNL     1       2.278   8.493  18.463  0.00  0.00    +0.000 C 
ENDBRANCH  18  20
ENDBRANCH  16  18
ENDBRANCH   1  16
TORSDOF 4
ENDMDL
MODEL 8
REMARK VINA RESULT:      -6.9      1.899      5.890
REMARK  Name = 
REMARK  5 active torsions:
REMARK  status: ('A' for Active; 'I' for Inactive)
REMARK    1  A    between atoms: C_1  and  C_2
REMARK    2  A    between atoms: C_2  and  O_3
REMARK    3  A    between atoms: O_3  and  C_4
REMARK    4  A    between atoms: C_4  and  C_6
REMARK    5  A    between atoms: C_7  and  C_8
REMARK                            x       y       z     vdW  Elec       q    Type
REMARK                         _______ _______ _______ _____ _____    ______ ____
ROOT
ATOM      1  C   UNL     1       3.473   5.239  18.056  0.00  0.00    +0.000 A 
ATOM      2  C   UNL     1       4.217   4.252  17.311  0.00  0.00    +0.000 A 
ATOM      3  C   UNL     1       3.859   3.013  17.812  0.00  0.00    +0.000 A 
ATOM      4  N   UNL     1       2.947   3.186  18.824  0.00  0.00    +0.000 N 
ATOM      5  C   UNL     1       2.307   2.201  19.578  0.00  0.00    +0.000 A 
ATOM      6  C   UNL     1       1.426   2.560  20.525  0.00  0.00    +0.000 A 
ATOM      7  C   UNL     1       1.165   3.974  20.736  0.00  0.00    +0.000 A 
ATOM      8  C   UNL     1       1.784   4.923  20.009  0.00  0.00    +0.000 A 
ATOM      9  C   UNL     1       2.722   4.548  18.997  0.00  0.00    +0.000 A 
ENDROOT
BRANCH   2  10
ATOM     10  C   UNL     1       5.181   4.431  16.228  0.00  0.00    +0.000 A 
ATOM     11  C   UNL     1       4.821   4.136  14.904  0.00  0.00    +0.000 A 
ATOM     12  C   UNL     1       5.760   4.196  13.873  0.00  0.00    +0.000 A 
ATOM     13  C   UNL     1       7.064   4.599  14.144  0.00  0.00    +0.000 A 
ATOM     14  C   UNL     1       7.425   4.944  15.446  0.00  0.00    +0.000 A 
ATOM     15  C   UNL     1       6.490   4.857  16.483  0.00  0.00    +0.000 A 
ENDBRANCH   2  10
BRANCH   1  16
ATOM     16  C   UNL     1       3.469   6.678  17.832  0.00  0.00    +0.000 C 
ATOM     17  O   UNL     1       4.495   7.342  17.720  0.00  0.00    +0.000 OA
BRANCH  16  18
ATOM     18  O   UNL     1       2.216   7.223  17.829  0.00  0.00    +0.000 OA
BRANCH  18  20
ATOM     19  C   UNL     1       1.397   9.504  17.912  0.00  0.00    +0.000 C 
ATOM     20  C   UNL     1       2.061   8.371  18.678  0.00  0.00    +0.000 C 
ENDBRANCH  18  20
ENDBRANCH  16  18
ENDBRANCH   1  16
TORSDOF 4
ENDMDL
MODEL 9
REMARK VINA RESULT:      -6.8      3.025      6.499
REMARK  Name = 
REMARK  5 active torsions:
REMARK  status: ('A' for Active; 'I' for Inactive)
REMARK    1  A    between atoms: C_1  and  C_2
REMARK    2  A    between atoms: C_2  and  O_3
REMARK    3  A    between atoms: O_3  and  C_4
REMARK    4  A    between atoms: C_4  and  C_6
REMARK    5  A    between atoms: C_7  and  C_8
REMARK                            x       y       z     vdW  Elec       q    Type
REMARK                         _______ _______ _______ _____ _____    ______ ____
ROOT
ATOM      1  C   UNL     1       4.950   5.367  16.727  0.00  0.00    +0.000 A 
ATOM      2  C   UNL     1       5.205   4.232  15.874  0.00  0.00    +0.000 A 
ATOM      3  C   UNL     1       4.678   3.122  16.509  0.00  0.00    +0.000 A 
ATOM      4  N   UNL     1       4.123   3.512  17.704  0.00  0.00    +0.000 N 
ATOM      5  C   UNL     1       3.461   2.717  18.640  0.00  0.00    +0.000 A 
ATOM      6  C   UNL     1       2.966   3.279  19.754  0.00  0.00    +0.000 A 
ATOM      7  C   UNL     1       3.138   4.708  19.951  0.00  0.00    +0.000 A 
ATOM      8  C   UNL     1       3.778   5.474  19.047  0.00  0.00    +0.000 A 
ATOM      9  C   UNL     1       4.305   4.882  17.857  0.00  0.00    +0.000 A 
ENDROOT
BRANCH   2  10
ATOM     10  C   UNL     1       5.882   4.170  14.580  0.00  0.00    +0.000 A 
ATOM     11  C   UNL     1       7.095   4.848  14.382  0.00  0.00    +0.000 A 
ATOM     12  C   UNL     1       7.698   4.889  13.124  0.00  0.00    +0.000 A 
ATOM     13  C   UNL     1       7.120   4.212  12.055  0.00  0.00    +0.000 A 
ATOM     14  C   UNL     1       5.942   3.492  12.246  0.00  0.00    +0.000 A 
ATOM     15  C   UNL     1       5.323   3.474  13.501  0.00  0.00    +0.000 A 
ENDBRANCH   2  10
BRANCH   1  16
ATOM     16  C   UNL     1       5.259   6.761  16.437  0.00  0.00    +0.000 C 
ATOM     17  O   UNL     1       4.906   7.326  15.407  0.00  0.00    +0.000 OA
BRANCH  16  18
ATOM     18  O   UNL     1       6.039   7.353  17.391  0.00  0.00    +0.000 OA
BRANCH  18  20
ATOM     19  C   UNL     1       7.786   6.305  18.707  0.00  0.00    +0.000 C 
ATOM     20  C   UNL     1       7.415   6.943  17.378  0.00  0.00    +0.000 C 
ENDBRANCH  18  20
ENDBRANCH  16  18
ENDBRANCH   1  16
TORSDOF 4
ENDMDL
