MODEL 1
REMARK VINA RESULT:      -7.4      0.000      0.000
REMARK  Name = 
REMARK  10 active torsions:
REMARK  status: ('A' for Active; 'I' for Inactive)
REMARK    1  A    between atoms: C_1  and  C_2
REMARK    2  A    between atoms: C_2  and  C_3
REMARK    3  A    between atoms: C_2  and  N_13
REMARK    4  A    between atoms: C_3  and  C_4
REMARK    5  A    between atoms: N_13  and  C_14
REMARK    6  A    between atoms: C_14  and  C_15
REMARK    7  A    between atoms: C_15  and  O_16
REMARK    8  A    between atoms: C_15  and  C_17
REMARK    9  A    between atoms: C_20  and  O_21
REMARK   10  A    between atoms: C_22  and  O_23
REMARK                            x       y       z     vdW  Elec       q    Type
REMARK                         _______ _______ _______ _____ _____    ______ ____
ROOT
ATOM      1  N   UNL     1       3.218   4.319  16.990  0.00  0.00    +0.000 NA
ATOM      2  H   UNL     1       3.424   5.033  16.258  0.00  0.00    +0.000 HD
ENDROOT
BRANCH   1   4
ATOM      3  C   UNL     1       2.837   4.126  19.466  0.00  0.00    +0.000 C 
ATOM      4  C   UNL     1       2.680   4.991  18.195  0.00  0.00    +0.000 C 
BRANCH   4   5
ATOM      5  C   UNL     1       3.411   6.335  18.420  0.00  0.00    +0.000 C 
BRANCH   5   6
ATOM      6  C   UNL     1       2.496   7.493  18.745  0.00  0.00    +0.000 A 
ATOM      7  C   UNL     1       2.184   8.459  17.750  0.00  0.00    +0.000 A 
ATOM      8  C   UNL     1       1.368   9.565  18.055  0.00  0.00    +0.000 A 
ATOM      9  C   UNL     1       0.886   9.674  19.356  0.00  0.00    +0.000 A 
ATOM     10  C   UNL     1       1.174   8.761  20.306  0.00  0.00    +0.000 A 
ATOM     11  C   UNL     1       1.976   7.651  20.051  0.00  0.00    +0.000 A 
ATOM     12  O   UNL     1       0.589   9.121  21.451  0.00  0.00    +0.000 OA
ATOM     13  C   UNL     1      -0.095  10.312  21.218  0.00  0.00    +0.000 C 
ATOM     14  O   UNL     1       0.114  10.629  19.878  0.00  0.00    +0.000 OA
ENDBRANCH   5   6
ENDBRANCH   4   5
ENDBRANCH   1   4
BRANCH   1  15
ATOM     15  C   UNL     1       4.424   3.523  17.262  0.00  0.00    +0.000 C 
BRANCH  15  16
ATOM     16  C   UNL     1       5.619   3.999  16.409  0.00  0.00    +0.000 C 
BRANCH  16  17
ATOM     17  C   UNL     1       6.442   5.030  17.158  0.00  0.00    +0.000 A 
ATOM     18  C   UNL     1       6.754   6.257  16.550  0.00  0.00    +0.000 A 
ATOM     19  C   UNL     1       7.521   7.207  17.228  0.00  0.00    +0.000 A 
ATOM     20  C   UNL     1       7.989   6.954  18.527  0.00  0.00    +0.000 A 
ATOM     21  C   UNL     1       7.678   5.729  19.146  0.00  0.00    +0.000 A 
ATOM     22  C   UNL     1       6.909   4.779  18.464  0.00  0.00    +0.000 A 
BRANCH  20  23
ATOM     23  O   UNL     1       8.731   7.874  19.175  0.00  0.00    +0.000 OA
ATOM     24  H   UNL     1       8.505   8.816  19.172  0.00  0.00    +0.000 HD
ENDBRANCH  20  23
BRANCH  21  25
ATOM     25  O   UNL     1       8.112   5.447  20.394  0.00  0.00    +0.000 OA
ATOM     26  H   UNL     1       7.978   6.045  21.142  0.00  0.00    +0.000 HD
ENDBRANCH  21  25
ENDBRANCH  16  17
BRANCH  16  27
ATOM     27  O   UNL     1       5.201   4.516  15.170  0.00  0.00    +0.000 OA
ATOM     28  H   UNL     1       5.991   4.917  14.719  0.00  0.00    +0.000 HD
ENDBRANCH  16  27
ENDBRANCH  15  16
ENDBRANCH   1  15
TORSDOF 9
ENDMDL
MODEL 2
REMARK VINA RESULT:      -7.3      1.790      2.630
REMARK  Name = 
REMARK  10 active torsions:
REMARK  status: ('A' for Active; 'I' for Inactive)
REMARK    1  A    between atoms: C_1  and  C_2
REMARK    2  A    between atoms: C_2  and  C_3
REMARK    3  A    between atoms: C_2  and  N_13
REMARK    4  A    between atoms: C_3  and  C_4
REMARK    5  A    between atoms: N_13  and  C_14
REMARK    6  A    between atoms: C_14  and  C_15
REMARK    7  A    between atoms: C_15  and  O_16
REMARK    8  A    between atoms: C_15  and  C_17
REMARK    9  A    between atoms: C_20  and  O_21
REMARK   10  A    between atoms: C_22  and  O_23
REMARK                            x       y       z     vdW  Elec       q    Type
REMARK                         _______ _______ _______ _____ _____    ______ ____
ROOT
ATOM      1  N   UNL     1       1.746   2.834  19.190  0.00  0.00    +0.000 NA
ATOM      2  H   UNL     1       1.228   3.180  18.352  0.00  0.00    +0.000 HD
ENDROOT
BRANCH   1   4
ATOM      3  C   UNL     1       1.412   3.019  21.673  0.00  0.00    +0.000 C 
ATOM      4  C   UNL     1       1.524   3.762  20.322  0.00  0.00    +0.000 C 
BRANCH   4   5
ATOM      5  C   UNL     1       2.691   4.773  20.412  0.00  0.00    +0.000 C 
BRANCH   5   6
ATOM      6  C   UNL     1       2.299   6.201  20.105  0.00  0.00    +0.000 A 
ATOM      7  C   UNL     1       1.562   6.960  21.054  0.00  0.00    +0.000 A 
ATOM      8  C   UNL     1       1.155   8.275  20.759  0.00  0.00    +0.000 A 
ATOM      9  C   UNL     1       1.497   8.795  19.515  0.00  0.00    +0.000 A 
ATOM     10  C   UNL     1       2.198   8.083  18.609  0.00  0.00    +0.000 A 
ATOM     11  C   UNL     1       2.623   6.780  18.855  0.00  0.00    +0.000 A 
ATOM     12  O   UNL     1       2.375   8.823  17.512  0.00  0.00    +0.000 OA
ATOM     13  C   UNL     1       1.756  10.053  17.730  0.00  0.00    +0.000 C 
ATOM     14  O   UNL     1       1.215   9.998  19.011  0.00  0.00    +0.000 OA
ENDBRANCH   5   6
ENDBRANCH   4   5
ENDBRANCH   1   4
BRANCH   1  15
ATOM     15  C   UNL     1       3.167   2.656  18.857  0.00  0.00    +0.000 C 
BRANCH  15  16
ATOM     16  C   UNL     1       3.443   2.968  17.371  0.00  0.00    +0.000 C 
BRANCH  16  17
ATOM     17  C   UNL     1       4.567   3.978  17.230  0.00  0.00    +0.000 A 
ATOM     18  C   UNL     1       4.690   4.734  16.054  0.00  0.00    +0.000 A 
ATOM     19  C   UNL     1       5.728   5.656  15.911  0.00  0.00    +0.000 A 
ATOM     20  C   UNL     1       6.664   5.845  16.940  0.00  0.00    +0.000 A 
ATOM     21  C   UNL     1       6.548   5.094  18.125  0.00  0.00    +0.000 A 
ATOM     22  C   UNL     1       5.505   4.171  18.265  0.00  0.00    +0.000 A 
BRANCH  20  23
ATOM     23  O   UNL     1       7.666   6.735  16.796  0.00  0.00    +0.000 OA
ATOM     24  H   UNL     1       8.080   7.174  17.554  0.00  0.00    +0.000 HD
ENDBRANCH  20  23
BRANCH  21  25
ATOM     25  O   UNL     1       7.430   5.244  19.137  0.00  0.00    +0.000 OA
ATOM     26  H   UNL     1       8.386   5.166  19.014  0.00  0.00    +0.000 HD
ENDBRANCH  21  25
ENDBRANCH  16  17
BRANCH  16  27
ATOM     27  O   UNL     1       2.289   3.429  16.713  0.00  0.00    +0.000 OA
ATOM     28  H   UNL     1       2.153   4.383  16.956  0.00  0.00    +0.000 HD
ENDBRANCH  16  27
ENDBRANCH  15  16
ENDBRANCH   1  15
TORSDOF 9
ENDMDL
MODEL 3
REMARK VINA RESULT:      -7.1      1.747      2.411
REMARK  Name = 
REMARK  10 active torsions:
REMARK  status: ('A' for Active; 'I' for Inactive)
REMARK    1  A    between atoms: C_1  and  C_2
REMARK    2  A    between atoms: C_2  and  C_3
REMARK    3  A    between atoms: C_2  and  N_13
REMARK    4  A    between atoms: C_3  and  C_4
REMARK    5  A    between atoms: N_13  and  C_14
REMARK    6  A    between atoms: C_14  and  C_15
REMARK    7  A    between atoms: C_15  and  O_16
REMARK    8  A    between atoms: C_15  and  C_17
REMARK    9  A    between atoms: C_20  and  O_21
REMARK   10  A    between atoms: C_22  and  O_23
REMARK                            x       y       z     vdW  Elec       q    Type
REMARK                         _______ _______ _______ _____ _____    ______ ____
ROOT
ATOM      1  N   UNL     1       1.476   3.870  19.337  0.00  0.00    +0.000 NA
ATOM      2  H   UNL     1       1.758   4.254  18.409  0.00  0.00    +0.000 HD
ENDROOT
BRANCH   1   4
ATOM      3  C   UNL     1       2.263   4.263  21.690  0.00  0.00    +0.000 C 
ATOM      4  C   UNL     1       1.720   4.887  20.384  0.00  0.00    +0.000 C 
BRANCH   4   5
ATOM      5  C   UNL     1       2.740   5.933  19.877  0.00  0.00    +0.000 C 
BRANCH   5   6
ATOM      6  C   UNL     1       2.135   7.275  19.534  0.00  0.00    +0.000 A 
ATOM      7  C   UNL     1       2.235   7.787  18.212  0.00  0.00    +0.000 A 
ATOM      8  C   UNL     1       1.713   9.055  17.893  0.00  0.00    +0.000 A 
ATOM      9  C   UNL     1       1.105   9.779  18.913  0.00  0.00    +0.000 A 
ATOM     10  C   UNL     1       1.002   9.301  20.170  0.00  0.00    +0.000 A 
ATOM     11  C   UNL     1       1.503   8.052  20.533  0.00  0.00    +0.000 A 
ATOM     12  O   UNL     1       0.384  10.204  20.935  0.00  0.00    +0.000 OA
ATOM     13  C   UNL     1       0.086  11.302  20.131  0.00  0.00    +0.000 C 
ATOM     14  O   UNL     1       0.554  10.994  18.856  0.00  0.00    +0.000 OA
ENDBRANCH   5   6
ENDBRANCH   4   5
ENDBRANCH   1   4
BRANCH   1  15
ATOM     15  C   UNL     1       2.181   2.603  19.585  0.00  0.00    +0.000 C 
BRANCH  15  16
ATOM     16  C   UNL     1       3.054   2.197  18.380  0.00  0.00    +0.000 C 
BRANCH  16  17
ATOM     17  C   UNL     1       4.079   3.272  18.068  0.00  0.00    +0.000 A 
ATOM     18  C   UNL     1       4.126   3.848  16.789  0.00  0.00    +0.000 A 
ATOM     19  C   UNL     1       5.073   4.829  16.489  0.00  0.00    +0.000 A 
ATOM     20  C   UNL     1       5.990   5.258  17.462  0.00  0.00    +0.000 A 
ATOM     21  C   UNL     1       5.949   4.689  18.748  0.00  0.00    +0.000 A 
ATOM     22  C   UNL     1       4.998   3.706  19.045  0.00  0.00    +0.000 A 
BRANCH  20  23
ATOM     23  O   UNL     1       6.904   6.204  17.166  0.00  0.00    +0.000 OA
ATOM     24  H   UNL     1       7.805   6.182  17.524  0.00  0.00    +0.000 HD
ENDBRANCH  20  23
BRANCH  21  25
ATOM     25  O   UNL     1       6.816   5.073  19.710  0.00  0.00    +0.000 OA
ATOM     26  H   UNL     1       6.966   4.559  20.515  0.00  0.00    +0.000 HD
ENDBRANCH  21  25
ENDBRANCH  16  17
BRANCH  16  27
ATOM     27  O   UNL     1       2.276   1.920  17.242  0.00  0.00    +0.000 OA
ATOM     28  H   UNL     1       2.881   1.588  16.526  0.00  0.00    +0.000 HD
ENDBRANCH  16  27
ENDBRANCH  15  16
ENDBRANCH   1  15
TORSDOF 9
ENDMDL
MODEL 4
REMARK VINA RESULT:      -7.1      1.714      2.489
REMARK  Name = 
REMARK  10 active torsions:
REMARK  status: ('A' for Active; 'I' for Inactive)
REMARK    1  A    between atoms: C_1  and  C_2
REMARK    2  A    between atoms: C_2  and  C_3
REMARK    3  A    between atoms: C_2  and  N_13
REMARK    4  A    between atoms: C_3  and  C_4
REMARK    5  A    between atoms: N_13  and  C_14
REMARK    6  A    between atoms: C_14  and  C_15
REMARK    7  A    between atoms: C_15  and  O_16
REMARK    8  A    between atoms: C_15  and  C_17
REMARK    9  A    between atoms: C_20  and  O_21
REMARK   10  A    between atoms: C_22  and  O_23
REMARK                            x       y       z     vdW  Elec       q    Type
REMARK                         _______ _______ _______ _____ _____    ______ ____
ROOT
ATOM      1  N   UNL     1       1.876   3.619  18.898  0.00  0.00    +0.000 NA
ATOM      2  H   UNL     1       0.894   3.448  18.591  0.00  0.00    +0.000 HD
ENDROOT
BRANCH   1   4
ATOM      3  C   UNL     1       2.337   4.210  21.296  0.00  0.00    +0.000 C 
ATOM      4  C   UNL     1       1.894   4.708  19.901  0.00  0.00    +0.000 C 
BRANCH   4   5
ATOM      5  C   UNL     1       2.860   5.827  19.448  0.00  0.00    +0.000 C 
BRANCH   5   6
ATOM      6  C   UNL     1       2.217   7.189  19.323  0.00  0.00    +0.000 A 
ATOM      7  C   UNL     1       2.199   7.859  18.070  0.00  0.00    +0.000 A 
ATOM      8  C   UNL     1       1.642   9.147  17.954  0.00  0.00    +0.000 A 
ATOM      9  C   UNL     1       1.116   9.731  19.102  0.00  0.00    +0.000 A 
ATOM     10  C   UNL     1       1.126   9.102  20.295  0.00  0.00    +0.000 A 
ATOM     11  C   UNL     1       1.665   7.828  20.459  0.00  0.00    +0.000 A 
ATOM     12  O   UNL     1       0.568   9.894  21.213  0.00  0.00    +0.000 OA
ATOM     13  C   UNL     1       0.192  11.076  20.577  0.00  0.00    +0.000 C 
ATOM     14  O   UNL     1       0.553  10.933  19.240  0.00  0.00    +0.000 OA
ENDBRANCH   5   6
ENDBRANCH   4   5
ENDBRANCH   1   4
BRANCH   1  15
ATOM     15  C   UNL     1       2.722   3.896  17.727  0.00  0.00    +0.000 C 
BRANCH  15  16
ATOM     16  C   UNL     1       4.117   3.254  17.873  0.00  0.00    +0.000 C 
BRANCH  16  17
ATOM     17  C   UNL     1       5.104   3.878  16.904  0.00  0.00    +0.000 A 
ATOM     18  C   UNL     1       5.253   3.346  15.613  0.00  0.00    +0.000 A 
ATOM     19  C   UNL     1       6.167   3.906  14.718  0.00  0.00    +0.000 A 
ATOM     20  C   UNL     1       6.949   5.010  15.093  0.00  0.00    +0.000 A 
ATOM     21  C   UNL     1       6.806   5.552  16.383  0.00  0.00    +0.000 A 
ATOM     22  C   UNL     1       5.887   4.989  17.277  0.00  0.00    +0.000 A 
BRANCH  20  23
ATOM     23  O   UNL     1       7.832   5.545  14.225  0.00  0.00    +0.000 OA
ATOM     24  H   UNL     1       7.819   5.336  13.279  0.00  0.00    +0.000 HD
ENDBRANCH  20  23
BRANCH  21  25
ATOM     25  O   UNL     1       7.542   6.612  16.782  0.00  0.00    +0.000 OA
ATOM     26  H   UNL     1       8.254   6.540  17.431  0.00  0.00    +0.000 HD
ENDBRANCH  21  25
ENDBRANCH  16  17
BRANCH  16  27
ATOM     27  O   UNL     1       4.071   1.861  17.692  0.00  0.00    +0.000 OA
ATOM     28  H   UNL     1       5.002   1.531  17.582  0.00  0.00    +0.000 HD
ENDBRANCH  16  27
ENDBRANCH  15  16
ENDBRANCH   1  15
TORSDOF 9
ENDMDL
MODEL 5
REMARK VINA RESULT:      -7.0      1.628      2.406
REMARK  Name = 
REMARK  10 active torsions:
REMARK  status: ('A' for Active; 'I' for Inactive)
REMARK    1  A    between atoms: C_1  and  C_2
REMARK    2  A    between atoms: C_2  and  C_3
REMARK    3  A    between atoms: C_2  and  N_13
REMARK    4  A    between atoms: C_3  and  C_4
REMARK    5  A    between atoms: N_13  and  C_14
REMARK    6  A    between atoms: C_14  and  C_15
REMARK    7  A    between atoms: C_15  and  O_16
REMARK    8  A    between atoms: C_15  and  C_17
REMARK    9  A    between atoms: C_20  and  O_21
REMARK   10  A    between atoms: C_22  and  O_23
REMARK                            x       y       z     vdW  Elec       q    Type
REMARK                         _______ _______ _______ _____ _____    ______ ____
ROOT
ATOM      1  N   UNL     1       1.536   3.619  19.112  0.00  0.00    +0.000 NA
ATOM      2  H   UNL     1       0.547   3.634  18.781  0.00  0.00    +0.000 HD
ENDROOT
BRANCH   1   4
ATOM      3  C   UNL     1       2.107   3.868  21.546  0.00  0.00    +0.000 C 
ATOM      4  C   UNL     1       1.693   4.573  20.234  0.00  0.00    +0.000 C 
BRANCH   4   5
ATOM      5  C   UNL     1       2.767   5.629  19.882  0.00  0.00    +0.000 C 
BRANCH   5   6
ATOM      6  C   UNL     1       2.210   6.997  19.560  0.00  0.00    +0.000 A 
ATOM      7  C   UNL     1       2.369   7.545  18.259  0.00  0.00    +0.000 A 
ATOM      8  C   UNL     1       1.893   8.837  17.962  0.00  0.00    +0.000 A 
ATOM      9  C   UNL     1       1.269   9.546  18.983  0.00  0.00    +0.000 A 
ATOM     10  C   UNL     1       1.111   9.033  20.221  0.00  0.00    +0.000 A 
ATOM     11  C   UNL     1       1.565   7.761  20.561  0.00  0.00    +0.000 A 
ATOM     12  O   UNL     1       0.491   9.930  20.992  0.00  0.00    +0.000 OA
ATOM     13  C   UNL     1       0.250  11.059  20.212  0.00  0.00    +0.000 C 
ATOM     14  O   UNL     1       0.753  10.777  18.946  0.00  0.00    +0.000 OA
ENDBRANCH   5   6
ENDBRANCH   4   5
ENDBRANCH   1   4
BRANCH   1  15
ATOM     15  C   UNL     1       2.442   3.894  17.986  0.00  0.00    +0.000 C 
BRANCH  15  16
ATOM     16  C   UNL     1       3.863   3.358  18.260  0.00  0.00    +0.000 C 
BRANCH  16  17
ATOM     17  C   UNL     1       4.914   4.344  17.786  0.00  0.00    +0.000 A 
ATOM     18  C   UNL     1       6.128   4.464  18.480  0.00  0.00    +0.000 A 
ATOM     19  C   UNL     1       7.097   5.378  18.059  0.00  0.00    +0.000 A 
ATOM     20  C   UNL     1       6.873   6.189  16.935  0.00  0.00    +0.000 A 
ATOM     21  C   UNL     1       5.660   6.074  16.230  0.00  0.00    +0.000 A 
ATOM     22  C   UNL     1       4.692   5.156  16.655  0.00  0.00    +0.000 A 
BRANCH  20  23
ATOM     23  O   UNL     1       7.810   7.071  16.534  0.00  0.00    +0.000 OA
ATOM     24  H   UNL     1       8.649   7.184  17.005  0.00  0.00    +0.000 HD
ENDBRANCH  20  23
BRANCH  21  25
ATOM     25  O   UNL     1       5.407   6.838  15.145  0.00  0.00    +0.000 OA
ATOM     26  H   UNL     1       4.513   7.105  14.891  0.00  0.00    +0.000 HD
ENDBRANCH  21  25
ENDBRANCH  16  17
BRANCH  16  27
ATOM     27  O   UNL     1       4.069   2.102  17.662  0.00  0.00    +0.000 OA
ATOM     28  H   UNL     1       3.181   1.713  17.443  0.00  0.00    +0.000 HD
ENDBRANCH  16  27
ENDBRANCH  15  16
ENDBRANCH   1  15
TORSDOF 9
ENDMDL
MODEL 6
REMARK VINA RESULT:      -7.0      1.203      1.830
REMARK  Name = 
REMARK  10 active torsions:
REMARK  status: ('A' for Active; 'I' for Inactive)
REMARK    1  A    between atoms: C_1  and  C_2
REMARK    2  A    between atoms: C_2  and  C_3
REMARK    3  A    between atoms: C_2  and  N_13
REMARK    4  A    between atoms: C_3  and  C_4
REMARK    5  A    between atoms: N_13  and  C_14
REMARK    6  A    between atoms: C_14  and  C_15
REMARK    7  A    between atoms: C_15  and  O_16
REMARK    8  A    between atoms: C_15  and  C_17
REMARK    9  A    between atoms: C_20  and  O_21
REMARK   10  A    between atoms: C_22  and  O_23
REMARK                            x       y       z     vdW  Elec       q    Type
REMARK                         _______ _______ _______ _____ _____    ______ ____
ROOT
ATOM      1  N   UNL     1       4.479   3.562  16.922  0.00  0.00    +0.000 NA
ATOM      2  H   UNL     1       4.140   2.578  16.843  0.00  0.00    +0.000 HD
ENDROOT
BRANCH   1   4
ATOM      3  C   UNL     1       2.127   3.601  17.805  0.00  0.00    +0.000 C 
ATOM      4  C   UNL     1       3.384   4.419  17.429  0.00  0.00    +0.000 C 
BRANCH   4   5
ATOM      5  C   UNL     1       3.857   5.197  18.679  0.00  0.00    +0.000 C 
BRANCH   5   6
ATOM      6  C   UNL     1       3.060   6.448  18.970  0.00  0.00    +0.000 A 
ATOM      7  C   UNL     1       2.367   6.582  20.204  0.00  0.00    +0.000 A 
ATOM      8  C   UNL     1       1.585   7.724  20.466  0.00  0.00    +0.000 A 
ATOM      9  C   UNL     1       1.518   8.702  19.479  0.00  0.00    +0.000 A 
ATOM     10  C   UNL     1       2.174   8.585  18.307  0.00  0.00    +0.000 A 
ATOM     11  C   UNL     1       2.959   7.475  18.002  0.00  0.00    +0.000 A 
ATOM     12  O   UNL     1       1.924   9.659  17.554  0.00  0.00    +0.000 OA
ATOM     13  C   UNL     1       1.072  10.490  18.278  0.00  0.00    +0.000 C 
ATOM     14  O   UNL     1       0.840   9.852  19.493  0.00  0.00    +0.000 OA
ENDBRANCH   5   6
ENDBRANCH   4   5
ENDBRANCH   1   4
BRANCH   1  15
ATOM     15  C   UNL     1       5.012   4.009  15.626  0.00  0.00    +0.000 C 
BRANCH  15  16
ATOM     16  C   UNL     1       6.555   4.049  15.632  0.00  0.00    +0.000 C 
BRANCH  16  17
ATOM     17  C   UNL     1       7.065   5.072  16.629  0.00  0.00    +0.000 A 
ATOM     18  C   UNL     1       7.086   6.434  16.289  0.00  0.00    +0.000 A 
ATOM     19  C   UNL     1       7.565   7.383  17.195  0.00  0.00    +0.000 A 
ATOM     20  C   UNL     1       8.031   6.991  18.460  0.00  0.00    +0.000 A 
ATOM     21  C   UNL     1       8.012   5.628  18.812  0.00  0.00    +0.000 A 
ATOM     22  C   UNL     1       7.529   4.681  17.901  0.00  0.00    +0.000 A 
BRANCH  20  23
ATOM     23  O   UNL     1       8.495   7.910  19.330  0.00  0.00    +0.000 OA
ATOM     24  H   UNL     1       9.323   8.391  19.181  0.00  0.00    +0.000 HD
ENDBRANCH  20  23
BRANCH  21  25
ATOM     25  O   UNL     1       8.453   5.211  20.018  0.00  0.00    +0.000 OA
ATOM     26  H   UNL     1       7.879   4.777  20.664  0.00  0.00    +0.000 HD
ENDBRANCH  21  25
ENDBRANCH  16  17
BRANCH  16  27
ATOM     27  O   UNL     1       7.074   4.313  14.353  0.00  0.00    +0.000 OA
ATOM     28  H   UNL     1       8.043   4.515  14.447  0.00  0.00    +0.000 HD
ENDBRANCH  16  27
ENDBRANCH  15  16
ENDBRANCH   1  15
TORSDOF 9
ENDMDL
MODEL 7
REMARK VINA RESULT:      -7.0      1.847      2.879
REMARK  Name = 
REMARK  10 active torsions:
REMARK  status: ('A' for Active; 'I' for Inactive)
REMARK    1  A    between atoms: C_1  and  C_2
REMARK    2  A    between atoms: C_2  and  C_3
REMARK    3  A    between atoms: C_2  and  N_13
REMARK    4  A    between atoms: C_3  and  C_4
REMARK    5  A    between atoms: N_13  and  C_14
REMARK    6  A    between atoms: C_14  and  C_15
REMARK    7  A    between atoms: C_15  and  O_16
REMARK    8  A    between atoms: C_15  and  C_17
REMARK    9  A    between atoms: C_20  and  O_21
REMARK   10  A    between atoms: C_22  and  O_23
REMARK                            x       y       z     vdW  Elec       q    Type
REMARK                         _______ _______ _______ _____ _____    ______ ____
ROOT
ATOM      1  N   UNL     1       1.978   3.621  18.243  0.00  0.00    +0.000 NA
ATOM      2  H   UNL     1       2.230   4.430  17.634  0.00  0.00    +0.000 HD
ENDROOT
BRANCH   1   4
ATOM      3  C   UNL     1       1.309   2.992  20.582  0.00  0.00    +0.000 C 
ATOM      4  C   UNL     1       1.468   4.123  19.540  0.00  0.00    +0.000 C 
BRANCH   4   5
ATOM      5  C   UNL     1       2.435   5.187  20.111  0.00  0.00    +0.000 C 
BRANCH   5   6
ATOM      6  C   UNL     1       2.161   6.594  19.634  0.00  0.00    +0.000 A 
ATOM      7  C   UNL     1       2.556   6.996  18.329  0.00  0.00    +0.000 A 
ATOM      8  C   UNL     1       2.345   8.318  17.892  0.00  0.00    +0.000 A 
ATOM      9  C   UNL     1       1.743   9.205  18.779  0.00  0.00    +0.000 A 
ATOM     10  C   UNL     1       1.363   8.832  20.018  0.00  0.00    +0.000 A 
ATOM     11  C   UNL     1       1.550   7.537  20.495  0.00  0.00    +0.000 A 
ATOM     12  O   UNL     1       0.825   9.880  20.646  0.00  0.00    +0.000 OA
ATOM     13  C   UNL     1       0.870  10.964  19.771  0.00  0.00    +0.000 C 
ATOM     14  O   UNL     1       1.455  10.495  18.597  0.00  0.00    +0.000 OA
ENDBRANCH   5   6
ENDBRANCH   4   5
ENDBRANCH   1   4
BRANCH   1  15
ATOM     15  C   UNL     1       3.136   2.725  18.384  0.00  0.00    +0.000 C 
BRANCH  15  16
ATOM     16  C   UNL     1       4.360   3.470  18.956  0.00  0.00    +0.000 C 
BRANCH  16  17
ATOM     17  C   UNL     1       5.236   4.007  17.839  0.00  0.00    +0.000 A 
ATOM     18  C   UNL     1       6.451   4.641  18.142  0.00  0.00    +0.000 A 
ATOM     19  C   UNL     1       7.258   5.149  17.122  0.00  0.00    +0.000 A 
ATOM     20  C   UNL     1       6.870   5.031  15.778  0.00  0.00    +0.000 A 
ATOM     21  C   UNL     1       5.655   4.394  15.463  0.00  0.00    +0.000 A 
ATOM     22  C   UNL     1       4.849   3.886  16.489  0.00  0.00    +0.000 A 
BRANCH  20  23
ATOM     23  O   UNL     1       7.651   5.526  14.797  0.00  0.00    +0.000 OA
ATOM     24  H   UNL     1       7.616   5.189  13.889  0.00  0.00    +0.000 HD
ENDBRANCH  20  23
BRANCH  21  25
ATOM     25  O   UNL     1       5.245   4.264  14.183  0.00  0.00    +0.000 OA
ATOM     26  H   UNL     1       5.805   4.493  13.428  0.00  0.00    +0.000 HD
ENDBRANCH  21  25
ENDBRANCH  16  17
BRANCH  16  27
ATOM     27  O   UNL     1       5.114   2.651  19.815  0.00  0.00    +0.000 OA
ATOM     28  H   UNL     1       5.008   2.994  20.742  0.00  0.00    +0.000 HD
ENDBRANCH  16  27
ENDBRANCH  15  16
ENDBRANCH   1  15
TORSDOF 9
ENDMDL
MODEL 8
REMARK VINA RESULT:      -6.9      2.515      6.342
REMARK  Name = 
REMARK  10 active torsions:
REMARK  status: ('A' for Active; 'I' for Inactive)
REMARK    1  A    between atoms: C_1  and  C_2
REMARK    2  A    between atoms: C_2  and  C_3
REMARK    3  A    between atoms: C_2  and  N_13
REMARK    4  A    between atoms: C_3  and  C_4
REMARK    5  A    between atoms: N_13  and  C_14
REMARK    6  A    between atoms: C_14  and  C_15
REMARK    7  A    between atoms: C_15  and  O_16
REMARK    8  A    between atoms: C_15  and  C_17
REMARK    9  A    between atoms: C_20  and  O_21
REMARK   10  A    between atoms: C_22  and  O_23
REMARK                            x       y       z     vdW  Elec       q    Type
REMARK                         _______ _______ _______ _____ _____    ______ ____
ROOT
ATOM      1  N   UNL     1       4.693   6.170  17.813  0.00  0.00    +0.000 NA
ATOM      2  H   UNL     1       5.577   6.665  18.063  0.00  0.00    +0.000 HD
ENDROOT
BRANCH   1   4
ATOM      3  C   UNL     1       6.296   5.638  15.953  0.00  0.00    +0.000 C 
ATOM      4  C   UNL     1       4.900   5.394  16.569  0.00  0.00    +0.000 C 
BRANCH   4   5
ATOM      5  C   UNL     1       4.746   3.883  16.858  0.00  0.00    +0.000 C 
BRANCH   5   6
ATOM      6  C   UNL     1       3.654   3.548  17.848  0.00  0.00    +0.000 A 
ATOM      7  C   UNL     1       2.289   3.631  17.461  0.00  0.00    +0.000 A 
ATOM      8  C   UNL     1       1.264   3.364  18.389  0.00  0.00    +0.000 A 
ATOM      9  C   UNL     1       1.636   3.022  19.685  0.00  0.00    +0.000 A 
ATOM     10  C   UNL     1       2.929   2.938  20.060  0.00  0.00    +0.000 A 
ATOM     11  C   UNL     1       3.977   3.192  19.178  0.00  0.00    +0.000 A 
ATOM     12  O   UNL     1       2.990   2.600  21.350  0.00  0.00    +0.000 OA
ATOM     13  C   UNL     1       1.682   2.469  21.813  0.00  0.00    +0.000 C 
ATOM     14  O   UNL     1       0.853   2.740  20.728  0.00  0.00    +0.000 OA
ENDBRANCH   5   6
ENDBRANCH   4   5
ENDBRANCH   1   4
BRANCH   1  15
ATOM     15  C   UNL     1       3.592   7.141  17.714  0.00  0.00    +0.000 C 
BRANCH  15  16
ATOM     16  C   UNL     1       2.558   6.939  18.841  0.00  0.00    +0.000 C 
BRANCH  16  17
ATOM     17  C   UNL     1       1.877   8.249  19.191  0.00  0.00    +0.000 A 
ATOM     18  C   UNL     1       1.545   9.161  18.177  0.00  0.00    +0.000 A 
ATOM     19  C   UNL     1       0.929  10.375  18.491  0.00  0.00    +0.000 A 
ATOM     20  C   UNL     1       0.629  10.701  19.823  0.00  0.00    +0.000 A 
ATOM     21  C   UNL     1       0.955   9.792  20.847  0.00  0.00    +0.000 A 
ATOM     22  C   UNL     1       1.572   8.576  20.528  0.00  0.00    +0.000 A 
BRANCH  20  23
ATOM     23  O   UNL     1       0.037  11.875  20.121  0.00  0.00    +0.000 OA
ATOM     24  H   UNL     1       0.278  12.391  20.904  0.00  0.00    +0.000 HD
ENDBRANCH  20  23
BRANCH  21  25
ATOM     25  O   UNL     1       0.685  10.070  22.141  0.00  0.00    +0.000 OA
ATOM     26  H   UNL     1       0.098  10.790  22.410  0.00  0.00    +0.000 HD
ENDBRANCH  21  25
ENDBRANCH  16  17
BRANCH  16  27
ATOM     27  O   UNL     1       3.141   6.372  19.988  0.00  0.00    +0.000 OA
ATOM     28  H   UNL     1       3.840   5.729  19.694  0.00  0.00    +0.000 HD
ENDBRANCH  16  27
ENDBRANCH  15  16
ENDBRANCH   1  15
TORSDOF 9
ENDMDL
MODEL 9
REMARK VINA RESULT:      -6.9      1.734      2.722
REMARK  Name = 
REMARK  10 active torsions:
REMARK  status: ('A' for Active; 'I' for Inactive)
REMARK    1  A    between atoms: C_1  and  C_2
REMARK    2  A    between atoms: C_2  and  C_3
REMARK    3  A    between atoms: C_2  and  N_13
REMARK    4  A    between atoms: C_3  and  C_4
REMARK    5  A    between atoms: N_13  and  C_14
REMARK    6  A    between atoms: C_14  and  C_15
REMARK    7  A    between atoms: C_15  and  O_16
REMARK    8  A    between atoms: C_15  and  C_17
REMARK    9  A    between atoms: C_20  and  O_21
REMARK   10  A    between atoms: C_22  and  O_23
REMARK                            x       y       z     vdW  Elec       q    Type
REMARK                         _______ _______ _______ _____ _____    ______ ____
ROOT
ATOM      1  N   UNL     1       3.469   3.748  19.956  0.00  0.00    +0.000 NA
ATOM      2  H   UNL     1       3.759   3.561  20.941  0.00  0.00    +0.000 HD
ENDROOT
BRANCH   1   4
ATOM      3  C   UNL     1       1.089   3.225  20.568  0.00  0.00    +0.000 C 
ATOM      4  C   UNL     1       2.073   4.240  19.940  0.00  0.00    +0.000 C 
BRANCH   4   5
ATOM      5  C   UNL     1       1.972   5.570  20.722  0.00  0.00    +0.000 C 
BRANCH   5   6
ATOM      6  C   UNL     1       1.978   6.805  19.850  0.00  0.00    +0.000 A 
ATOM      7  C   UNL     1       2.569   6.764  18.558  0.00  0.00    +0.000 A 
ATOM      8  C   UNL     1       2.618   7.921  17.756  0.00  0.00    +0.000 A 
ATOM      9  C   UNL     1       2.074   9.091  18.274  0.00  0.00    +0.000 A 
ATOM     10  C   UNL     1       1.509   9.139  19.498  0.00  0.00    +0.000 A 
ATOM     11  C   UNL     1       1.436   8.022  20.327  0.00  0.00    +0.000 A 
ATOM     12  O   UNL     1       1.080  10.381  19.736  0.00  0.00    +0.000 OA
ATOM     13  C   UNL     1       1.390  11.153  18.618  0.00  0.00    +0.000 C 
ATOM     14  O   UNL     1       2.015  10.300  17.712  0.00  0.00    +0.000 OA
ENDBRANCH   5   6
ENDBRANCH   4   5
ENDBRANCH   1   4
BRANCH   1  15
ATOM     15  C   UNL     1       3.666   2.539  19.142  0.00  0.00    +0.000 C 
BRANCH  15  16
ATOM     16  C   UNL     1       3.805   2.882  17.644  0.00  0.00    +0.000 C 
BRANCH  16  17
ATOM     17  C   UNL     1       4.742   4.058  17.444  0.00  0.00    +0.000 A 
ATOM     18  C   UNL     1       5.776   4.298  18.362  0.00  0.00    +0.000 A 
ATOM     19  C   UNL     1       6.636   5.385  18.192  0.00  0.00    +0.000 A 
ATOM     20  C   UNL     1       6.482   6.254  17.100  0.00  0.00    +0.000 A 
ATOM     21  C   UNL     1       5.450   6.021  16.172  0.00  0.00    +0.000 A 
ATOM     22  C   UNL     1       4.591   4.930  16.345  0.00  0.00    +0.000 A 
BRANCH  20  23
ATOM     23  O   UNL     1       7.313   7.304  16.943  0.00  0.00    +0.000 OA
ATOM     24  H   UNL     1       7.787   7.468  16.114  0.00  0.00    +0.000 HD
ENDBRANCH  20  23
BRANCH  21  25
ATOM     25  O   UNL     1       5.268   6.836  15.110  0.00  0.00    +0.000 OA
ATOM     26  H   UNL     1       5.354   6.532  14.196  0.00  0.00    +0.000 HD
ENDBRANCH  21  25
ENDBRANCH  16  17
BRANCH  16  27
ATOM     27  O   UNL     1       2.557   3.146  17.052  0.00  0.00    +0.000 OA
ATOM     28  H   UNL     1       1.861   3.094  17.760  0.00  0.00    +0.000 HD
ENDBRANCH  16  27
ENDBRANCH  15  16
ENDBRANCH   1  15
TORSDOF 9
ENDMDL
