MODEL 1
REMARK VINA RESULT:      -7.8      0.000      0.000
REMARK  Name = 
REMARK  5 active torsions:
REMARK  status: ('A' for Active; 'I' for Inactive)
REMARK    1  A    between atoms: C_1  and  C_2
REMARK    2  A    between atoms: C_14  and  O_15
REMARK    3  A    between atoms: O_15  and  C_16
REMARK    4  A    between atoms: C_16  and  C_17
REMARK    5  A    between atoms: C_16  and  C_18
REMARK                            x       y       z     vdW  Elec       q    Type
REMARK                         _______ _______ _______ _____ _____    ______ ____
ROOT
ATOM      1  C   UNL     1      -0.556  12.882  22.216  0.00  0.00    +0.000 C 
ATOM      2  C   UNL     1       0.245  12.017  21.324  0.00  0.00    +0.000 A 
ATOM      3  C   UNL     1       1.078  12.565  20.354  0.00  0.00    +0.000 A 
ATOM      4  O   UNL     1       1.496  11.620  19.492  0.00  0.00    +0.000 OA
ATOM      5  C   UNL     1       1.027  10.459  19.982  0.00  0.00    +0.000 A 
ATOM      6  C   UNL     1       0.416  10.596  21.197  0.00  0.00    +0.000 A 
ATOM      7  C   UNL     1       0.134   9.363  21.932  0.00  0.00    +0.000 A 
ATOM      8  O   UNL     1      -0.547   9.316  22.950  0.00  0.00    +0.000 OA
ATOM      9  O   UNL     1       0.801   8.166  21.392  0.00  0.00    +0.000 OA
ATOM     10  C   UNL     1       1.461   8.105  20.099  0.00  0.00    +0.000 A 
ATOM     11  C   UNL     1       2.218   6.992  19.623  0.00  0.00    +0.000 A 
ATOM     12  C   UNL     1       2.595   5.819  20.330  0.00  0.00    +0.000 A 
ATOM     13  C   UNL     1       3.545   4.914  19.787  0.00  0.00    +0.000 A 
ATOM     14  C   UNL     1       4.116   5.130  18.529  0.00  0.00    +0.000 A 
ATOM     15  C   UNL     1       3.627   6.177  17.767  0.00  0.00    +0.000 A 
ATOM     16  C   UNL     1       2.736   7.105  18.295  0.00  0.00    +0.000 A 
ATOM     17  C   UNL     1       2.455   8.195  17.474  0.00  0.00    +0.000 A 
ATOM     18  C   UNL     1       1.797   9.285  17.990  0.00  0.00    +0.000 A 
ATOM     19  C   UNL     1       1.391   9.260  19.315  0.00  0.00    +0.000 A 
ENDROOT
BRANCH  14  20
ATOM     20  O   UNL     1       5.147   4.317  18.126  0.00  0.00    +0.000 OA
BRANCH  20  21
ATOM     21  C   UNL     1       6.118   4.877  17.207  0.00  0.00    +0.000 C 
ATOM     22  C   UNL     1       7.539   4.790  17.771  0.00  0.00    +0.000 C 
ATOM     23  C   UNL     1       6.060   4.097  15.891  0.00  0.00    +0.000 C 
ENDBRANCH  20  21
ENDBRANCH  14  20
TORSDOF 2
ENDMDL
MODEL 2
REMARK VINA RESULT:      -7.7      2.204      7.337
REMARK  Name = 
REMARK  5 active torsions:
REMARK  status: ('A' for Active; 'I' for Inactive)
REMARK    1  A    between atoms: C_1  and  C_2
REMARK    2  A    between atoms: C_14  and  O_15
REMARK    3  A    between atoms: O_15  and  C_16
REMARK    4  A    between atoms: C_16  and  C_17
REMARK    5  A    between atoms: C_16  and  C_18
REMARK                            x       y       z     vdW  Elec       q    Type
REMARK                         _______ _______ _______ _____ _____    ______ ____
ROOT
ATOM      1  C   UNL     1       3.663   1.256  18.650  0.00  0.00    +0.000 C 
ATOM      2  C   UNL     1       3.254   2.661  18.442  0.00  0.00    +0.000 A 
ATOM      3  C   UNL     1       3.117   3.184  17.161  0.00  0.00    +0.000 A 
ATOM      4  O   UNL     1       3.005   4.524  17.198  0.00  0.00    +0.000 OA
ATOM      5  C   UNL     1       2.952   4.839  18.505  0.00  0.00    +0.000 A 
ATOM      6  C   UNL     1       2.907   3.744  19.321  0.00  0.00    +0.000 A 
ATOM      7  C   UNL     1       2.562   3.983  20.723  0.00  0.00    +0.000 A 
ATOM      8  O   UNL     1       2.639   3.131  21.599  0.00  0.00    +0.000 OA
ATOM      9  O   UNL     1       2.035   5.330  20.998  0.00  0.00    +0.000 OA
ATOM     10  C   UNL     1       2.089   6.442  20.064  0.00  0.00    +0.000 A 
ATOM     11  C   UNL     1       1.470   7.711  20.272  0.00  0.00    +0.000 A 
ATOM     12  C   UNL     1       0.586   8.098  21.316  0.00  0.00    +0.000 A 
ATOM     13  C   UNL     1      -0.127   9.323  21.251  0.00  0.00    +0.000 A 
ATOM     14  C   UNL     1       0.038  10.202  20.177  0.00  0.00    +0.000 A 
ATOM     15  C   UNL     1       1.020   9.911  19.246  0.00  0.00    +0.000 A 
ATOM     16  C   UNL     1       1.695   8.695  19.259  0.00  0.00    +0.000 A 
ATOM     17  C   UNL     1       2.536   8.469  18.172  0.00  0.00    +0.000 A 
ATOM     18  C   UNL     1       3.047   7.212  17.956  0.00  0.00    +0.000 A 
ATOM     19  C   UNL     1       2.744   6.200  18.853  0.00  0.00    +0.000 A 
ENDROOT
BRANCH  14  20
ATOM     20  O   UNL     1      -0.797  11.290  20.082  0.00  0.00    +0.000 OA
BRANCH  20  21
ATOM     21  C   UNL     1      -0.971  11.885  18.772  0.00  0.00    +0.000 C 
ATOM     22  C   UNL     1      -2.409  11.723  18.270  0.00  0.00    +0.000 C 
ATOM     23  C   UNL     1      -0.644  13.377  18.859  0.00  0.00    +0.000 C 
ENDBRANCH  20  21
ENDBRANCH  14  20
TORSDOF 2
ENDMDL
MODEL 3
REMARK VINA RESULT:      -7.4      2.159      7.478
REMARK  Name = 
REMARK  5 active torsions:
REMARK  status: ('A' for Active; 'I' for Inactive)
REMARK    1  A    between atoms: C_1  and  C_2
REMARK    2  A    between atoms: C_14  and  O_15
REMARK    3  A    between atoms: O_15  and  C_16
REMARK    4  A    between atoms: C_16  and  C_17
REMARK    5  A    between atoms: C_16  and  C_18
REMARK                            x       y       z     vdW  Elec       q    Type
REMARK                         _______ _______ _______ _____ _____    ______ ____
ROOT
ATOM      1  C   UNL     1       3.255   1.383  18.906  0.00  0.00    +0.000 C 
ATOM      2  C   UNL     1       2.874   2.792  18.674  0.00  0.00    +0.000 A 
ATOM      3  C   UNL     1       2.679   3.277  17.386  0.00  0.00    +0.000 A 
ATOM      4  O   UNL     1       2.606   4.621  17.385  0.00  0.00    +0.000 OA
ATOM      5  C   UNL     1       2.634   4.979  18.680  0.00  0.00    +0.000 A 
ATOM      6  C   UNL     1       2.605   3.912  19.534  0.00  0.00    +0.000 A 
ATOM      7  C   UNL     1       2.346   4.206  20.944  0.00  0.00    +0.000 A 
ATOM      8  O   UNL     1       2.448   3.380  21.843  0.00  0.00    +0.000 OA
ATOM      9  O   UNL     1       1.871   5.576  21.202  0.00  0.00    +0.000 OA
ATOM     10  C   UNL     1       1.904   6.656  20.230  0.00  0.00    +0.000 A 
ATOM     11  C   UNL     1       1.332   7.948  20.429  0.00  0.00    +0.000 A 
ATOM     12  C   UNL     1       0.519   8.393  21.506  0.00  0.00    +0.000 A 
ATOM     13  C   UNL     1      -0.164   9.636  21.439  0.00  0.00    +0.000 A 
ATOM     14  C   UNL     1      -0.035  10.475  20.329  0.00  0.00    +0.000 A 
ATOM     15  C   UNL     1       0.885  10.126  19.356  0.00  0.00    +0.000 A 
ATOM     16  C   UNL     1       1.527   8.892  19.373  0.00  0.00    +0.000 A 
ATOM     17  C   UNL     1       2.299   8.607  18.249  0.00  0.00    +0.000 A 
ATOM     18  C   UNL     1       2.763   7.329  18.048  0.00  0.00    +0.000 A 
ATOM     19  C   UNL     1       2.483   6.356  18.994  0.00  0.00    +0.000 A 
ENDROOT
BRANCH  14  20
ATOM     20  O   UNL     1      -0.843  11.583  20.243  0.00  0.00    +0.000 OA
BRANCH  20  21
ATOM     21  C   UNL     1      -1.311  12.165  21.486  0.00  0.00    +0.000 C 
ATOM     22  C   UNL     1      -0.412  13.318  21.939  0.00  0.00    +0.000 C 
ATOM     23  C   UNL     1      -2.731  12.698  21.278  0.00  0.00    +0.000 C 
ENDBRANCH  20  21
ENDBRANCH  14  20
TORSDOF 2
ENDMDL
MODEL 4
REMARK VINA RESULT:      -7.4      5.300      6.900
REMARK  Name = 
REMARK  5 active torsions:
REMARK  status: ('A' for Active; 'I' for Inactive)
REMARK    1  A    between atoms: C_1  and  C_2
REMARK    2  A    between atoms: C_14  and  O_15
REMARK    3  A    between atoms: O_15  and  C_16
REMARK    4  A    between atoms: C_16  and  C_17
REMARK    5  A    between atoms: C_16  and  C_18
REMARK                            x       y       z     vdW  Elec       q    Type
REMARK                         _______ _______ _______ _____ _____    ______ ____
ROOT
ATOM      1  C   UNL     1       1.029   1.813  19.441  0.00  0.00    +0.000 C 
ATOM      2  C   UNL     1       1.831   2.936  18.910  0.00  0.00    +0.000 A 
ATOM      3  C   UNL     1       1.231   3.971  18.201  0.00  0.00    +0.000 A 
ATOM      4  O   UNL     1       2.156   4.732  17.588  0.00  0.00    +0.000 OA
ATOM      5  C   UNL     1       3.342   4.252  18.003  0.00  0.00    +0.000 A 
ATOM      6  C   UNL     1       3.226   3.281  18.957  0.00  0.00    +0.000 A 
ATOM      7  C   UNL     1       4.449   2.908  19.667  0.00  0.00    +0.000 A 
ATOM      8  O   UNL     1       4.531   1.951  20.428  0.00  0.00    +0.000 OA
ATOM      9  O   UNL     1       5.579   3.828  19.456  0.00  0.00    +0.000 OA
ATOM     10  C   UNL     1       5.619   4.863  18.436  0.00  0.00    +0.000 A 
ATOM     11  C   UNL     1       6.653   5.838  18.307  0.00  0.00    +0.000 A 
ATOM     12  C   UNL     1       7.739   6.091  19.188  0.00  0.00    +0.000 A 
ATOM     13  C   UNL     1       8.546   7.249  19.037  0.00  0.00    +0.000 A 
ATOM     14  C   UNL     1       8.320   8.161  18.001  0.00  0.00    +0.000 A 
ATOM     15  C   UNL     1       7.375   7.832  17.044  0.00  0.00    +0.000 A 
ATOM     16  C   UNL     1       6.539   6.732  17.197  0.00  0.00    +0.000 A 
ATOM     17  C   UNL     1       5.529   6.615  16.244  0.00  0.00    +0.000 A 
ATOM     18  C   UNL     1       4.504   5.722  16.444  0.00  0.00    +0.000 A 
ATOM     19  C   UNL     1       4.518   4.926  17.579  0.00  0.00    +0.000 A 
ENDROOT
BRANCH  14  20
ATOM     20  O   UNL     1       9.020   9.343  18.000  0.00  0.00    +0.000 OA
BRANCH  20  21
ATOM     21  C   UNL     1       8.476  10.441  18.775  0.00  0.00    +0.000 C 
ATOM     22  C   UNL     1       9.284  10.679  20.053  0.00  0.00    +0.000 C 
ATOM     23  C   UNL     1       8.513  11.712  17.924  0.00  0.00    +0.000 C 
ENDBRANCH  20  21
ENDBRANCH  14  20
TORSDOF 2
ENDMDL
MODEL 5
REMARK VINA RESULT:      -7.3      1.221      1.561
REMARK  Name = 
REMARK  5 active torsions:
REMARK  status: ('A' for Active; 'I' for Inactive)
REMARK    1  A    between atoms: C_1  and  C_2
REMARK    2  A    between atoms: C_14  and  O_15
REMARK    3  A    between atoms: O_15  and  C_16
REMARK    4  A    between atoms: C_16  and  C_17
REMARK    5  A    between atoms: C_16  and  C_18
REMARK                            x       y       z     vdW  Elec       q    Type
REMARK                         _______ _______ _______ _____ _____    ______ ____
ROOT
ATOM      1  C   UNL     1      -0.142  14.266  22.038  0.00  0.00    +0.000 C 
ATOM      2  C   UNL     1       0.518  13.214  21.237  0.00  0.00    +0.000 A 
ATOM      3  C   UNL     1       1.483  13.538  20.289  0.00  0.00    +0.000 A 
ATOM      4  O   UNL     1       1.753  12.482  19.499  0.00  0.00    +0.000 OA
ATOM      5  C   UNL     1       1.049  11.461  20.019  0.00  0.00    +0.000 A 
ATOM      6  C   UNL     1       0.421  11.781  21.190  0.00  0.00    +0.000 A 
ATOM      7  C   UNL     1      -0.124  10.669  21.968  0.00  0.00    +0.000 A 
ATOM      8  O   UNL     1      -0.846  10.811  22.947  0.00  0.00    +0.000 OA
ATOM      9  O   UNL     1       0.327   9.338  21.525  0.00  0.00    +0.000 OA
ATOM     10  C   UNL     1       1.021   9.078  20.276  0.00  0.00    +0.000 A 
ATOM     11  C   UNL     1       1.572   7.817  19.898  0.00  0.00    +0.000 A 
ATOM     12  C   UNL     1       1.686   6.637  20.682  0.00  0.00    +0.000 A 
ATOM     13  C   UNL     1       2.470   5.539  20.238  0.00  0.00    +0.000 A 
ATOM     14  C   UNL     1       3.127   5.570  19.005  0.00  0.00    +0.000 A 
ATOM     15  C   UNL     1       2.882   6.643  18.166  0.00  0.00    +0.000 A 
ATOM     16  C   UNL     1       2.162   7.751  18.597  0.00  0.00    +0.000 A 
ATOM     17  C   UNL     1       2.131   8.825  17.709  0.00  0.00    +0.000 A 
ATOM     18  C   UNL     1       1.671  10.047  18.134  0.00  0.00    +0.000 A 
ATOM     19  C   UNL     1       1.208  10.177  19.433  0.00  0.00    +0.000 A 
ENDROOT
BRANCH  14  20
ATOM     20  O   UNL     1       4.002   4.555  18.700  0.00  0.00    +0.000 OA
BRANCH  20  21
ATOM     21  C   UNL     1       3.737   3.782  17.503  0.00  0.00    +0.000 C 
ATOM     22  C   UNL     1       4.863   3.934  16.476  0.00  0.00    +0.000 C 
ATOM     23  C   UNL     1       3.613   2.306  17.885  0.00  0.00    +0.000 C 
ENDBRANCH  20  21
ENDBRANCH  14  20
TORSDOF 2
ENDMDL
MODEL 6
REMARK VINA RESULT:      -7.2      1.722      7.793
REMARK  Name = 
REMARK  5 active torsions:
REMARK  status: ('A' for Active; 'I' for Inactive)
REMARK    1  A    between atoms: C_1  and  C_2
REMARK    2  A    between atoms: C_14  and  O_15
REMARK    3  A    between atoms: O_15  and  C_16
REMARK    4  A    between atoms: C_16  and  C_17
REMARK    5  A    between atoms: C_16  and  C_18
REMARK                            x       y       z     vdW  Elec       q    Type
REMARK                         _______ _______ _______ _____ _____    ______ ____
ROOT
ATOM      1  C   UNL     1       7.230   4.294  16.585  0.00  0.00    +0.000 C 
ATOM      2  C   UNL     1       6.261   4.970  17.474  0.00  0.00    +0.000 A 
ATOM      3  C   UNL     1       6.260   4.732  18.844  0.00  0.00    +0.000 A 
ATOM      4  O   UNL     1       5.148   5.227  19.416  0.00  0.00    +0.000 OA
ATOM      5  C   UNL     1       4.504   5.881  18.434  0.00  0.00    +0.000 A 
ATOM      6  C   UNL     1       5.212   5.931  17.266  0.00  0.00    +0.000 A 
ATOM      7  C   UNL     1       4.726   6.855  16.242  0.00  0.00    +0.000 A 
ATOM      8  O   UNL     1       5.158   6.892  15.096  0.00  0.00    +0.000 OA
ATOM      9  O   UNL     1       3.709   7.809  16.717  0.00  0.00    +0.000 OA
ATOM     10  C   UNL     1       3.018   7.708  17.990  0.00  0.00    +0.000 A 
ATOM     11  C   UNL     1       2.127   8.694  18.513  0.00  0.00    +0.000 A 
ATOM     12  C   UNL     1       1.848   9.989  17.998  0.00  0.00    +0.000 A 
ATOM     13  C   UNL     1       1.117  10.935  18.762  0.00  0.00    +0.000 A 
ATOM     14  C   UNL     1       0.621  10.616  20.030  0.00  0.00    +0.000 A 
ATOM     15  C   UNL     1       0.743   9.308  20.463  0.00  0.00    +0.000 A 
ATOM     16  C   UNL     1       1.498   8.377  19.757  0.00  0.00    +0.000 A 
ATOM     17  C   UNL     1       1.671   7.148  20.390  0.00  0.00    +0.000 A 
ATOM     18  C   UNL     1       2.599   6.257  19.906  0.00  0.00    +0.000 A 
ATOM     19  C   UNL     1       3.319   6.588  18.770  0.00  0.00    +0.000 A 
ENDROOT
BRANCH  14  20
ATOM     20  O   UNL     1       0.067  11.618  20.791  0.00  0.00    +0.000 OA
BRANCH  20  21
ATOM     21  C   UNL     1      -1.286  11.420  21.271  0.00  0.00    +0.000 C 
ATOM     22  C   UNL     1      -1.405  11.750  22.762  0.00  0.00    +0.000 C 
ATOM     23  C   UNL     1      -2.228  12.335  20.486  0.00  0.00    +0.000 C 
ENDBRANCH  20  21
ENDBRANCH  14  20
TORSDOF 2
ENDMDL
MODEL 7
REMARK VINA RESULT:      -7.1      4.471      6.531
REMARK  Name = 
REMARK  5 active torsions:
REMARK  status: ('A' for Active; 'I' for Inactive)
REMARK    1  A    between atoms: C_1  and  C_2
REMARK    2  A    between atoms: C_14  and  O_15
REMARK    3  A    between atoms: O_15  and  C_16
REMARK    4  A    between atoms: C_16  and  C_17
REMARK    5  A    between atoms: C_16  and  C_18
REMARK                            x       y       z     vdW  Elec       q    Type
REMARK                         _______ _______ _______ _____ _____    ______ ____
ROOT
ATOM      1  C   UNL     1       1.150   2.076  21.149  0.00  0.00    +0.000 C 
ATOM      2  C   UNL     1       1.796   3.226  20.484  0.00  0.00    +0.000 A 
ATOM      3  C   UNL     1       1.080   4.384  20.202  0.00  0.00    +0.000 A 
ATOM      4  O   UNL     1       1.769   5.185  19.368  0.00  0.00    +0.000 OA
ATOM      5  C   UNL     1       2.966   4.592  19.216  0.00  0.00    +0.000 A 
ATOM      6  C   UNL     1       3.128   3.493  20.014  0.00  0.00    +0.000 A 
ATOM      7  C   UNL     1       4.485   2.960  20.129  0.00  0.00    +0.000 A 
ATOM      8  O   UNL     1       4.756   1.896  20.673  0.00  0.00    +0.000 OA
ATOM      9  O   UNL     1       5.535   3.846  19.598  0.00  0.00    +0.000 OA
ATOM     10  C   UNL     1       5.284   5.020  18.780  0.00  0.00    +0.000 A 
ATOM     11  C   UNL     1       6.282   5.954  18.369  0.00  0.00    +0.000 A 
ATOM     12  C   UNL     1       7.644   6.019  18.769  0.00  0.00    +0.000 A 
ATOM     13  C   UNL     1       8.445   7.147  18.451  0.00  0.00    +0.000 A 
ATOM     14  C   UNL     1       7.932   8.214  17.708  0.00  0.00    +0.000 A 
ATOM     15  C   UNL     1       6.662   8.080  17.173  0.00  0.00    +0.000 A 
ATOM     16  C   UNL     1       5.841   7.011  17.512  0.00  0.00    +0.000 A 
ATOM     17  C   UNL     1       4.535   7.087  17.032  0.00  0.00    +0.000 A 
ATOM     18  C   UNL     1       3.581   6.224  17.514  0.00  0.00    +0.000 A 
ATOM     19  C   UNL     1       3.950   5.266  18.445  0.00  0.00    +0.000 A 
ENDROOT
BRANCH  14  20
ATOM     20  O   UNL     1       8.695   9.349  17.572  0.00  0.00    +0.000 OA
BRANCH  20  21
ATOM     21  C   UNL     1       8.481  10.416  18.529  0.00  0.00    +0.000 C 
ATOM     22  C   UNL     1       9.535  10.394  19.639  0.00  0.00    +0.000 C 
ATOM     23  C   UNL     1       8.562  11.758  17.797  0.00  0.00    +0.000 C 
ENDBRANCH  20  21
ENDBRANCH  14  20
TORSDOF 2
ENDMDL
MODEL 8
REMARK VINA RESULT:      -7.1      1.672      7.718
REMARK  Name = 
REMARK  5 active torsions:
REMARK  status: ('A' for Active; 'I' for Inactive)
REMARK    1  A    between atoms: C_1  and  C_2
REMARK    2  A    between atoms: C_14  and  O_15
REMARK    3  A    between atoms: O_15  and  C_16
REMARK    4  A    between atoms: C_16  and  C_17
REMARK    5  A    between atoms: C_16  and  C_18
REMARK                            x       y       z     vdW  Elec       q    Type
REMARK                         _______ _______ _______ _____ _____    ______ ____
ROOT
ATOM      1  C   UNL     1       7.384   4.405  15.962  0.00  0.00    +0.000 C 
ATOM      2  C   UNL     1       6.450   4.934  16.978  0.00  0.00    +0.000 A 
ATOM      3  C   UNL     1       6.567   4.569  18.315  0.00  0.00    +0.000 A 
ATOM      4  O   UNL     1       5.477   4.939  19.011  0.00  0.00    +0.000 OA
ATOM      5  C   UNL     1       4.724   5.640  18.145  0.00  0.00    +0.000 A 
ATOM      6  C   UNL     1       5.337   5.842  16.940  0.00  0.00    +0.000 A 
ATOM      7  C   UNL     1       4.723   6.826  16.048  0.00  0.00    +0.000 A 
ATOM      8  O   UNL     1       5.063   6.996  14.884  0.00  0.00    +0.000 OA
ATOM      9  O   UNL     1       3.695   7.667  16.685  0.00  0.00    +0.000 OA
ATOM     10  C   UNL     1       3.110   7.405  17.989  0.00  0.00    +0.000 A 
ATOM     11  C   UNL     1       2.209   8.280  18.667  0.00  0.00    +0.000 A 
ATOM     12  C   UNL     1       1.821   9.598  18.302  0.00  0.00    +0.000 A 
ATOM     13  C   UNL     1       1.099  10.422  19.205  0.00  0.00    +0.000 A 
ATOM     14  C   UNL     1       0.721   9.956  20.467  0.00  0.00    +0.000 A 
ATOM     15  C   UNL     1       0.948   8.623  20.761  0.00  0.00    +0.000 A 
ATOM     16  C   UNL     1       1.696   7.811  19.916  0.00  0.00    +0.000 A 
ATOM     17  C   UNL     1       1.984   6.541  20.412  0.00  0.00    +0.000 A 
ATOM     18  C   UNL     1       2.920   5.759  19.779  0.00  0.00    +0.000 A 
ATOM     19  C   UNL     1       3.532   6.238  18.632  0.00  0.00    +0.000 A 
ENDROOT
BRANCH  14  20
ATOM     20  O   UNL     1       0.173  10.846  21.360  0.00  0.00    +0.000 OA
BRANCH  20  21
ATOM     21  C   UNL     1      -0.754  10.320  22.343  0.00  0.00    +0.000 C 
ATOM     22  C   UNL     1      -0.019   9.613  23.485  0.00  0.00    +0.000 C 
ATOM     23  C   UNL     1      -1.570  11.478  22.921  0.00  0.00    +0.000 C 
ENDBRANCH  20  21
ENDBRANCH  14  20
TORSDOF 2
ENDMDL
MODEL 9
REMARK VINA RESULT:      -6.9      1.582      2.418
REMARK  Name = 
REMARK  5 active torsions:
REMARK  status: ('A' for Active; 'I' for Inactive)
REMARK    1  A    between atoms: C_1  and  C_2
REMARK    2  A    between atoms: C_14  and  O_15
REMARK    3  A    between atoms: O_15  and  C_16
REMARK    4  A    between atoms: C_16  and  C_17
REMARK    5  A    between atoms: C_16  and  C_18
REMARK                            x       y       z     vdW  Elec       q    Type
REMARK                         _______ _______ _______ _____ _____    ______ ____
ROOT
ATOM      1  C   UNL     1      -0.609  14.914  22.805  0.00  0.00    +0.000 C 
ATOM      2  C   UNL     1       0.060  13.940  21.917  0.00  0.00    +0.000 A 
ATOM      3  C   UNL     1       1.015  14.352  20.994  0.00  0.00    +0.000 A 
ATOM      4  O   UNL     1       1.293  13.368  20.119  0.00  0.00    +0.000 OA
ATOM      5  C   UNL     1       0.605  12.299  20.557  0.00  0.00    +0.000 A 
ATOM      6  C   UNL     1      -0.020  12.514  21.753  0.00  0.00    +0.000 A 
ATOM      7  C   UNL     1      -0.547  11.335  22.440  0.00  0.00    +0.000 A 
ATOM      8  O   UNL     1      -1.266  11.388  23.431  0.00  0.00    +0.000 OA
ATOM      9  O   UNL     1      -0.083  10.051  21.888  0.00  0.00    +0.000 OA
ATOM     10  C   UNL     1       0.607   9.903  20.618  0.00  0.00    +0.000 A 
ATOM     11  C   UNL     1       1.171   8.684  20.136  0.00  0.00    +0.000 A 
ATOM     12  C   UNL     1       1.305   7.446  20.820  0.00  0.00    +0.000 A 
ATOM     13  C   UNL     1       2.099   6.398  20.283  0.00  0.00    +0.000 A 
ATOM     14  C   UNL     1       2.749   6.538  19.054  0.00  0.00    +0.000 A 
ATOM     15  C   UNL     1       2.485   7.673  18.307  0.00  0.00    +0.000 A 
ATOM     16  C   UNL     1       1.754   8.733  18.831  0.00  0.00    +0.000 A 
ATOM     17  C   UNL     1       1.705   9.875  18.033  0.00  0.00    +0.000 A 
ATOM     18  C   UNL     1       1.233  11.053  18.559  0.00  0.00    +0.000 A 
ATOM     19  C   UNL     1       0.776  11.070  19.867  0.00  0.00    +0.000 A 
ENDROOT
BRANCH  14  20
ATOM     20  O   UNL     1       3.634   5.562  18.663  0.00  0.00    +0.000 OA
BRANCH  20  21
ATOM     21  C   UNL     1       3.118   4.217  18.504  0.00  0.00    +0.000 C 
ATOM     22  C   UNL     1       1.866   4.197  17.623  0.00  0.00    +0.000 C 
ATOM     23  C   UNL     1       4.195   3.348  17.852  0.00  0.00    +0.000 C 
ENDBRANCH  20  21
ENDBRANCH  14  20
TORSDOF 2
ENDMDL
