MODEL 1
REMARK VINA RESULT:      -8.1      0.000      0.000
REMARK  Name = 
REMARK  2 active torsions:
REMARK  status: ('A' for Active; 'I' for Inactive)
REMARK    1  A    between atoms: C_9  and  N_10
REMARK    2  A    between atoms: N_14  and  C_15
REMARK                            x       y       z     vdW  Elec       q    Type
REMARK                         _______ _______ _______ _____ _____    ______ ____
ROOT
ATOM      1  N   UNL     1       4.869   6.028  15.732  0.00  0.00    +0.000 N 
ATOM      2  C   UNL     1       4.031   6.198  16.832  0.00  0.00    +0.000 A 
ATOM      3  N   UNL     1       3.661   7.443  17.097  0.00  0.00    +0.000 NA
ATOM      4  C   UNL     1       2.865   7.589  18.139  0.00  0.00    +0.000 A 
ATOM      5  N   UNL     1       2.510   8.889  18.507  0.00  0.00    +0.000 N 
ATOM      6  N   UNL     1       2.425   6.579  18.881  0.00  0.00    +0.000 NA
ATOM      7  C   UNL     1       2.848   5.367  18.568  0.00  0.00    +0.000 A 
ATOM      8  N   UNL     1       2.439   4.320  19.354  0.00  0.00    +0.000 N 
ATOM      9  C   UNL     1       2.896   2.952  19.130  0.00  0.00    +0.000 C 
ATOM     10  C   UNL     1       3.473   2.370  20.441  0.00  0.00    +0.000 C 
ATOM     11  N   UNL     1       2.559   2.485  21.595  0.00  0.00    +0.000 NA
ATOM     12  C   UNL     1       2.156   3.896  21.766  0.00  0.00    +0.000 C 
ATOM     13  C   UNL     1       1.542   4.519  20.492  0.00  0.00    +0.000 C 
ATOM     14  N   UNL     1       3.653   5.142  17.541  0.00  0.00    +0.000 NA
ATOM     15  H   UNL     1       4.262   6.021  14.920  0.00  0.00    +0.000 HD
ATOM     16  H   UNL     1       3.015   9.575  17.965  0.00  0.00    +0.000 HD
ATOM     17  H   UNL     1       3.045   2.177  22.437  0.00  0.00    +0.000 HD
ENDROOT
BRANCH   1  26
ATOM     18  C   UNL     1       6.883   3.748  11.808  0.00  0.00    +0.000 A 
ATOM     19  C   UNL     1       5.652   3.251  12.268  0.00  0.00    +0.000 A 
ATOM     20  C   UNL     1       5.186   3.568  13.548  0.00  0.00    +0.000 A 
ATOM     21  C   UNL     1       5.978   4.368  14.358  0.00  0.00    +0.000 A 
ATOM     22  C   UNL     1       7.211   4.850  13.896  0.00  0.00    +0.000 A 
ATOM     23  C   UNL     1       7.670   4.562  12.623  0.00  0.00    +0.000 A 
ATOM     24  C   UNL     1       7.873   5.690  14.942  0.00  0.00    +0.000 C 
ATOM     25  C   UNL     1       7.155   5.187  16.201  0.00  0.00    +0.000 C 
ATOM     26  C   UNL     1       5.711   4.840  15.770  0.00  0.00    +0.000 C 
ENDBRANCH   1  26
BRANCH   5  27
ATOM     27  C   UNL     1       1.326   9.318  19.125  0.00  0.00    +0.000 A 
ATOM     28  C   UNL     1       0.332   9.942  18.372  0.00  0.00    +0.000 A 
ATOM     29  C   UNL     1      -0.801  10.411  19.019  0.00  0.00    +0.000 A 
ATOM     30  N   UNL     1      -1.020  10.286  20.345  0.00  0.00    +0.000 NA
ATOM     31  C   UNL     1      -0.050   9.677  21.057  0.00  0.00    +0.000 A 
ATOM     32  C   UNL     1       1.122   9.196  20.503  0.00  0.00    +0.000 A 
ENDBRANCH   5  27
TORSDOF 2
ENDMDL
MODEL 2
REMARK VINA RESULT:      -7.4      3.696      7.137
REMARK  Name = 
REMARK  2 active torsions:
REMARK  status: ('A' for Active; 'I' for Inactive)
REMARK    1  A    between atoms: C_9  and  N_10
REMARK    2  A    between atoms: N_14  and  C_15
REMARK                            x       y       z     vdW  Elec       q    Type
REMARK                         _______ _______ _______ _____ _____    ______ ____
ROOT
ATOM      1  N   UNL     1       1.538   8.054  20.818  0.00  0.00    +0.000 N 
ATOM      2  C   UNL     1       0.643   9.118  20.722  0.00  0.00    +0.000 A 
ATOM      3  N   UNL     1       0.448   9.818  21.831  0.00  0.00    +0.000 NA
ATOM      4  C   UNL     1      -0.399  10.824  21.726  0.00  0.00    +0.000 A 
ATOM      5  N   UNL     1      -0.698  11.544  22.884  0.00  0.00    +0.000 N 
ATOM      6  N   UNL     1      -1.014  11.157  20.596  0.00  0.00    +0.000 NA
ATOM      7  C   UNL     1      -0.785  10.406  19.536  0.00  0.00    +0.000 A 
ATOM      8  N   UNL     1      -1.450  10.710  18.375  0.00  0.00    +0.000 N 
ATOM      9  C   UNL     1      -1.311   9.907  17.164  0.00  0.00    +0.000 C 
ATOM     10  C   UNL     1      -2.708   9.494  16.646  0.00  0.00    +0.000 C 
ATOM     11  N   UNL     1      -3.639  10.627  16.477  0.00  0.00    +0.000 NA
ATOM     12  C   UNL     1      -3.737  11.378  17.745  0.00  0.00    +0.000 C 
ATOM     13  C   UNL     1      -2.369  11.844  18.292  0.00  0.00    +0.000 C 
ATOM     14  N   UNL     1       0.046   9.375  19.565  0.00  0.00    +0.000 NA
ATOM     15  H   UNL     1       2.462   8.461  20.724  0.00  0.00    +0.000 HD
ATOM     16  H   UNL     1      -0.288  11.114  23.700  0.00  0.00    +0.000 HD
ATOM     17  H   UNL     1      -4.562  10.268  16.234  0.00  0.00    +0.000 HD
ENDROOT
BRANCH   1  26
ATOM     18  C   UNL     1       5.020   6.048  17.901  0.00  0.00    +0.000 A 
ATOM     19  C   UNL     1       4.254   7.090  17.352  0.00  0.00    +0.000 A 
ATOM     20  C   UNL     1       3.039   7.468  17.933  0.00  0.00    +0.000 A 
ATOM     21  C   UNL     1       2.601   6.779  19.053  0.00  0.00    +0.000 A 
ATOM     22  C   UNL     1       3.366   5.733  19.589  0.00  0.00    +0.000 A 
ATOM     23  C   UNL     1       4.580   5.366  19.036  0.00  0.00    +0.000 A 
ATOM     24  C   UNL     1       2.693   5.151  20.792  0.00  0.00    +0.000 C 
ATOM     25  C   UNL     1       1.247   5.605  20.550  0.00  0.00    +0.000 C 
ATOM     26  C   UNL     1       1.334   6.983  19.853  0.00  0.00    +0.000 C 
ENDBRANCH   1  26
BRANCH   5  27
ATOM     27  C   UNL     1      -1.051  12.898  22.993  0.00  0.00    +0.000 A 
ATOM     28  C   UNL     1      -2.268  13.257  23.571  0.00  0.00    +0.000 A 
ATOM     29  C   UNL     1      -2.618  14.598  23.610  0.00  0.00    +0.000 A 
ATOM     30  N   UNL     1      -1.842  15.596  23.138  0.00  0.00    +0.000 NA
ATOM     31  C   UNL     1      -0.668  15.231  22.585  0.00  0.00    +0.000 A 
ATOM     32  C   UNL     1      -0.243  13.918  22.483  0.00  0.00    +0.000 A 
ENDBRANCH   5  27
TORSDOF 2
ENDMDL
MODEL 3
REMARK VINA RESULT:      -7.3      8.740     10.264
REMARK  Name = 
REMARK  2 active torsions:
REMARK  status: ('A' for Active; 'I' for Inactive)
REMARK    1  A    between atoms: C_9  and  N_10
REMARK    2  A    between atoms: N_14  and  C_15
REMARK                            x       y       z     vdW  Elec       q    Type
REMARK                         _______ _______ _______ _____ _____    ______ ____
ROOT
ATOM      1  N   UNL     1       8.461  14.203  17.658  0.00  0.00    +0.000 N 
ATOM      2  C   UNL     1       7.297  14.533  18.351  0.00  0.00    +0.000 A 
ATOM      3  N   UNL     1       6.175  14.519  17.645  0.00  0.00    +0.000 NA
ATOM      4  C   UNL     1       5.081  14.831  18.314  0.00  0.00    +0.000 A 
ATOM      5  N   UNL     1       3.883  14.906  17.600  0.00  0.00    +0.000 N 
ATOM      6  N   UNL     1       5.064  15.121  19.611  0.00  0.00    +0.000 NA
ATOM      7  C   UNL     1       6.222  15.131  20.246  0.00  0.00    +0.000 A 
ATOM      8  N   UNL     1       6.225  15.474  21.573  0.00  0.00    +0.000 N 
ATOM      9  C   UNL     1       7.457  15.573  22.350  0.00  0.00    +0.000 C 
ATOM     10  C   UNL     1       7.526  16.950  23.051  0.00  0.00    +0.000 C 
ATOM     11  N   UNL     1       6.324  17.274  23.844  0.00  0.00    +0.000 NA
ATOM     12  C   UNL     1       5.125  17.168  22.987  0.00  0.00    +0.000 C 
ATOM     13  C   UNL     1       4.989  15.798  22.286  0.00  0.00    +0.000 C 
ATOM     14  N   UNL     1       7.363  14.836  19.641  0.00  0.00    +0.000 NA
ATOM     15  H   UNL     1       8.489  13.190  17.632  0.00  0.00    +0.000 HD
ATOM     16  H   UNL     1       4.041  14.810  16.608  0.00  0.00    +0.000 HD
ATOM     17  H   UNL     1       6.399  18.231  24.188  0.00  0.00    +0.000 HD
ENDROOT
BRANCH   1  26
ATOM     18  C   UNL     1      12.207  11.585  19.598  0.00  0.00    +0.000 A 
ATOM     19  C   UNL     1      11.238  12.067  20.494  0.00  0.00    +0.000 A 
ATOM     20  C   UNL     1      10.366  13.095  20.120  0.00  0.00    +0.000 A 
ATOM     21  C   UNL     1      10.493  13.637  18.850  0.00  0.00    +0.000 A 
ATOM     22  C   UNL     1      11.469  13.158  17.965  0.00  0.00    +0.000 A 
ATOM     23  C   UNL     1      12.322  12.126  18.317  0.00  0.00    +0.000 A 
ATOM     24  C   UNL     1      11.406  13.891  16.663  0.00  0.00    +0.000 C 
ATOM     25  C   UNL     1      10.676  15.169  17.097  0.00  0.00    +0.000 C 
ATOM     26  C   UNL     1       9.691  14.750  18.214  0.00  0.00    +0.000 C 
ENDBRANCH   1  26
BRANCH   5  27
ATOM     27  C   UNL     1       2.584  14.647  18.062  0.00  0.00    +0.000 A 
ATOM     28  C   UNL     1       1.771  15.699  18.483  0.00  0.00    +0.000 A 
ATOM     29  C   UNL     1       0.514  15.408  18.991  0.00  0.00    +0.000 A 
ATOM     30  N   UNL     1       0.009  14.160  19.091  0.00  0.00    +0.000 NA
ATOM     31  C   UNL     1       0.808  13.157  18.678  0.00  0.00    +0.000 A 
ATOM     32  C   UNL     1       2.083  13.347  18.176  0.00  0.00    +0.000 A 
ENDBRANCH   5  27
TORSDOF 2
ENDMDL
MODEL 4
REMARK VINA RESULT:      -7.1      4.484     11.771
REMARK  Name = 
REMARK  2 active torsions:
REMARK  status: ('A' for Active; 'I' for Inactive)
REMARK    1  A    between atoms: C_9  and  N_10
REMARK    2  A    between atoms: N_14  and  C_15
REMARK                            x       y       z     vdW  Elec       q    Type
REMARK                         _______ _______ _______ _____ _____    ______ ____
ROOT
ATOM      1  N   UNL     1      -2.376  13.174  21.553  0.00  0.00    +0.000 N 
ATOM      2  C   UNL     1      -1.949  12.251  20.601  0.00  0.00    +0.000 A 
ATOM      3  N   UNL     1      -0.709  11.801  20.739  0.00  0.00    +0.000 NA
ATOM      4  C   UNL     1      -0.319  10.925  19.832  0.00  0.00    +0.000 A 
ATOM      5  N   UNL     1       1.003  10.479  19.887  0.00  0.00    +0.000 N 
ATOM      6  N   UNL     1      -1.096  10.483  18.849  0.00  0.00    +0.000 NA
ATOM      7  C   UNL     1      -2.313  10.987  18.763  0.00  0.00    +0.000 A 
ATOM      8  N   UNL     1      -3.109  10.575  17.726  0.00  0.00    +0.000 N 
ATOM      9  C   UNL     1      -4.448  11.115  17.508  0.00  0.00    +0.000 C 
ATOM     10  C   UNL     1      -4.579  11.624  16.054  0.00  0.00    +0.000 C 
ATOM     11  N   UNL     1      -4.194  10.624  15.037  0.00  0.00    +0.000 NA
ATOM     12  C   UNL     1      -2.826  10.140  15.316  0.00  0.00    +0.000 C 
ATOM     13  C   UNL     1      -2.648   9.589  16.749  0.00  0.00    +0.000 C 
ATOM     14  N   UNL     1      -2.774  11.875  19.631  0.00  0.00    +0.000 NA
ATOM     15  H   UNL     1      -2.663  12.628  22.359  0.00  0.00    +0.000 HD
ATOM     16  H   UNL     1       1.533  10.988  20.580  0.00  0.00    +0.000 HD
ATOM     17  H   UNL     1      -4.207  11.062  14.117  0.00  0.00    +0.000 HD
ENDROOT
BRANCH   1  26
ATOM     18  C   UNL     1      -6.905  13.521  23.556  0.00  0.00    +0.000 A 
ATOM     19  C   UNL     1      -6.765  12.669  22.448  0.00  0.00    +0.000 A 
ATOM     20  C   UNL     1      -5.655  12.773  21.603  0.00  0.00    +0.000 A 
ATOM     21  C   UNL     1      -4.708  13.747  21.875  0.00  0.00    +0.000 A 
ATOM     22  C   UNL     1      -4.861  14.602  22.976  0.00  0.00    +0.000 A 
ATOM     23  C   UNL     1      -5.943  14.492  23.832  0.00  0.00    +0.000 A 
ATOM     24  C   UNL     1      -3.715  15.558  23.064  0.00  0.00    +0.000 C 
ATOM     25  C   UNL     1      -3.201  15.513  21.619  0.00  0.00    +0.000 C 
ATOM     26  C   UNL     1      -3.439  14.069  21.118  0.00  0.00    +0.000 C 
ENDBRANCH   1  26
BRANCH   5  27
ATOM     27  C   UNL     1       1.512   9.233  19.490  0.00  0.00    +0.000 A 
ATOM     28  C   UNL     1       1.579   8.184  20.405  0.00  0.00    +0.000 A 
ATOM     29  C   UNL     1       2.142   6.982  20.003  0.00  0.00    +0.000 A 
ATOM     30  N   UNL     1       2.620   6.750  18.762  0.00  0.00    +0.000 NA
ATOM     31  C   UNL     1       2.545   7.775  17.890  0.00  0.00    +0.000 A 
ATOM     32  C   UNL     1       2.018   9.015  18.206  0.00  0.00    +0.000 A 
ENDBRANCH   5  27
TORSDOF 2
ENDMDL
MODEL 5
REMARK VINA RESULT:      -7.0      1.889      8.090
REMARK  Name = 
REMARK  2 active torsions:
REMARK  status: ('A' for Active; 'I' for Inactive)
REMARK    1  A    between atoms: C_9  and  N_10
REMARK    2  A    between atoms: N_14  and  C_15
REMARK                            x       y       z     vdW  Elec       q    Type
REMARK                         _______ _______ _______ _____ _____    ______ ____
ROOT
ATOM      1  N   UNL     1       1.462   9.229  18.916  0.00  0.00    +0.000 N 
ATOM      2  C   UNL     1       2.121   8.021  18.691  0.00  0.00    +0.000 A 
ATOM      3  N   UNL     1       3.183   8.076  17.898  0.00  0.00    +0.000 NA
ATOM      4  C   UNL     1       3.799   6.926  17.696  0.00  0.00    +0.000 A 
ATOM      5  N   UNL     1       4.876   6.915  16.808  0.00  0.00    +0.000 N 
ATOM      6  N   UNL     1       3.424   5.778  18.251  0.00  0.00    +0.000 NA
ATOM      7  C   UNL     1       2.348   5.797  19.016  0.00  0.00    +0.000 A 
ATOM      8  N   UNL     1       1.922   4.611  19.557  0.00  0.00    +0.000 N 
ATOM      9  C   UNL     1       0.712   4.513  20.367  0.00  0.00    +0.000 C 
ATOM     10  C   UNL     1      -0.207   3.404  19.806  0.00  0.00    +0.000 C 
ATOM     11  N   UNL     1       0.469   2.103  19.631  0.00  0.00    +0.000 NA
ATOM     12  C   UNL     1       1.670   2.282  18.790  0.00  0.00    +0.000 C 
ATOM     13  C   UNL     1       2.641   3.359  19.323  0.00  0.00    +0.000 C 
ATOM     14  N   UNL     1       1.672   6.910  19.260  0.00  0.00    +0.000 NA
ATOM     15  H   UNL     1       1.985   9.697  19.648  0.00  0.00    +0.000 HD
ATOM     16  H   UNL     1       4.976   7.805  16.341  0.00  0.00    +0.000 HD
ATOM     17  H   UNL     1      -0.166   1.456  19.165  0.00  0.00    +0.000 HD
ENDROOT
BRANCH   1  26
ATOM     18  C   UNL     1      -0.654  10.891  23.088  0.00  0.00    +0.000 A 
ATOM     19  C   UNL     1      -0.240   9.549  23.078  0.00  0.00    +0.000 A 
ATOM     20  C   UNL     1       0.024   8.891  21.872  0.00  0.00    +0.000 A 
ATOM     21  C   UNL     1      -0.150   9.590  20.688  0.00  0.00    +0.000 A 
ATOM     22  C   UNL     1      -0.576  10.927  20.706  0.00  0.00    +0.000 A 
ATOM     23  C   UNL     1      -0.816  11.594  21.894  0.00  0.00    +0.000 A 
ATOM     24  C   UNL     1      -0.684  11.464  19.314  0.00  0.00    +0.000 C 
ATOM     25  C   UNL     1      -0.804  10.157  18.519  0.00  0.00    +0.000 C 
ATOM     26  C   UNL     1       0.054   9.111  19.268  0.00  0.00    +0.000 C 
ENDBRANCH   1  26
BRANCH   5  27
ATOM     27  C   UNL     1       6.004   6.081  16.828  0.00  0.00    +0.000 A 
ATOM     28  C   UNL     1       6.344   5.341  15.696  0.00  0.00    +0.000 A 
ATOM     29  C   UNL     1       7.428   4.479  15.763  0.00  0.00    +0.000 A 
ATOM     30  N   UNL     1       8.199   4.318  16.860  0.00  0.00    +0.000 NA
ATOM     31  C   UNL     1       7.857   5.043  17.943  0.00  0.00    +0.000 A 
ATOM     32  C   UNL     1       6.781   5.913  17.977  0.00  0.00    +0.000 A 
ENDBRANCH   5  27
TORSDOF 2
ENDMDL
MODEL 6
REMARK VINA RESULT:      -6.8      4.691      8.720
REMARK  Name = 
REMARK  2 active torsions:
REMARK  status: ('A' for Active; 'I' for Inactive)
REMARK    1  A    between atoms: C_9  and  N_10
REMARK    2  A    between atoms: N_14  and  C_15
REMARK                            x       y       z     vdW  Elec       q    Type
REMARK                         _______ _______ _______ _____ _____    ______ ____
ROOT
ATOM      1  N   UNL     1      -0.387   9.314  18.840  0.00  0.00    +0.000 N 
ATOM      2  C   UNL     1      -1.262  10.373  19.079  0.00  0.00    +0.000 A 
ATOM      3  N   UNL     1      -2.285  10.484  18.243  0.00  0.00    +0.000 NA
ATOM      4  C   UNL     1      -3.107  11.488  18.483  0.00  0.00    +0.000 A 
ATOM      5  N   UNL     1      -4.156  11.696  17.586  0.00  0.00    +0.000 N 
ATOM      6  N   UNL     1      -2.963  12.335  19.497  0.00  0.00    +0.000 NA
ATOM      7  C   UNL     1      -1.912  12.173  20.279  0.00  0.00    +0.000 A 
ATOM      8  N   UNL     1      -1.726  13.068  21.301  0.00  0.00    +0.000 N 
ATOM      9  C   UNL     1      -0.566  13.013  22.185  0.00  0.00    +0.000 C 
ATOM     10  C   UNL     1       0.131  14.393  22.223  0.00  0.00    +0.000 C 
ATOM     11  N   UNL     1      -0.779  15.510  22.546  0.00  0.00    +0.000 NA
ATOM     12  C   UNL     1      -1.915  15.508  21.601  0.00  0.00    +0.000 C 
ATOM     13  C   UNL     1      -2.668  14.160  21.547  0.00  0.00    +0.000 C 
ATOM     14  N   UNL     1      -1.039  11.194  20.098  0.00  0.00    +0.000 NA
ATOM     15  H   UNL     1      -0.819   8.498  19.259  0.00  0.00    +0.000 HD
ATOM     16  H   UNL     1      -4.080  11.087  16.785  0.00  0.00    +0.000 HD
ATOM     17  H   UNL     1      -0.273  16.390  22.451  0.00  0.00    +0.000 HD
ENDROOT
BRANCH   1  26
ATOM     18  C   UNL     1       2.978   5.742  19.593  0.00  0.00    +0.000 A 
ATOM     19  C   UNL     1       2.202   6.127  20.699  0.00  0.00    +0.000 A 
ATOM     20  C   UNL     1       1.503   7.339  20.696  0.00  0.00    +0.000 A 
ATOM     21  C   UNL     1       1.608   8.157  19.581  0.00  0.00    +0.000 A 
ATOM     22  C   UNL     1       2.393   7.771  18.486  0.00  0.00    +0.000 A 
ATOM     23  C   UNL     1       3.070   6.564  18.470  0.00  0.00    +0.000 A 
ATOM     24  C   UNL     1       2.344   8.809  17.411  0.00  0.00    +0.000 C 
ATOM     25  C   UNL     1       1.906  10.034  18.224  0.00  0.00    +0.000 C 
ATOM     26  C   UNL     1       0.969   9.505  19.336  0.00  0.00    +0.000 C 
ENDBRANCH   1  26
BRANCH   5  27
ATOM     27  C   UNL     1      -5.423  12.239  17.850  0.00  0.00    +0.000 A 
ATOM     28  C   UNL     1      -5.997  13.137  16.951  0.00  0.00    +0.000 A 
ATOM     29  C   UNL     1      -7.222  13.705  17.265  0.00  0.00    +0.000 A 
ATOM     30  N   UNL     1      -7.917  13.430  18.390  0.00  0.00    +0.000 NA
ATOM     31  C   UNL     1      -7.348  12.558  19.246  0.00  0.00    +0.000 A 
ATOM     32  C   UNL     1      -6.121  11.957  19.028  0.00  0.00    +0.000 A 
ENDBRANCH   5  27
TORSDOF 2
ENDMDL
MODEL 7
REMARK VINA RESULT:      -6.8      5.694     10.005
REMARK  Name = 
REMARK  2 active torsions:
REMARK  status: ('A' for Active; 'I' for Inactive)
REMARK    1  A    between atoms: C_9  and  N_10
REMARK    2  A    between atoms: N_14  and  C_15
REMARK                            x       y       z     vdW  Elec       q    Type
REMARK                         _______ _______ _______ _____ _____    ______ ____
ROOT
ATOM      1  N   UNL     1       0.168  10.997  21.481  0.00  0.00    +0.000 N 
ATOM      2  C   UNL     1      -0.742  12.012  21.774  0.00  0.00    +0.000 A 
ATOM      3  N   UNL     1      -0.432  12.794  22.799  0.00  0.00    +0.000 NA
ATOM      4  C   UNL     1      -1.300  13.752  23.063  0.00  0.00    +0.000 A 
ATOM      5  N   UNL     1      -1.060  14.555  24.181  0.00  0.00    +0.000 N 
ATOM      6  N   UNL     1      -2.405  13.965  22.357  0.00  0.00    +0.000 NA
ATOM      7  C   UNL     1      -2.657  13.137  21.360  0.00  0.00    +0.000 A 
ATOM      8  N   UNL     1      -3.818  13.315  20.652  0.00  0.00    +0.000 N 
ATOM      9  C   UNL     1      -4.217  12.420  19.571  0.00  0.00    +0.000 C 
ATOM     10  C   UNL     1      -5.655  11.908  19.817  0.00  0.00    +0.000 C 
ATOM     11  N   UNL     1      -6.636  12.985  20.059  0.00  0.00    +0.000 NA
ATOM     12  C   UNL     1      -6.170  13.835  21.173  0.00  0.00    +0.000 C 
ATOM     13  C   UNL     1      -4.748  14.400  20.963  0.00  0.00    +0.000 C 
ATOM     14  N   UNL     1      -1.838  12.147  21.038  0.00  0.00    +0.000 NA
ATOM     15  H   UNL     1       0.900  11.432  20.930  0.00  0.00    +0.000 HD
ATOM     16  H   UNL     1      -0.277  14.211  24.718  0.00  0.00    +0.000 HD
ATOM     17  H   UNL     1      -7.532  12.570  20.313  0.00  0.00    +0.000 HD
ENDROOT
BRANCH   1  26
ATOM     18  C   UNL     1       2.514   8.157  18.153  0.00  0.00    +0.000 A 
ATOM     19  C   UNL     1       1.729   9.207  17.650  0.00  0.00    +0.000 A 
ATOM     20  C   UNL     1       0.760   9.823  18.450  0.00  0.00    +0.000 A 
ATOM     21  C   UNL     1       0.583   9.360  19.744  0.00  0.00    +0.000 A 
ATOM     22  C   UNL     1       1.363   8.303  20.235  0.00  0.00    +0.000 A 
ATOM     23  C   UNL     1       2.339   7.702  19.460  0.00  0.00    +0.000 A 
ATOM     24  C   UNL     1       0.993   7.989  21.650  0.00  0.00    +0.000 C 
ATOM     25  C   UNL     1      -0.414   8.596  21.713  0.00  0.00    +0.000 C 
ATOM     26  C   UNL     1      -0.392   9.841  20.795  0.00  0.00    +0.000 C 
ENDBRANCH   1  26
BRANCH   5  27
ATOM     27  C   UNL     1      -1.419  15.897  24.374  0.00  0.00    +0.000 A 
ATOM     28  C   UNL     1      -0.685  16.911  23.760  0.00  0.00    +0.000 A 
ATOM     29  C   UNL     1      -1.024  18.231  24.017  0.00  0.00    +0.000 A 
ATOM     30  N   UNL     1      -2.045  18.606  24.817  0.00  0.00    +0.000 NA
ATOM     31  C   UNL     1      -2.746  17.613  25.399  0.00  0.00    +0.000 A 
ATOM     32  C   UNL     1      -2.469  16.270  25.219  0.00  0.00    +0.000 A 
ENDBRANCH   5  27
TORSDOF 2
ENDMDL
MODEL 8
REMARK VINA RESULT:      -6.7      1.642      8.104
REMARK  Name = 
REMARK  2 active torsions:
REMARK  status: ('A' for Active; 'I' for Inactive)
REMARK    1  A    between atoms: C_9  and  N_10
REMARK    2  A    between atoms: N_14  and  C_15
REMARK                            x       y       z     vdW  Elec       q    Type
REMARK                         _______ _______ _______ _____ _____    ______ ____
ROOT
ATOM      1  N   UNL     1       1.588   9.720  18.551  0.00  0.00    +0.000 N 
ATOM      2  C   UNL     1       2.219   8.491  18.364  0.00  0.00    +0.000 A 
ATOM      3  N   UNL     1       3.056   8.415  17.339  0.00  0.00    +0.000 NA
ATOM      4  C   UNL     1       3.649   7.247  17.176  0.00  0.00    +0.000 A 
ATOM      5  N   UNL     1       4.481   7.091  16.066  0.00  0.00    +0.000 N 
ATOM      6  N   UNL     1       3.462   6.204  17.978  0.00  0.00    +0.000 NA
ATOM      7  C   UNL     1       2.601   6.348  18.970  0.00  0.00    +0.000 A 
ATOM      8  N   UNL     1       2.363   5.265  19.777  0.00  0.00    +0.000 N 
ATOM      9  C   UNL     1       1.387   5.302  20.862  0.00  0.00    +0.000 C 
ATOM     10  C   UNL     1       0.402   4.118  20.723  0.00  0.00    +0.000 C 
ATOM     11  N   UNL     1       1.066   2.805  20.595  0.00  0.00    +0.000 NA
ATOM     12  C   UNL     1       2.022   2.843  19.470  0.00  0.00    +0.000 C 
ATOM     13  C   UNL     1       3.051   3.991  19.575  0.00  0.00    +0.000 C 
ATOM     14  N   UNL     1       1.962   7.486  19.193  0.00  0.00    +0.000 NA
ATOM     15  H   UNL     1       2.254  10.299  19.050  0.00  0.00    +0.000 HD
ATOM     16  H   UNL     1       4.432   7.893  15.455  0.00  0.00    +0.000 HD
ATOM     17  H   UNL     1       0.361   2.092  20.405  0.00  0.00    +0.000 HD
ENDROOT
BRANCH   1  26
ATOM     18  C   UNL     1      -0.672  13.514  20.818  0.00  0.00    +0.000 A 
ATOM     19  C   UNL     1       0.137  12.689  21.616  0.00  0.00    +0.000 A 
ATOM     20  C   UNL     1       0.515  11.416  21.176  0.00  0.00    +0.000 A 
ATOM     21  C   UNL     1       0.058  10.984  19.940  0.00  0.00    +0.000 A 
ATOM     22  C   UNL     1      -0.759  11.809  19.154  0.00  0.00    +0.000 A 
ATOM     23  C   UNL     1      -1.120  13.078  19.571  0.00  0.00    +0.000 A 
ATOM     24  C   UNL     1      -1.116  11.128  17.871  0.00  0.00    +0.000 C 
ATOM     25  C   UNL     1      -0.874   9.662  18.255  0.00  0.00    +0.000 C 
ATOM     26  C   UNL     1       0.312   9.663  19.249  0.00  0.00    +0.000 C 
ENDBRANCH   1  26
BRANCH   5  27
ATOM     27  C   UNL     1       5.611   6.269  15.942  0.00  0.00    +0.000 A 
ATOM     28  C   UNL     1       5.749   5.436  14.832  0.00  0.00    +0.000 A 
ATOM     29  C   UNL     1       6.846   4.590  14.765  0.00  0.00    +0.000 A 
ATOM     30  N   UNL     1       7.813   4.530  15.705  0.00  0.00    +0.000 NA
ATOM     31  C   UNL     1       7.664   5.344  16.769  0.00  0.00    +0.000 A 
ATOM     32  C   UNL     1       6.595   6.207  16.933  0.00  0.00    +0.000 A 
ENDBRANCH   5  27
TORSDOF 2
ENDMDL
MODEL 9
REMARK VINA RESULT:      -6.6      4.621     11.812
REMARK  Name = 
REMARK  2 active torsions:
REMARK  status: ('A' for Active; 'I' for Inactive)
REMARK    1  A    between atoms: C_9  and  N_10
REMARK    2  A    between atoms: N_14  and  C_15
REMARK                            x       y       z     vdW  Elec       q    Type
REMARK                         _______ _______ _______ _____ _____    ______ ____
ROOT
ATOM      1  N   UNL     1      -1.564  13.800  21.418  0.00  0.00    +0.000 N 
ATOM      2  C   UNL     1      -1.361  12.717  20.564  0.00  0.00    +0.000 A 
ATOM      3  N   UNL     1      -0.160  12.156  20.608  0.00  0.00    +0.000 NA
ATOM      4  C   UNL     1       0.017  11.131  19.796  0.00  0.00    +0.000 A 
ATOM      5  N   UNL     1       1.287  10.554  19.748  0.00  0.00    +0.000 N 
ATOM      6  N   UNL     1      -0.928  10.650  18.995  0.00  0.00    +0.000 NA
ATOM      7  C   UNL     1      -2.094  11.269  18.992  0.00  0.00    +0.000 A 
ATOM      8  N   UNL     1      -3.063  10.813  18.135  0.00  0.00    +0.000 N 
ATOM      9  C   UNL     1      -4.364  11.463  18.012  0.00  0.00    +0.000 C 
ATOM     10  C   UNL     1      -4.652  11.786  16.528  0.00  0.00    +0.000 C 
ATOM     11  N   UNL     1      -4.506  10.624  15.628  0.00  0.00    +0.000 NA
ATOM     12  C   UNL     1      -3.163  10.034  15.798  0.00  0.00    +0.000 C 
ATOM     13  C   UNL     1      -2.835   9.662  17.262  0.00  0.00    +0.000 C 
ATOM     14  N   UNL     1      -2.345  12.309  19.772  0.00  0.00    +0.000 NA
ATOM     15  H   UNL     1      -1.782  13.400  22.324  0.00  0.00    +0.000 HD
ATOM     16  H   UNL     1       1.954  11.088  20.286  0.00  0.00    +0.000 HD
ATOM     17  H   UNL     1      -4.609  10.935  14.662  0.00  0.00    +0.000 HD
ENDROOT
BRANCH   1  26
ATOM     18  C   UNL     1      -4.741  16.187  24.393  0.00  0.00    +0.000 A 
ATOM     19  C   UNL     1      -5.188  14.985  23.821  0.00  0.00    +0.000 A 
ATOM     20  C   UNL     1      -4.537  14.434  22.712  0.00  0.00    +0.000 A 
ATOM     21  C   UNL     1      -3.450  15.113  22.182  0.00  0.00    +0.000 A 
ATOM     22  C   UNL     1      -3.017  16.319  22.752  0.00  0.00    +0.000 A 
ATOM     23  C   UNL     1      -3.640  16.860  23.862  0.00  0.00    +0.000 A 
ATOM     24  C   UNL     1      -1.833  16.855  22.012  0.00  0.00    +0.000 C 
ATOM     25  C   UNL     1      -1.988  16.127  20.670  0.00  0.00    +0.000 C 
ATOM     26  C   UNL     1      -2.592  14.740  20.995  0.00  0.00    +0.000 C 
ENDBRANCH   1  26
BRANCH   5  27
ATOM     27  C   UNL     1       1.620   9.218  19.476  0.00  0.00    +0.000 A 
ATOM     28  C   UNL     1       1.560   8.264  20.490  0.00  0.00    +0.000 A 
ATOM     29  C   UNL     1       1.953   6.964  20.208  0.00  0.00    +0.000 A 
ATOM     30  N   UNL     1       2.377   6.549  18.996  0.00  0.00    +0.000 NA
ATOM     31  C   UNL     1       2.425   7.484  18.026  0.00  0.00    +0.000 A 
ATOM     32  C   UNL     1       2.073   8.808  18.218  0.00  0.00    +0.000 A 
ENDBRANCH   5  27
TORSDOF 2
ENDMDL
