MODEL 1
REMARK VINA RESULT:      -7.5      0.000      0.000
REMARK  Name = 
REMARK  4 active torsions:
REMARK  status: ('A' for Active; 'I' for Inactive)
REMARK    1  A    between atoms: C_1  and  C_2
REMARK    2  A    between atoms: C_2  and  S_3
REMARK    3  A    between atoms: C_2  and  C_14
REMARK    4  A    between atoms: S_3  and  C_4
REMARK                            x       y       z     vdW  Elec       q    Type
REMARK                         _______ _______ _______ _____ _____    ______ ____
ROOT
ATOM      1  C   UNL     1       4.601   5.054  17.238  0.00  0.00    +0.000 A 
ATOM      2  C   UNL     1       4.445   3.724  16.846  0.00  0.00    +0.000 A 
ATOM      3  C   UNL     1       3.495   2.911  17.466  0.00  0.00    +0.000 A 
ATOM      4  C   UNL     1       2.692   3.407  18.502  0.00  0.00    +0.000 A 
ATOM      5  C   UNL     1       1.737   2.597  19.133  0.00  0.00    +0.000 A 
ATOM      6  C   UNL     1       0.945   3.100  20.166  0.00  0.00    +0.000 A 
ATOM      7  C   UNL     1       1.096   4.421  20.575  0.00  0.00    +0.000 A 
ATOM      8  C   UNL     1       2.044   5.240  19.957  0.00  0.00    +0.000 A 
ATOM      9  C   UNL     1       2.853   4.750  18.917  0.00  0.00    +0.000 A 
ATOM     10  C   UNL     1       3.816   5.556  18.282  0.00  0.00    +0.000 A 
ENDROOT
BRANCH   1  11
ATOM     11  S   UNL     1       5.859   6.066  16.474  0.00  0.00    +0.000 S 
BRANCH  11  13
ATOM     12  C   UNL     1       7.748   7.778  17.617  0.00  0.00    +0.000 C 
ATOM     13  C   UNL     1       6.875   6.570  17.927  0.00  0.00    +0.000 C 
BRANCH  13  14
ATOM     14  C   UNL     1       7.675   5.395  18.487  0.00  0.00    +0.000 C 
ATOM     15  N   UNL     1       8.067   5.514  19.793  0.00  0.00    +0.000 N 
ATOM     16  O   UNL     1       8.020   4.415  17.834  0.00  0.00    +0.000 OA
ATOM     17  H   UNL     1       7.695   6.232  20.401  0.00  0.00    +0.000 HD
ATOM     18  H   UNL     1       8.567   4.736  20.203  0.00  0.00    +0.000 HD
ENDBRANCH  13  14
ENDBRANCH  11  13
ENDBRANCH   1  11
TORSDOF 3
ENDMDL
MODEL 2
REMARK VINA RESULT:      -7.4      2.313      3.036
REMARK  Name = 
REMARK  4 active torsions:
REMARK  status: ('A' for Active; 'I' for Inactive)
REMARK    1  A    between atoms: C_1  and  C_2
REMARK    2  A    between atoms: C_2  and  S_3
REMARK    3  A    between atoms: C_2  and  C_14
REMARK    4  A    between atoms: S_3  and  C_4
REMARK                            x       y       z     vdW  Elec       q    Type
REMARK                         _______ _______ _______ _____ _____    ______ ____
ROOT
ATOM      1  C   UNL     1       4.060   5.631  17.380  0.00  0.00    +0.000 A 
ATOM      2  C   UNL     1       3.587   6.500  18.364  0.00  0.00    +0.000 A 
ATOM      3  C   UNL     1       2.632   6.070  19.286  0.00  0.00    +0.000 A 
ATOM      4  C   UNL     1       2.120   4.766  19.234  0.00  0.00    +0.000 A 
ATOM      5  C   UNL     1       1.157   4.326  20.154  0.00  0.00    +0.000 A 
ATOM      6  C   UNL     1       0.652   3.026  20.092  0.00  0.00    +0.000 A 
ATOM      7  C   UNL     1       1.107   2.152  19.110  0.00  0.00    +0.000 A 
ATOM      8  C   UNL     1       2.065   2.576  18.186  0.00  0.00    +0.000 A 
ATOM      9  C   UNL     1       2.583   3.882  18.232  0.00  0.00    +0.000 A 
ATOM     10  C   UNL     1       3.546   4.332  17.309  0.00  0.00    +0.000 A 
ENDROOT
BRANCH   1  11
ATOM     11  S   UNL     1       5.242   6.213  16.173  0.00  0.00    +0.000 S 
BRANCH  11  13
ATOM     12  C   UNL     1       7.371   4.612  17.015  0.00  0.00    +0.000 C 
ATOM     13  C   UNL     1       6.304   4.725  15.936  0.00  0.00    +0.000 C 
BRANCH  13  14
ATOM     14  C   UNL     1       6.888   4.673  14.525  0.00  0.00    +0.000 C 
ATOM     15  N   UNL     1       6.412   3.670  13.723  0.00  0.00    +0.000 N 
ATOM     16  O   UNL     1       7.770   5.418  14.109  0.00  0.00    +0.000 OA
ATOM     17  H   UNL     1       5.599   3.124  13.975  0.00  0.00    +0.000 HD
ATOM     18  H   UNL     1       6.753   3.631  12.771  0.00  0.00    +0.000 HD
ENDBRANCH  13  14
ENDBRANCH  11  13
ENDBRANCH   1  11
TORSDOF 3
ENDMDL
MODEL 3
REMARK VINA RESULT:      -7.3      1.520      2.331
REMARK  Name = 
REMARK  4 active torsions:
REMARK  status: ('A' for Active; 'I' for Inactive)
REMARK    1  A    between atoms: C_1  and  C_2
REMARK    2  A    between atoms: C_2  and  S_3
REMARK    3  A    between atoms: C_2  and  C_14
REMARK    4  A    between atoms: S_3  and  C_4
REMARK                            x       y       z     vdW  Elec       q    Type
REMARK                         _______ _______ _______ _____ _____    ______ ____
ROOT
ATOM      1  C   UNL     1       3.916   5.991  17.656  0.00  0.00    +0.000 A 
ATOM      2  C   UNL     1       3.375   6.684  18.739  0.00  0.00    +0.000 A 
ATOM      3  C   UNL     1       2.433   6.073  19.568  0.00  0.00    +0.000 A 
ATOM      4  C   UNL     1       2.003   4.762  19.323  0.00  0.00    +0.000 A 
ATOM      5  C   UNL     1       1.054   4.141  20.149  0.00  0.00    +0.000 A 
ATOM      6  C   UNL     1       0.630   2.836  19.893  0.00  0.00    +0.000 A 
ATOM      7  C   UNL     1       1.154   2.137  18.810  0.00  0.00    +0.000 A 
ATOM      8  C   UNL     1       2.098   2.742  17.978  0.00  0.00    +0.000 A 
ATOM      9  C   UNL     1       2.535   4.057  18.218  0.00  0.00    +0.000 A 
ATOM     10  C   UNL     1       3.483   4.687  17.391  0.00  0.00    +0.000 A 
ENDROOT
BRANCH   1  11
ATOM     11  S   UNL     1       5.078   6.805  16.570  0.00  0.00    +0.000 S 
BRANCH  11  13
ATOM     12  C   UNL     1       7.586   7.566  17.541  0.00  0.00    +0.000 C 
ATOM     13  C   UNL     1       6.693   6.350  17.335  0.00  0.00    +0.000 C 
BRANCH  13  14
ATOM     14  C   UNL     1       7.389   5.236  16.555  0.00  0.00    +0.000 C 
ATOM     15  N   UNL     1       7.219   5.268  15.197  0.00  0.00    +0.000 N 
ATOM     16  O   UNL     1       8.019   4.316  17.069  0.00  0.00    +0.000 OA
ATOM     17  H   UNL     1       6.827   6.073  14.725  0.00  0.00    +0.000 HD
ATOM     18  H   UNL     1       7.698   4.565  14.650  0.00  0.00    +0.000 HD
ENDBRANCH  13  14
ENDBRANCH  11  13
ENDBRANCH   1  11
TORSDOF 3
ENDMDL
MODEL 4
REMARK VINA RESULT:      -7.2      0.902      1.891
REMARK  Name = 
REMARK  4 active torsions:
REMARK  status: ('A' for Active; 'I' for Inactive)
REMARK    1  A    between atoms: C_1  and  C_2
REMARK    2  A    between atoms: C_2  and  S_3
REMARK    3  A    between atoms: C_2  and  C_14
REMARK    4  A    between atoms: S_3  and  C_4
REMARK                            x       y       z     vdW  Elec       q    Type
REMARK                         _______ _______ _______ _____ _____    ______ ____
ROOT
ATOM      1  C   UNL     1       4.565   5.434  17.236  0.00  0.00    +0.000 A 
ATOM      2  C   UNL     1       3.536   6.265  17.677  0.00  0.00    +0.000 A 
ATOM      3  C   UNL     1       2.375   5.720  18.228  0.00  0.00    +0.000 A 
ATOM      4  C   UNL     1       2.214   4.332  18.336  0.00  0.00    +0.000 A 
ATOM      5  C   UNL     1       1.050   3.775  18.886  0.00  0.00    +0.000 A 
ATOM      6  C   UNL     1       0.899   2.391  18.986  0.00  0.00    +0.000 A 
ATOM      7  C   UNL     1       1.914   1.550  18.541  0.00  0.00    +0.000 A 
ATOM      8  C   UNL     1       3.078   2.089  17.990  0.00  0.00    +0.000 A 
ATOM      9  C   UNL     1       3.247   3.480  17.878  0.00  0.00    +0.000 A 
ATOM     10  C   UNL     1       4.410   4.046  17.324  0.00  0.00    +0.000 A 
ENDROOT
BRANCH   1  11
ATOM     11  S   UNL     1       6.020   6.144  16.482  0.00  0.00    +0.000 S 
BRANCH  11  13
ATOM     12  C   UNL     1       7.924   7.818  17.658  0.00  0.00    +0.000 C 
ATOM     13  C   UNL     1       7.009   6.638  17.957  0.00  0.00    +0.000 C 
BRANCH  13  14
ATOM     14  C   UNL     1       7.760   5.449  18.553  0.00  0.00    +0.000 C 
ATOM     15  N   UNL     1       8.161   5.592  19.854  0.00  0.00    +0.000 N 
ATOM     16  O   UNL     1       8.062   4.435  17.930  0.00  0.00    +0.000 OA
ATOM     17  H   UNL     1       7.821   6.344  20.439  0.00  0.00    +0.000 HD
ATOM     18  H   UNL     1       8.629   4.807  20.288  0.00  0.00    +0.000 HD
ENDBRANCH  13  14
ENDBRANCH  11  13
ENDBRANCH   1  11
TORSDOF 3
ENDMDL
MODEL 5
REMARK VINA RESULT:      -7.1      1.335      2.317
REMARK  Name = 
REMARK  4 active torsions:
REMARK  status: ('A' for Active; 'I' for Inactive)
REMARK    1  A    between atoms: C_1  and  C_2
REMARK    2  A    between atoms: C_2  and  S_3
REMARK    3  A    between atoms: C_2  and  C_14
REMARK    4  A    between atoms: S_3  and  C_4
REMARK                            x       y       z     vdW  Elec       q    Type
REMARK                         _______ _______ _______ _____ _____    ______ ____
ROOT
ATOM      1  C   UNL     1       4.402   5.450  17.126  0.00  0.00    +0.000 A 
ATOM      2  C   UNL     1       4.026   6.337  18.134  0.00  0.00    +0.000 A 
ATOM      3  C   UNL     1       3.060   5.972  19.073  0.00  0.00    +0.000 A 
ATOM      4  C   UNL     1       2.439   4.716  19.014  0.00  0.00    +0.000 A 
ATOM      5  C   UNL     1       1.465   4.342  19.951  0.00  0.00    +0.000 A 
ATOM      6  C   UNL     1       0.851   3.090  19.881  0.00  0.00    +0.000 A 
ATOM      7  C   UNL     1       1.209   2.198  18.875  0.00  0.00    +0.000 A 
ATOM      8  C   UNL     1       2.177   2.557  17.934  0.00  0.00    +0.000 A 
ATOM      9  C   UNL     1       2.803   3.815  17.987  0.00  0.00    +0.000 A 
ATOM     10  C   UNL     1       3.779   4.199  17.047  0.00  0.00    +0.000 A 
ENDROOT
BRANCH   1  11
ATOM     11  S   UNL     1       5.599   5.952  15.900  0.00  0.00    +0.000 S 
BRANCH  11  13
ATOM     12  C   UNL     1       7.190   4.538  17.710  0.00  0.00    +0.000 C 
ATOM     13  C   UNL     1       7.185   5.775  16.823  0.00  0.00    +0.000 C 
BRANCH  13  14
ATOM     14  C   UNL     1       7.532   7.049  17.591  0.00  0.00    +0.000 C 
ATOM     15  N   UNL     1       8.147   6.864  18.800  0.00  0.00    +0.000 N 
ATOM     16  O   UNL     1       7.245   8.184  17.220  0.00  0.00    +0.000 OA
ATOM     17  H   UNL     1       8.519   5.966  19.079  0.00  0.00    +0.000 HD
ATOM     18  H   UNL     1       8.422   7.690  19.315  0.00  0.00    +0.000 HD
ENDBRANCH  13  14
ENDBRANCH  11  13
ENDBRANCH   1  11
TORSDOF 3
ENDMDL
MODEL 6
REMARK VINA RESULT:      -7.0      1.673      2.293
REMARK  Name = 
REMARK  4 active torsions:
REMARK  status: ('A' for Active; 'I' for Inactive)
REMARK    1  A    between atoms: C_1  and  C_2
REMARK    2  A    between atoms: C_2  and  S_3
REMARK    3  A    between atoms: C_2  and  C_14
REMARK    4  A    between atoms: S_3  and  C_4
REMARK                            x       y       z     vdW  Elec       q    Type
REMARK                         _______ _______ _______ _____ _____    ______ ____
ROOT
ATOM      1  C   UNL     1       4.001   6.014  17.864  0.00  0.00    +0.000 A 
ATOM      2  C   UNL     1       2.842   6.724  18.176  0.00  0.00    +0.000 A 
ATOM      3  C   UNL     1       1.926   6.213  19.097  0.00  0.00    +0.000 A 
ATOM      4  C   UNL     1       2.145   4.974  19.714  0.00  0.00    +0.000 A 
ATOM      5  C   UNL     1       1.229   4.450  20.639  0.00  0.00    +0.000 A 
ATOM      6  C   UNL     1       1.455   3.213  21.245  0.00  0.00    +0.000 A 
ATOM      7  C   UNL     1       2.601   2.489  20.936  0.00  0.00    +0.000 A 
ATOM      8  C   UNL     1       3.522   2.997  20.016  0.00  0.00    +0.000 A 
ATOM      9  C   UNL     1       3.310   4.239  19.393  0.00  0.00    +0.000 A 
ATOM     10  C   UNL     1       4.222   4.768  18.461  0.00  0.00    +0.000 A 
ENDROOT
BRANCH   1  11
ATOM     11  S   UNL     1       5.135   6.654  16.641  0.00  0.00    +0.000 S 
BRANCH  11  13
ATOM     12  C   UNL     1       7.631   7.495  17.574  0.00  0.00    +0.000 C 
ATOM     13  C   UNL     1       6.769   6.253  17.394  0.00  0.00    +0.000 C 
BRANCH  13  14
ATOM     14  C   UNL     1       7.487   5.148  16.621  0.00  0.00    +0.000 C 
ATOM     15  N   UNL     1       7.389   5.219  15.257  0.00  0.00    +0.000 N 
ATOM     16  O   UNL     1       8.073   4.204  17.142  0.00  0.00    +0.000 OA
ATOM     17  H   UNL     1       7.034   6.042  14.788  0.00  0.00    +0.000 HD
ATOM     18  H   UNL     1       7.884   4.521  14.717  0.00  0.00    +0.000 HD
ENDBRANCH  13  14
ENDBRANCH  11  13
ENDBRANCH   1  11
TORSDOF 3
ENDMDL
MODEL 7
REMARK VINA RESULT:      -6.9      2.314      2.812
REMARK  Name = 
REMARK  4 active torsions:
REMARK  status: ('A' for Active; 'I' for Inactive)
REMARK    1  A    between atoms: C_1  and  C_2
REMARK    2  A    between atoms: C_2  and  S_3
REMARK    3  A    between atoms: C_2  and  C_14
REMARK    4  A    between atoms: S_3  and  C_4
REMARK                            x       y       z     vdW  Elec       q    Type
REMARK                         _______ _______ _______ _____ _____    ______ ____
ROOT
ATOM      1  C   UNL     1       4.343   5.737  18.082  0.00  0.00    +0.000 A 
ATOM      2  C   UNL     1       3.125   6.418  18.092  0.00  0.00    +0.000 A 
ATOM      3  C   UNL     1       2.064   5.955  18.872  0.00  0.00    +0.000 A 
ATOM      4  C   UNL     1       2.195   4.794  19.647  0.00  0.00    +0.000 A 
ATOM      5  C   UNL     1       1.133   4.319  20.431  0.00  0.00    +0.000 A 
ATOM      6  C   UNL     1       1.273   3.160  21.195  0.00  0.00    +0.000 A 
ATOM      7  C   UNL     1       2.479   2.466  21.187  0.00  0.00    +0.000 A 
ATOM      8  C   UNL     1       3.544   2.925  20.410  0.00  0.00    +0.000 A 
ATOM      9  C   UNL     1       3.421   4.089  19.631  0.00  0.00    +0.000 A 
ATOM     10  C   UNL     1       4.481   4.568  18.838  0.00  0.00    +0.000 A 
ENDROOT
BRANCH   1  11
ATOM     11  S   UNL     1       5.673   6.310  17.036  0.00  0.00    +0.000 S 
BRANCH  11  13
ATOM     12  C   UNL     1       7.747   4.512  17.556  0.00  0.00    +0.000 C 
ATOM     13  C   UNL     1       6.550   4.737  16.643  0.00  0.00    +0.000 C 
BRANCH  13  14
ATOM     14  C   UNL     1       6.917   4.654  15.163  0.00  0.00    +0.000 C 
ATOM     15  N   UNL     1       6.351   3.619  14.468  0.00  0.00    +0.000 N 
ATOM     16  O   UNL     1       7.708   5.405  14.600  0.00  0.00    +0.000 OA
ATOM     17  H   UNL     1       5.597   3.065  14.854  0.00  0.00    +0.000 HD
ATOM     18  H   UNL     1       6.546   3.559  13.477  0.00  0.00    +0.000 HD
ENDBRANCH  13  14
ENDBRANCH  11  13
ENDBRANCH   1  11
TORSDOF 3
ENDMDL
MODEL 8
REMARK VINA RESULT:      -6.9      0.844      1.832
REMARK  Name = 
REMARK  4 active torsions:
REMARK  status: ('A' for Active; 'I' for Inactive)
REMARK    1  A    between atoms: C_1  and  C_2
REMARK    2  A    between atoms: C_2  and  S_3
REMARK    3  A    between atoms: C_2  and  C_14
REMARK    4  A    between atoms: S_3  and  C_4
REMARK                            x       y       z     vdW  Elec       q    Type
REMARK                         _______ _______ _______ _____ _____    ______ ____
ROOT
ATOM      1  C   UNL     1       4.321   5.697  17.936  0.00  0.00    +0.000 A 
ATOM      2  C   UNL     1       3.361   6.619  18.352  0.00  0.00    +0.000 A 
ATOM      3  C   UNL     1       2.291   6.214  19.150  0.00  0.00    +0.000 A 
ATOM      4  C   UNL     1       2.150   4.874  19.536  0.00  0.00    +0.000 A 
ATOM      5  C   UNL     1       1.075   4.456  20.335  0.00  0.00    +0.000 A 
ATOM      6  C   UNL     1       0.943   3.118  20.711  0.00  0.00    +0.000 A 
ATOM      7  C   UNL     1       1.887   2.185  20.295  0.00  0.00    +0.000 A 
ATOM      8  C   UNL     1       2.962   2.585  19.498  0.00  0.00    +0.000 A 
ATOM      9  C   UNL     1       3.110   3.928  19.107  0.00  0.00    +0.000 A 
ATOM     10  C   UNL     1       4.183   4.353  18.302  0.00  0.00    +0.000 A 
ENDROOT
BRANCH   1  11
ATOM     11  S   UNL     1       5.655   6.220  16.870  0.00  0.00    +0.000 S 
BRANCH  11  13
ATOM     12  C   UNL     1       7.896   7.750  17.536  0.00  0.00    +0.000 C 
ATOM     13  C   UNL     1       6.953   6.692  18.091  0.00  0.00    +0.000 C 
BRANCH  13  14
ATOM     14  C   UNL     1       7.694   5.466  18.623  0.00  0.00    +0.000 C 
ATOM     15  N   UNL     1       8.194   5.581  19.893  0.00  0.00    +0.000 N 
ATOM     16  O   UNL     1       7.906   4.446  17.975  0.00  0.00    +0.000 OA
ATOM     17  H   UNL     1       7.930   6.341  20.506  0.00  0.00    +0.000 HD
ATOM     18  H   UNL     1       8.658   4.772  20.287  0.00  0.00    +0.000 HD
ENDBRANCH  13  14
ENDBRANCH  11  13
ENDBRANCH   1  11
TORSDOF 3
ENDMDL
MODEL 9
REMARK VINA RESULT:      -6.9      1.096      1.305
REMARK  Name = 
REMARK  4 active torsions:
REMARK  status: ('A' for Active; 'I' for Inactive)
REMARK    1  A    between atoms: C_1  and  C_2
REMARK    2  A    between atoms: C_2  and  S_3
REMARK    3  A    between atoms: C_2  and  C_14
REMARK    4  A    between atoms: S_3  and  C_4
REMARK                            x       y       z     vdW  Elec       q    Type
REMARK                         _______ _______ _______ _____ _____    ______ ____
ROOT
ATOM      1  C   UNL     1       4.461   5.549  17.605  0.00  0.00    +0.000 A 
ATOM      2  C   UNL     1       4.084   4.482  16.789  0.00  0.00    +0.000 A 
ATOM      3  C   UNL     1       3.173   3.530  17.248  0.00  0.00    +0.000 A 
ATOM      4  C   UNL     1       2.631   3.616  18.538  0.00  0.00    +0.000 A 
ATOM      5  C   UNL     1       1.718   2.662  19.009  0.00  0.00    +0.000 A 
ATOM      6  C   UNL     1       1.187   2.756  20.296  0.00  0.00    +0.000 A 
ATOM      7  C   UNL     1       1.561   3.809  21.124  0.00  0.00    +0.000 A 
ATOM      8  C   UNL     1       2.471   4.767  20.670  0.00  0.00    +0.000 A 
ATOM      9  C   UNL     1       3.018   4.686  19.378  0.00  0.00    +0.000 A 
ATOM     10  C   UNL     1       3.939   5.638  18.901  0.00  0.00    +0.000 A 
ENDROOT
BRANCH   1  11
ATOM     11  S   UNL     1       5.670   6.729  17.025  0.00  0.00    +0.000 S 
BRANCH  11  13
ATOM     12  C   UNL     1       7.234   4.414  17.049  0.00  0.00    +0.000 C 
ATOM     13  C   UNL     1       7.254   5.884  17.442  0.00  0.00    +0.000 C 
BRANCH  13  14
ATOM     14  C   UNL     1       7.633   6.095  18.908  0.00  0.00    +0.000 C 
ATOM     15  N   UNL     1       8.499   7.127  19.154  0.00  0.00    +0.000 N 
ATOM     16  O   UNL     1       7.261   5.378  19.831  0.00  0.00    +0.000 OA
ATOM     17  H   UNL     1       8.721   7.818  18.449  0.00  0.00    +0.000 HD
ATOM     18  H   UNL     1       8.740   7.314  20.118  0.00  0.00    +0.000 HD
ENDBRANCH  13  14
ENDBRANCH  11  13
ENDBRANCH   1  11
TORSDOF 3
ENDMDL
