MODEL 1
REMARK VINA RESULT:      -8.3      0.000      0.000
REMARK  Name = 
REMARK  8 active torsions:
REMARK  status: ('A' for Active; 'I' for Inactive)
REMARK    1  A    between atoms: C_1  and  O_2
REMARK    2  A    between atoms: O_2  and  C_3
REMARK    3  A    between atoms: C_6  and  C_7
REMARK    4  A    between atoms: N_14  and  O_15
REMARK    5  A    between atoms: O_15  and  C_16
REMARK    6  A    between atoms: C_16  and  C_17
REMARK    7  A    between atoms: C_24  and  O_25
REMARK    8  A    between atoms: O_25  and  C_26
REMARK                            x       y       z     vdW  Elec       q    Type
REMARK                         _______ _______ _______ _____ _____    ______ ____
ROOT
ATOM      1  C   UNL     1       2.665   5.084  17.924  0.00  0.00    +0.000 C 
ATOM      2  N   UNL     1       1.962   3.841  17.641  0.00  0.00    +0.000 NA
ATOM      3  C   UNL     1       1.506   3.179  18.638  0.00  0.00    +0.000 C 
ATOM      4  N   UNL     1       0.855   2.026  18.362  0.00  0.00    +0.000 N 
ATOM      5  N   UNL     1       1.646   3.506  19.951  0.00  0.00    +0.000 NA
ATOM      6  C   UNL     1       2.222   4.630  20.237  0.00  0.00    +0.000 C 
ATOM      7  N   UNL     1       2.406   4.986  21.533  0.00  0.00    +0.000 N 
ATOM      8  N   UNL     1       2.722   5.488  19.310  0.00  0.00    +0.000 N 
ATOM      9  H   UNL     1       1.097   1.666  17.449  0.00  0.00    +0.000 HD
ATOM     10  H   UNL     1       0.922   1.352  19.111  0.00  0.00    +0.000 HD
ATOM     11  H   UNL     1       1.814   4.489  22.184  0.00  0.00    +0.000 HD
ATOM     12  H   UNL     1       2.477   5.984  21.683  0.00  0.00    +0.000 HD
ENDROOT
BRANCH   1  16
ATOM     13  C   UNL     1       6.387   5.162  15.754  0.00  0.00    +0.000 A 
ATOM     14  C   UNL     1       5.633   3.979  15.814  0.00  0.00    +0.000 A 
ATOM     15  C   UNL     1       4.466   3.916  16.573  0.00  0.00    +0.000 A 
ATOM     16  C   UNL     1       4.052   5.027  17.313  0.00  0.00    +0.000 A 
ATOM     17  C   UNL     1       4.896   6.145  17.373  0.00  0.00    +0.000 A 
ATOM     18  C   UNL     1       6.063   6.229  16.602  0.00  0.00    +0.000 A 
BRANCH  13  20
ATOM     19  C   UNL     1       7.169   4.752  13.572  0.00  0.00    +0.000 C 
ATOM     20  O   UNL     1       7.434   5.272  14.878  0.00  0.00    +0.000 OA
ENDBRANCH  13  20
BRANCH  18  21
ATOM     21  O   UNL     1       6.702   7.424  16.784  0.00  0.00    +0.000 OA
ATOM     22  C   UNL     1       7.715   7.520  17.770  0.00  0.00    +0.000 C 
ENDBRANCH  18  21
ENDBRANCH   1  16
BRANCH   8  23
ATOM     23  O   UNL     1       2.941   6.840  19.682  0.00  0.00    +0.000 OA
BRANCH  23  24
ATOM     24  C   UNL     1       1.955   7.674  19.055  0.00  0.00    +0.000 C 
BRANCH  24  25
ATOM     25  C   UNL     1       1.289   8.673  19.966  0.00  0.00    +0.000 A 
ATOM     26  C   UNL     1       0.632   9.809  19.486  0.00  0.00    +0.000 A 
ATOM     27  C   UNL     1      -0.095  10.621  20.360  0.00  0.00    +0.000 A 
ATOM     28  C   UNL     1      -0.180  10.298  21.715  0.00  0.00    +0.000 A 
ATOM     29  C   UNL     1       0.464   9.165  22.203  0.00  0.00    +0.000 A 
ATOM     30  C   UNL     1       1.193   8.357  21.333  0.00  0.00    +0.000 A 
ENDBRANCH  24  25
ENDBRANCH  23  24
ENDBRANCH   8  23
TORSDOF 6
ENDMDL
MODEL 2
REMARK VINA RESULT:      -8.2      2.764      6.065
REMARK  Name = 
REMARK  8 active torsions:
REMARK  status: ('A' for Active; 'I' for Inactive)
REMARK    1  A    between atoms: C_1  and  O_2
REMARK    2  A    between atoms: O_2  and  C_3
REMARK    3  A    between atoms: C_6  and  C_7
REMARK    4  A    between atoms: N_14  and  O_15
REMARK    5  A    between atoms: O_15  and  C_16
REMARK    6  A    between atoms: C_16  and  C_17
REMARK    7  A    between atoms: C_24  and  O_25
REMARK    8  A    between atoms: O_25  and  C_26
REMARK                            x       y       z     vdW  Elec       q    Type
REMARK                         _______ _______ _______ _____ _____    ______ ____
ROOT
ATOM      1  C   UNL     1       4.662   5.064  17.267  0.00  0.00    +0.000 C 
ATOM      2  N   UNL     1       5.032   5.298  15.878  0.00  0.00    +0.000 NA
ATOM      3  C   UNL     1       6.272   5.195  15.571  0.00  0.00    +0.000 C 
ATOM      4  N   UNL     1       6.602   5.414  14.278  0.00  0.00    +0.000 N 
ATOM      5  N   UNL     1       7.292   4.921  16.428  0.00  0.00    +0.000 NA
ATOM      6  C   UNL     1       6.993   4.658  17.660  0.00  0.00    +0.000 C 
ATOM      7  N   UNL     1       7.979   4.403  18.556  0.00  0.00    +0.000 N 
ATOM      8  N   UNL     1       5.729   4.669  18.157  0.00  0.00    +0.000 N 
ATOM      9  H   UNL     1       5.895   5.952  13.794  0.00  0.00    +0.000 HD
ATOM     10  H   UNL     1       7.543   5.766  14.171  0.00  0.00    +0.000 HD
ATOM     11  H   UNL     1       8.860   4.143  18.135  0.00  0.00    +0.000 HD
ATOM     12  H   UNL     1       7.689   3.838  19.344  0.00  0.00    +0.000 HD
ENDROOT
BRANCH   1  16
ATOM     13  C   UNL     1       2.126   8.305  18.545  0.00  0.00    +0.000 A 
ATOM     14  C   UNL     1       2.981   8.473  17.443  0.00  0.00    +0.000 A 
ATOM     15  C   UNL     1       3.860   7.462  17.064  0.00  0.00    +0.000 A 
ATOM     16  C   UNL     1       3.924   6.277  17.802  0.00  0.00    +0.000 A 
ATOM     17  C   UNL     1       3.185   6.186  18.990  0.00  0.00    +0.000 A 
ATOM     18  C   UNL     1       2.284   7.187  19.375  0.00  0.00    +0.000 A 
BRANCH  13  20
ATOM     19  C   UNL     1       1.493  10.570  18.461  0.00  0.00    +0.000 C 
ATOM     20  O   UNL     1       1.149   9.227  18.811  0.00  0.00    +0.000 OA
ENDBRANCH  13  20
BRANCH  18  21
ATOM     21  O   UNL     1       1.641   6.866  20.538  0.00  0.00    +0.000 OA
ATOM     22  C   UNL     1       1.239   7.907  21.412  0.00  0.00    +0.000 C 
ENDBRANCH  18  21
ENDBRANCH   1  16
BRANCH   8  23
ATOM     23  O   UNL     1       5.468   3.975  19.368  0.00  0.00    +0.000 OA
BRANCH  23  24
ATOM     24  C   UNL     1       4.744   2.768  19.082  0.00  0.00    +0.000 C 
BRANCH  24  25
ATOM     25  C   UNL     1       3.308   2.759  19.539  0.00  0.00    +0.000 A 
ATOM     26  C   UNL     1       2.931   3.098  20.841  0.00  0.00    +0.000 A 
ATOM     27  C   UNL     1       1.578   3.217  21.170  0.00  0.00    +0.000 A 
ATOM     28  C   UNL     1       0.596   3.011  20.200  0.00  0.00    +0.000 A 
ATOM     29  C   UNL     1       0.961   2.680  18.899  0.00  0.00    +0.000 A 
ATOM     30  C   UNL     1       2.309   2.557  18.570  0.00  0.00    +0.000 A 
ENDBRANCH  24  25
ENDBRANCH  23  24
ENDBRANCH   8  23
TORSDOF 6
ENDMDL
MODEL 3
REMARK VINA RESULT:      -8.1      2.138      6.101
REMARK  Name = 
REMARK  8 active torsions:
REMARK  status: ('A' for Active; 'I' for Inactive)
REMARK    1  A    between atoms: C_1  and  O_2
REMARK    2  A    between atoms: O_2  and  C_3
REMARK    3  A    between atoms: C_6  and  C_7
REMARK    4  A    between atoms: N_14  and  O_15
REMARK    5  A    between atoms: O_15  and  C_16
REMARK    6  A    between atoms: C_16  and  C_17
REMARK    7  A    between atoms: C_24  and  O_25
REMARK    8  A    between atoms: O_25  and  C_26
REMARK                            x       y       z     vdW  Elec       q    Type
REMARK                         _______ _______ _______ _____ _____    ______ ____
ROOT
ATOM      1  C   UNL     1       3.169   4.753  20.014  0.00  0.00    +0.000 C 
ATOM      2  N   UNL     1       2.392   4.250  21.138  0.00  0.00    +0.000 NA
ATOM      3  C   UNL     1       1.735   3.163  20.963  0.00  0.00    +0.000 C 
ATOM      4  N   UNL     1       1.018   2.706  22.015  0.00  0.00    +0.000 N 
ATOM      5  N   UNL     1       1.662   2.446  19.810  0.00  0.00    +0.000 NA
ATOM      6  C   UNL     1       2.380   2.838  18.806  0.00  0.00    +0.000 C 
ATOM      7  N   UNL     1       2.320   2.167  17.629  0.00  0.00    +0.000 N 
ATOM      8  N   UNL     1       3.178   3.937  18.823  0.00  0.00    +0.000 N 
ATOM      9  H   UNL     1       0.821   3.438  22.684  0.00  0.00    +0.000 HD
ATOM     10  H   UNL     1       0.210   2.169  21.731  0.00  0.00    +0.000 HD
ATOM     11  H   UNL     1       1.945   1.232  17.707  0.00  0.00    +0.000 HD
ATOM     12  H   UNL     1       3.149   2.258  17.056  0.00  0.00    +0.000 HD
ENDROOT
BRANCH   1  16
ATOM     13  C   UNL     1       1.447   8.587  19.059  0.00  0.00    +0.000 A 
ATOM     14  C   UNL     1       2.158   7.871  18.081  0.00  0.00    +0.000 A 
ATOM     15  C   UNL     1       2.783   6.667  18.394  0.00  0.00    +0.000 A 
ATOM     16  C   UNL     1       2.738   6.174  19.701  0.00  0.00    +0.000 A 
ATOM     17  C   UNL     1       2.166   6.974  20.701  0.00  0.00    +0.000 A 
ATOM     18  C   UNL     1       1.518   8.178  20.398  0.00  0.00    +0.000 A 
BRANCH  13  20
ATOM     19  C   UNL     1       1.430  10.900  18.627  0.00  0.00    +0.000 C 
ATOM     20  O   UNL     1       0.695   9.677  18.710  0.00  0.00    +0.000 OA
ENDBRANCH  13  20
BRANCH  18  21
ATOM     21  O   UNL     1       0.996   8.765  21.517  0.00  0.00    +0.000 OA
ATOM     22  C   UNL     1      -0.390   8.628  21.782  0.00  0.00    +0.000 C 
ENDBRANCH  18  21
ENDBRANCH   1  16
BRANCH   8  23
ATOM     23  O   UNL     1       4.215   4.039  17.859  0.00  0.00    +0.000 OA
BRANCH  23  24
ATOM     24  C   UNL     1       5.485   4.087  18.527  0.00  0.00    +0.000 C 
BRANCH  24  25
ATOM     25  C   UNL     1       6.254   5.371  18.350  0.00  0.00    +0.000 A 
ATOM     26  C   UNL     1       7.396   5.674  19.096  0.00  0.00    +0.000 A 
ATOM     27  C   UNL     1       8.155   6.805  18.788  0.00  0.00    +0.000 A 
ATOM     28  C   UNL     1       7.785   7.635  17.729  0.00  0.00    +0.000 A 
ATOM     29  C   UNL     1       6.653   7.339  16.975  0.00  0.00    +0.000 A 
ATOM     30  C   UNL     1       5.893   6.213  17.283  0.00  0.00    +0.000 A 
ENDBRANCH  24  25
ENDBRANCH  23  24
ENDBRANCH   8  23
TORSDOF 6
ENDMDL
MODEL 4
REMARK VINA RESULT:      -8.1      2.076      6.047
REMARK  Name = 
REMARK  8 active torsions:
REMARK  status: ('A' for Active; 'I' for Inactive)
REMARK    1  A    between atoms: C_1  and  O_2
REMARK    2  A    between atoms: O_2  and  C_3
REMARK    3  A    between atoms: C_6  and  C_7
REMARK    4  A    between atoms: N_14  and  O_15
REMARK    5  A    between atoms: O_15  and  C_16
REMARK    6  A    between atoms: C_16  and  C_17
REMARK    7  A    between atoms: C_24  and  O_25
REMARK    8  A    between atoms: O_25  and  C_26
REMARK                            x       y       z     vdW  Elec       q    Type
REMARK                         _______ _______ _______ _____ _____    ______ ____
ROOT
ATOM      1  C   UNL     1       3.209   4.973  19.889  0.00  0.00    +0.000 C 
ATOM      2  N   UNL     1       2.473   4.443  21.028  0.00  0.00    +0.000 NA
ATOM      3  C   UNL     1       1.827   3.349  20.858  0.00  0.00    +0.000 C 
ATOM      4  N   UNL     1       1.148   2.867  21.923  0.00  0.00    +0.000 N 
ATOM      5  N   UNL     1       1.730   2.646  19.697  0.00  0.00    +0.000 NA
ATOM      6  C   UNL     1       2.413   3.063  18.678  0.00  0.00    +0.000 C 
ATOM      7  N   UNL     1       2.328   2.407  17.494  0.00  0.00    +0.000 N 
ATOM      8  N   UNL     1       3.195   4.173  18.687  0.00  0.00    +0.000 N 
ATOM      9  H   UNL     1       0.960   3.586  22.608  0.00  0.00    +0.000 HD
ATOM     10  H   UNL     1       0.341   2.322  21.656  0.00  0.00    +0.000 HD
ATOM     11  H   UNL     1       1.969   1.466  17.570  0.00  0.00    +0.000 HD
ATOM     12  H   UNL     1       3.138   2.518  16.899  0.00  0.00    +0.000 HD
ENDROOT
BRANCH   1  16
ATOM     13  C   UNL     1       1.437   8.780  18.921  0.00  0.00    +0.000 A 
ATOM     14  C   UNL     1       2.361   8.190  18.042  0.00  0.00    +0.000 A 
ATOM     15  C   UNL     1       2.999   6.998  18.375  0.00  0.00    +0.000 A 
ATOM     16  C   UNL     1       2.748   6.391  19.609  0.00  0.00    +0.000 A 
ATOM     17  C   UNL     1       1.950   7.070  20.541  0.00  0.00    +0.000 A 
ATOM     18  C   UNL     1       1.289   8.262  20.213  0.00  0.00    +0.000 A 
BRANCH  13  20
ATOM     19  C   UNL     1       1.319  11.123  18.728  0.00  0.00    +0.000 C 
ATOM     20  O   UNL     1       0.690   9.856  18.520  0.00  0.00    +0.000 OA
ENDBRANCH  13  20
BRANCH  18  21
ATOM     21  O   UNL     1       0.532   8.721  21.255  0.00  0.00    +0.000 OA
ATOM     22  C   UNL     1       1.182   9.249  22.398  0.00  0.00    +0.000 C 
ENDBRANCH  18  21
ENDBRANCH   1  16
BRANCH   8  23
ATOM     23  O   UNL     1       4.201   4.304  17.695  0.00  0.00    +0.000 OA
BRANCH  23  24
ATOM     24  C   UNL     1       5.495   4.196  18.309  0.00  0.00    +0.000 C 
BRANCH  24  25
ATOM     25  C   UNL     1       6.408   5.376  18.092  0.00  0.00    +0.000 A 
ATOM     26  C   UNL     1       6.189   6.321  17.087  0.00  0.00    +0.000 A 
ATOM     27  C   UNL     1       6.978   7.473  17.025  0.00  0.00    +0.000 A 
ATOM     28  C   UNL     1       7.980   7.692  17.970  0.00  0.00    +0.000 A 
ATOM     29  C   UNL     1       8.201   6.760  18.980  0.00  0.00    +0.000 A 
ATOM     30  C   UNL     1       7.419   5.610  19.041  0.00  0.00    +0.000 A 
ENDBRANCH  24  25
ENDBRANCH  23  24
ENDBRANCH   8  23
TORSDOF 6
ENDMDL
MODEL 5
REMARK VINA RESULT:      -8.0      1.398      1.765
REMARK  Name = 
REMARK  8 active torsions:
REMARK  status: ('A' for Active; 'I' for Inactive)
REMARK    1  A    between atoms: C_1  and  O_2
REMARK    2  A    between atoms: O_2  and  C_3
REMARK    3  A    between atoms: C_6  and  C_7
REMARK    4  A    between atoms: N_14  and  O_15
REMARK    5  A    between atoms: O_15  and  C_16
REMARK    6  A    between atoms: C_16  and  C_17
REMARK    7  A    between atoms: C_24  and  O_25
REMARK    8  A    between atoms: O_25  and  C_26
REMARK                            x       y       z     vdW  Elec       q    Type
REMARK                         _______ _______ _______ _____ _____    ______ ____
ROOT
ATOM      1  C   UNL     1       2.419   5.791  18.082  0.00  0.00    +0.000 C 
ATOM      2  N   UNL     1       1.787   4.554  18.517  0.00  0.00    +0.000 NA
ATOM      3  C   UNL     1       1.320   4.516  19.710  0.00  0.00    +0.000 C 
ATOM      4  N   UNL     1       0.735   3.362  20.102  0.00  0.00    +0.000 N 
ATOM      5  N   UNL     1       1.389   5.515  20.631  0.00  0.00    +0.000 NA
ATOM      6  C   UNL     1       1.900   6.646  20.261  0.00  0.00    +0.000 C 
ATOM      7  N   UNL     1       2.011   7.662  21.153  0.00  0.00    +0.000 N 
ATOM      8  N   UNL     1       2.398   6.888  19.021  0.00  0.00    +0.000 N 
ATOM      9  H   UNL     1       1.033   2.577  19.538  0.00  0.00    +0.000 HD
ATOM     10  H   UNL     1       0.802   3.211  21.099  0.00  0.00    +0.000 HD
ATOM     11  H   UNL     1       1.416   7.564  21.963  0.00  0.00    +0.000 HD
ATOM     12  H   UNL     1       2.030   8.582  20.733  0.00  0.00    +0.000 HD
ENDROOT
BRANCH   1  16
ATOM     13  C   UNL     1       6.266   5.105  16.265  0.00  0.00    +0.000 A 
ATOM     14  C   UNL     1       5.405   4.024  16.519  0.00  0.00    +0.000 A 
ATOM     15  C   UNL     1       4.191   4.219  17.173  0.00  0.00    +0.000 A 
ATOM     16  C   UNL     1       3.832   5.496  17.615  0.00  0.00    +0.000 A 
ATOM     17  C   UNL     1       4.768   6.534  17.500  0.00  0.00    +0.000 A 
ATOM     18  C   UNL     1       5.985   6.356  16.829  0.00  0.00    +0.000 A 
BRANCH  13  20
ATOM     19  C   UNL     1       7.089   4.788  14.082  0.00  0.00    +0.000 C 
ATOM     20  O   UNL     1       7.373   4.937  15.476  0.00  0.00    +0.000 OA
ENDBRANCH  13  20
BRANCH  18  21
ATOM     21  O   UNL     1       6.717   7.510  16.797  0.00  0.00    +0.000 OA
ATOM     22  C   UNL     1       7.755   7.693  17.744  0.00  0.00    +0.000 C 
ENDBRANCH  18  21
ENDBRANCH   1  16
BRANCH   8  23
ATOM     23  O   UNL     1       2.538   8.235  18.595  0.00  0.00    +0.000 OA
BRANCH  23  24
ATOM     24  C   UNL     1       1.457   8.572  17.712  0.00  0.00    +0.000 C 
BRANCH  24  25
ATOM     25  C   UNL     1       0.564   9.688  18.191  0.00  0.00    +0.000 A 
ATOM     26  C   UNL     1      -0.754   9.838  17.753  0.00  0.00    +0.000 A 
ATOM     27  C   UNL     1      -1.582  10.798  18.339  0.00  0.00    +0.000 A 
ATOM     28  C   UNL     1      -1.105  11.605  19.373  0.00  0.00    +0.000 A 
ATOM     29  C   UNL     1       0.204  11.459  19.822  0.00  0.00    +0.000 A 
ATOM     30  C   UNL     1       1.033  10.505  19.235  0.00  0.00    +0.000 A 
ENDBRANCH  24  25
ENDBRANCH  23  24
ENDBRANCH   8  23
TORSDOF 6
ENDMDL
MODEL 6
REMARK VINA RESULT:      -8.0      0.842      1.395
REMARK  Name = 
REMARK  8 active torsions:
REMARK  status: ('A' for Active; 'I' for Inactive)
REMARK    1  A    between atoms: C_1  and  O_2
REMARK    2  A    between atoms: O_2  and  C_3
REMARK    3  A    between atoms: C_6  and  C_7
REMARK    4  A    between atoms: N_14  and  O_15
REMARK    5  A    between atoms: O_15  and  C_16
REMARK    6  A    between atoms: C_16  and  C_17
REMARK    7  A    between atoms: C_24  and  O_25
REMARK    8  A    between atoms: O_25  and  C_26
REMARK                            x       y       z     vdW  Elec       q    Type
REMARK                         _______ _______ _______ _____ _____    ______ ____
ROOT
ATOM      1  C   UNL     1       2.744   5.061  17.656  0.00  0.00    +0.000 C 
ATOM      2  N   UNL     1       2.123   3.749  17.536  0.00  0.00    +0.000 NA
ATOM      3  C   UNL     1       1.654   3.217  18.603  0.00  0.00    +0.000 C 
ATOM      4  N   UNL     1       1.080   1.999  18.479  0.00  0.00    +0.000 N 
ATOM      5  N   UNL     1       1.712   3.745  19.856  0.00  0.00    +0.000 NA
ATOM      6  C   UNL     1       2.213   4.931  19.991  0.00  0.00    +0.000 C 
ATOM      7  N   UNL     1       2.314   5.487  21.224  0.00  0.00    +0.000 N 
ATOM      8  N   UNL     1       2.711   5.669  18.965  0.00  0.00    +0.000 N 
ATOM      9  H   UNL     1       1.386   1.522  17.642  0.00  0.00    +0.000 HD
ATOM     10  H   UNL     1       1.147   1.449  19.324  0.00  0.00    +0.000 HD
ATOM     11  H   UNL     1       1.718   5.058  21.918  0.00  0.00    +0.000 HD
ATOM     12  H   UNL     1       2.324   6.499  21.224  0.00  0.00    +0.000 HD
ENDROOT
BRANCH   1  16
ATOM     13  C   UNL     1       6.574   5.124  15.681  0.00  0.00    +0.000 A 
ATOM     14  C   UNL     1       5.807   3.947  15.693  0.00  0.00    +0.000 A 
ATOM     15  C   UNL     1       4.603   3.888  16.389  0.00  0.00    +0.000 A 
ATOM     16  C   UNL     1       4.160   4.997  17.116  0.00  0.00    +0.000 A 
ATOM     17  C   UNL     1       5.009   6.107  17.229  0.00  0.00    +0.000 A 
ATOM     18  C   UNL     1       6.215   6.187  16.520  0.00  0.00    +0.000 A 
BRANCH  13  20
ATOM     19  C   UNL     1       7.407   4.921  13.490  0.00  0.00    +0.000 C 
ATOM     20  O   UNL     1       7.665   5.232  14.861  0.00  0.00    +0.000 OA
ENDBRANCH  13  20
BRANCH  18  21
ATOM     21  O   UNL     1       6.853   7.375  16.744  0.00  0.00    +0.000 OA
ATOM     22  C   UNL     1       7.731   7.486  17.851  0.00  0.00    +0.000 C 
ENDBRANCH  18  21
ENDBRANCH   1  16
BRANCH   8  23
ATOM     23  O   UNL     1       2.839   7.073  19.136  0.00  0.00    +0.000 OA
BRANCH  23  24
ATOM     24  C   UNL     1       1.959   7.748  18.224  0.00  0.00    +0.000 C 
BRANCH  24  25
ATOM     25  C   UNL     1       1.530   9.128  18.652  0.00  0.00    +0.000 A 
ATOM     26  C   UNL     1       0.717   9.352  19.766  0.00  0.00    +0.000 A 
ATOM     27  C   UNL     1       0.473  10.655  20.205  0.00  0.00    +0.000 A 
ATOM     28  C   UNL     1       1.046  11.741  19.542  0.00  0.00    +0.000 A 
ATOM     29  C   UNL     1       1.863  11.529  18.435  0.00  0.00    +0.000 A 
ATOM     30  C   UNL     1       2.104  10.230  17.994  0.00  0.00    +0.000 A 
ENDBRANCH  24  25
ENDBRANCH  23  24
ENDBRANCH   8  23
TORSDOF 6
ENDMDL
MODEL 7
REMARK VINA RESULT:      -8.0      1.764      2.332
REMARK  Name = 
REMARK  8 active torsions:
REMARK  status: ('A' for Active; 'I' for Inactive)
REMARK    1  A    between atoms: C_1  and  O_2
REMARK    2  A    between atoms: O_2  and  C_3
REMARK    3  A    between atoms: C_6  and  C_7
REMARK    4  A    between atoms: N_14  and  O_15
REMARK    5  A    between atoms: O_15  and  C_16
REMARK    6  A    between atoms: C_16  and  C_17
REMARK    7  A    between atoms: C_24  and  O_25
REMARK    8  A    between atoms: O_25  and  C_26
REMARK                            x       y       z     vdW  Elec       q    Type
REMARK                         _______ _______ _______ _____ _____    ______ ____
ROOT
ATOM      1  C   UNL     1       3.571   3.699  17.506  0.00  0.00    +0.000 C 
ATOM      2  N   UNL     1       3.908   2.287  17.620  0.00  0.00    +0.000 NA
ATOM      3  C   UNL     1       3.649   1.705  18.731  0.00  0.00    +0.000 C 
ATOM      4  N   UNL     1       3.966   0.394  18.824  0.00  0.00    +0.000 N 
ATOM      5  N   UNL     1       3.119   2.289  19.840  0.00  0.00    +0.000 NA
ATOM      6  C   UNL     1       2.762   3.531  19.757  0.00  0.00    +0.000 C 
ATOM      7  N   UNL     1       2.251   4.162  20.844  0.00  0.00    +0.000 N 
ATOM      8  N   UNL     1       2.911   4.295  18.644  0.00  0.00    +0.000 N 
ATOM      9  H   UNL     1       4.662   0.125  18.141  0.00  0.00    +0.000 HD
ATOM     10  H   UNL     1       4.177   0.110  19.770  0.00  0.00    +0.000 HD
ATOM     11  H   UNL     1       1.909   3.536  21.560  0.00  0.00    +0.000 HD
ATOM     12  H   UNL     1       1.649   4.945  20.626  0.00  0.00    +0.000 HD
ENDROOT
BRANCH   1  16
ATOM     13  C   UNL     1       6.939   6.287  16.780  0.00  0.00    +0.000 A 
ATOM     14  C   UNL     1       5.839   6.302  15.907  0.00  0.00    +0.000 A 
ATOM     15  C   UNL     1       4.777   5.420  16.084  0.00  0.00    +0.000 A 
ATOM     16  C   UNL     1       4.812   4.483  17.121  0.00  0.00    +0.000 A 
ATOM     17  C   UNL     1       5.983   4.369  17.884  0.00  0.00    +0.000 A 
ATOM     18  C   UNL     1       7.052   5.261  17.728  0.00  0.00    +0.000 A 
BRANCH  13  20
ATOM     19  C   UNL     1       7.713   8.344  17.623  0.00  0.00    +0.000 C 
ATOM     20  O   UNL     1       7.897   7.264  16.705  0.00  0.00    +0.000 OA
ENDBRANCH  13  20
BRANCH  18  21
ATOM     21  O   UNL     1       8.065   4.993  18.606  0.00  0.00    +0.000 OA
ATOM     22  C   UNL     1       7.998   5.526  19.917  0.00  0.00    +0.000 C 
ENDBRANCH  18  21
ENDBRANCH   1  16
BRANCH   8  23
ATOM     23  O   UNL     1       2.128   5.472  18.517  0.00  0.00    +0.000 OA
BRANCH  23  24
ATOM     24  C   UNL     1       2.928   6.617  18.851  0.00  0.00    +0.000 C 
BRANCH  24  25
ATOM     25  C   UNL     1       2.159   7.895  19.067  0.00  0.00    +0.000 A 
ATOM     26  C   UNL     1       1.829   8.761  18.021  0.00  0.00    +0.000 A 
ATOM     27  C   UNL     1       0.989   9.852  18.253  0.00  0.00    +0.000 A 
ATOM     28  C   UNL     1       0.464  10.079  19.526  0.00  0.00    +0.000 A 
ATOM     29  C   UNL     1       0.780   9.219  20.573  0.00  0.00    +0.000 A 
ATOM     30  C   UNL     1       1.621   8.133  20.344  0.00  0.00    +0.000 A 
ENDBRANCH  24  25
ENDBRANCH  23  24
ENDBRANCH   8  23
TORSDOF 6
ENDMDL
MODEL 8
REMARK VINA RESULT:      -8.0      1.081      1.107
REMARK  Name = 
REMARK  8 active torsions:
REMARK  status: ('A' for Active; 'I' for Inactive)
REMARK    1  A    between atoms: C_1  and  O_2
REMARK    2  A    between atoms: O_2  and  C_3
REMARK    3  A    between atoms: C_6  and  C_7
REMARK    4  A    between atoms: N_14  and  O_15
REMARK    5  A    between atoms: O_15  and  C_16
REMARK    6  A    between atoms: C_16  and  C_17
REMARK    7  A    between atoms: C_24  and  O_25
REMARK    8  A    between atoms: O_25  and  C_26
REMARK                            x       y       z     vdW  Elec       q    Type
REMARK                         _______ _______ _______ _____ _____    ______ ____
ROOT
ATOM      1  C   UNL     1       2.729   4.565  17.965  0.00  0.00    +0.000 C 
ATOM      2  N   UNL     1       1.900   3.386  17.759  0.00  0.00    +0.000 NA
ATOM      3  C   UNL     1       1.420   2.812  18.799  0.00  0.00    +0.000 C 
ATOM      4  N   UNL     1       0.651   1.718  18.594  0.00  0.00    +0.000 N 
ATOM      5  N   UNL     1       1.639   3.176  20.091  0.00  0.00    +0.000 NA
ATOM      6  C   UNL     1       2.331   4.249  20.308  0.00  0.00    +0.000 C 
ATOM      7  N   UNL     1       2.595   4.637  21.581  0.00  0.00    +0.000 N 
ATOM      8  N   UNL     1       2.876   5.016  19.329  0.00  0.00    +0.000 N 
ATOM      9  H   UNL     1       0.824   1.299  17.690  0.00  0.00    +0.000 HD
ATOM     10  H   UNL     1       0.681   1.070  19.369  0.00  0.00    +0.000 HD
ATOM     11  H   UNL     1       1.983   4.226  22.272  0.00  0.00    +0.000 HD
ATOM     12  H   UNL     1       2.768   5.629  21.685  0.00  0.00    +0.000 HD
ENDROOT
BRANCH   1  16
ATOM     13  C   UNL     1       6.602   4.489  16.076  0.00  0.00    +0.000 A 
ATOM     14  C   UNL     1       5.445   4.249  15.317  0.00  0.00    +0.000 A 
ATOM     15  C   UNL     1       4.193   4.196  15.926  0.00  0.00    +0.000 A 
ATOM     16  C   UNL     1       4.081   4.348  17.311  0.00  0.00    +0.000 A 
ATOM     17  C   UNL     1       5.255   4.426  18.074  0.00  0.00    +0.000 A 
ATOM     18  C   UNL     1       6.519   4.498  17.475  0.00  0.00    +0.000 A 
BRANCH  13  20
ATOM     19  C   UNL     1       7.700   5.048  14.071  0.00  0.00    +0.000 C 
ATOM     20  O   UNL     1       7.803   4.709  15.456  0.00  0.00    +0.000 OA
ENDBRANCH  13  20
BRANCH  18  21
ATOM     21  O   UNL     1       7.512   4.616  18.406  0.00  0.00    +0.000 OA
ATOM     22  C   UNL     1       7.729   5.872  19.026  0.00  0.00    +0.000 C 
ENDBRANCH  18  21
ENDBRANCH   1  16
BRANCH   8  23
ATOM     23  O   UNL     1       3.238   6.354  19.634  0.00  0.00    +0.000 OA
BRANCH  23  24
ATOM     24  C   UNL     1       2.461   7.255  18.829  0.00  0.00    +0.000 C 
BRANCH  24  25
ATOM     25  C   UNL     1       1.673   8.283  19.598  0.00  0.00    +0.000 A 
ATOM     26  C   UNL     1       1.139   9.426  18.997  0.00  0.00    +0.000 A 
ATOM     27  C   UNL     1       0.292  10.268  19.722  0.00  0.00    +0.000 A 
ATOM     28  C   UNL     1      -0.036   9.970  21.045  0.00  0.00    +0.000 A 
ATOM     29  C   UNL     1       0.485   8.830  21.651  0.00  0.00    +0.000 A 
ATOM     30  C   UNL     1       1.333   7.991  20.931  0.00  0.00    +0.000 A 
ENDBRANCH  24  25
ENDBRANCH  23  24
ENDBRANCH   8  23
TORSDOF 6
ENDMDL
MODEL 9
REMARK VINA RESULT:      -8.0      1.567      2.619
REMARK  Name = 
REMARK  8 active torsions:
REMARK  status: ('A' for Active; 'I' for Inactive)
REMARK    1  A    between atoms: C_1  and  O_2
REMARK    2  A    between atoms: O_2  and  C_3
REMARK    3  A    between atoms: C_6  and  C_7
REMARK    4  A    between atoms: N_14  and  O_15
REMARK    5  A    between atoms: O_15  and  C_16
REMARK    6  A    between atoms: C_16  and  C_17
REMARK    7  A    between atoms: C_24  and  O_25
REMARK    8  A    between atoms: O_25  and  C_26
REMARK                            x       y       z     vdW  Elec       q    Type
REMARK                         _______ _______ _______ _____ _____    ______ ____
ROOT
ATOM      1  C   UNL     1       3.203   3.858  17.937  0.00  0.00    +0.000 C 
ATOM      2  N   UNL     1       3.751   2.522  17.754  0.00  0.00    +0.000 NA
ATOM      3  C   UNL     1       3.696   1.717  18.750  0.00  0.00    +0.000 C 
ATOM      4  N   UNL     1       4.209   0.480  18.566  0.00  0.00    +0.000 N 
ATOM      5  N   UNL     1       3.203   2.002  19.985  0.00  0.00    +0.000 NA
ATOM      6  C   UNL     1       2.663   3.164  20.169  0.00  0.00    +0.000 C 
ATOM      7  N   UNL     1       2.180   3.501  21.391  0.00  0.00    +0.000 N 
ATOM      8  N   UNL     1       2.583   4.127  19.214  0.00  0.00    +0.000 N 
ATOM      9  H   UNL     1       4.862   0.452  17.795  0.00  0.00    +0.000 HD
ATOM     10  H   UNL     1       4.554   0.071  19.423  0.00  0.00    +0.000 HD
ATOM     11  H   UNL     1       2.008   2.711  21.997  0.00  0.00    +0.000 HD
ATOM     12  H   UNL     1       1.451   4.202  21.371  0.00  0.00    +0.000 HD
ENDROOT
BRANCH   1  16
ATOM     13  C   UNL     1       6.587   6.374  17.052  0.00  0.00    +0.000 A 
ATOM     14  C   UNL     1       6.058   6.339  18.353  0.00  0.00    +0.000 A 
ATOM     15  C   UNL     1       4.919   5.589  18.638  0.00  0.00    +0.000 A 
ATOM     16  C   UNL     1       4.270   4.888  17.618  0.00  0.00    +0.000 A 
ATOM     17  C   UNL     1       4.711   5.060  16.299  0.00  0.00    +0.000 A 
ATOM     18  C   UNL     1       5.865   5.797  15.999  0.00  0.00    +0.000 A 
BRANCH  13  20
ATOM     19  C   UNL     1       8.053   8.129  17.612  0.00  0.00    +0.000 C 
ATOM     20  O   UNL     1       7.796   6.971  16.812  0.00  0.00    +0.000 OA
ENDBRANCH  13  20
BRANCH  18  21
ATOM     21  O   UNL     1       6.132   5.791  14.658  0.00  0.00    +0.000 OA
ATOM     22  C   UNL     1       6.670   4.620  14.068  0.00  0.00    +0.000 C 
ENDBRANCH  18  21
ENDBRANCH   1  16
BRANCH   8  23
ATOM     23  O   UNL     1       1.628   5.166  19.372  0.00  0.00    +0.000 OA
BRANCH  23  24
ATOM     24  C   UNL     1       2.202   6.229  20.148  0.00  0.00    +0.000 C 
BRANCH  24  25
ATOM     25  C   UNL     1       1.967   7.616  19.607  0.00  0.00    +0.000 A 
ATOM     26  C   UNL     1       2.286   7.975  18.295  0.00  0.00    +0.000 A 
ATOM     27  C   UNL     1       1.911   9.227  17.801  0.00  0.00    +0.000 A 
ATOM     28  C   UNL     1       1.206  10.121  18.608  0.00  0.00    +0.000 A 
ATOM     29  C   UNL     1       0.878   9.770  19.914  0.00  0.00    +0.000 A 
ATOM     30  C   UNL     1       1.254   8.524  20.410  0.00  0.00    +0.000 A 
ENDBRANCH  24  25
ENDBRANCH  23  24
ENDBRANCH   8  23
TORSDOF 6
ENDMDL
