MODEL 1
REMARK VINA RESULT:      -7.5      0.000      0.000
REMARK  Name = 
REMARK  10 active torsions:
REMARK  status: ('A' for Active; 'I' for Inactive)
REMARK    1  A    between atoms: C_1  and  C_2
REMARK    2  A    between atoms: C_2  and  C_3
REMARK    3  A    between atoms: C_2  and  C_4
REMARK    4  A    between atoms: C_2  and  C_5
REMARK    5  A    between atoms: C_8  and  O_9
REMARK    6  A    between atoms: O_9  and  C_10
REMARK    7  A    between atoms: C_10  and  C_11
REMARK    8  A    between atoms: C_11  and  C_12
REMARK    9  A    between atoms: C_12  and  N_13
REMARK   10  A    between atoms: N_16  and  C_17
REMARK                            x       y       z     vdW  Elec       q    Type
REMARK                         _______ _______ _______ _____ _____    ______ ____
ROOT
ATOM      1  C   UNL     1       1.866   3.631  21.183  0.00  0.00    +0.000 C 
ENDROOT
BRANCH   1   2
ATOM      2  C   UNL     1       2.131   5.126  21.319  0.00  0.00    +0.000 C 
BRANCH   2   3
ATOM      3  O   UNL     1       2.405   5.593  19.996  0.00  0.00    +0.000 OA
BRANCH   3   7
ATOM      4  C   UNL     1       1.266   9.587  19.452  0.00  0.00    +0.000 A 
ATOM      5  C   UNL     1       0.999   8.864  20.626  0.00  0.00    +0.000 A 
ATOM      6  C   UNL     1       1.394   7.531  20.764  0.00  0.00    +0.000 A 
ATOM      7  C   UNL     1       2.047   6.879  19.725  0.00  0.00    +0.000 A 
ATOM      8  C   UNL     1       2.326   7.570  18.551  0.00  0.00    +0.000 A 
ATOM      9  C   UNL     1       1.935   8.906  18.419  0.00  0.00    +0.000 A 
BRANCH   4  11
ATOM     10  C   UNL     1      -0.501  11.246  18.614  0.00  0.00    +0.000 C 
ATOM     11  C   UNL     1       0.878  11.063  19.286  0.00  0.00    +0.000 C 
ATOM     12  C   UNL     1       1.923  11.796  18.417  0.00  0.00    +0.000 C 
ATOM     13  C   UNL     1       0.814  11.752  20.667  0.00  0.00    +0.000 C 
ENDBRANCH   4  11
ENDBRANCH   3   7
ENDBRANCH   2   3
ENDBRANCH   1   2
BRANCH   1  14
ATOM     14  C   UNL     1       1.562   3.188  19.751  0.00  0.00    +0.000 C 
BRANCH  14  15
ATOM     15  N   UNL     1       2.534   2.235  19.197  0.00  0.00    +0.000 NA
ATOM     16  C   UNL     1       2.512   2.164  17.716  0.00  0.00    +0.000 C 
ATOM     17  C   UNL     1       3.008   3.440  17.007  0.00  0.00    +0.000 C 
ATOM     18  N   UNL     1       4.361   3.773  17.470  0.00  0.00    +0.000 N 
ATOM     19  C   UNL     1       4.565   3.811  18.925  0.00  0.00    +0.000 C 
ATOM     20  C   UNL     1       3.916   2.580  19.614  0.00  0.00    +0.000 C 
BRANCH  18  21
ATOM     21  C   UNL     1       5.369   4.103  16.581  0.00  0.00    +0.000 A 
ATOM     22  C   UNL     1       5.144   4.198  15.205  0.00  0.00    +0.000 A 
ATOM     23  C   UNL     1       6.171   4.580  14.333  0.00  0.00    +0.000 A 
ATOM     24  C   UNL     1       7.419   4.847  14.868  0.00  0.00    +0.000 A 
ATOM     25  N   UNL     1       7.697   4.771  16.185  0.00  0.00    +0.000 NA
ATOM     26  C   UNL     1       6.673   4.404  16.991  0.00  0.00    +0.000 A 
ENDBRANCH  18  21
ENDBRANCH  14  15
ENDBRANCH   1  14
TORSDOF 7
ENDMDL
MODEL 2
REMARK VINA RESULT:      -7.3      0.761      1.220
REMARK  Name = 
REMARK  10 active torsions:
REMARK  status: ('A' for Active; 'I' for Inactive)
REMARK    1  A    between atoms: C_1  and  C_2
REMARK    2  A    between atoms: C_2  and  C_3
REMARK    3  A    between atoms: C_2  and  C_4
REMARK    4  A    between atoms: C_2  and  C_5
REMARK    5  A    between atoms: C_8  and  O_9
REMARK    6  A    between atoms: O_9  and  C_10
REMARK    7  A    between atoms: C_10  and  C_11
REMARK    8  A    between atoms: C_11  and  C_12
REMARK    9  A    between atoms: C_12  and  N_13
REMARK   10  A    between atoms: N_16  and  C_17
REMARK                            x       y       z     vdW  Elec       q    Type
REMARK                         _______ _______ _______ _____ _____    ______ ____
ROOT
ATOM      1  C   UNL     1       1.537   4.379  19.665  0.00  0.00    +0.000 C 
ENDROOT
BRANCH   1   2
ATOM      2  C   UNL     1       1.994   5.601  20.454  0.00  0.00    +0.000 C 
BRANCH   2   3
ATOM      3  O   UNL     1       2.562   6.493  19.493  0.00  0.00    +0.000 OA
BRANCH   3   7
ATOM      4  C   UNL     1       0.719  10.254  19.396  0.00  0.00    +0.000 A 
ATOM      5  C   UNL     1       0.823   9.478  20.562  0.00  0.00    +0.000 A 
ATOM      6  C   UNL     1       1.443   8.226  20.548  0.00  0.00    +0.000 A 
ATOM      7  C   UNL     1       1.957   7.707  19.365  0.00  0.00    +0.000 A 
ATOM      8  C   UNL     1       1.869   8.454  18.196  0.00  0.00    +0.000 A 
ATOM      9  C   UNL     1       1.254   9.709  18.214  0.00  0.00    +0.000 A 
BRANCH   4  11
ATOM     10  C   UNL     1       1.106  12.777  19.148  0.00  0.00    +0.000 C 
ATOM     11  C   UNL     1       0.078  11.649  19.387  0.00  0.00    +0.000 C 
ATOM     12  C   UNL     1      -0.615  11.926  20.739  0.00  0.00    +0.000 C 
ATOM     13  C   UNL     1      -0.978  11.740  18.264  0.00  0.00    +0.000 C 
ENDBRANCH   4  11
ENDBRANCH   3   7
ENDBRANCH   2   3
ENDBRANCH   1   2
BRANCH   1  14
ATOM     14  C   UNL     1       1.906   3.049  20.324  0.00  0.00    +0.000 C 
BRANCH  14  15
ATOM     15  N   UNL     1       2.629   2.122  19.442  0.00  0.00    +0.000 NA
ATOM     16  C   UNL     1       2.392   2.374  18.000  0.00  0.00    +0.000 C 
ATOM     17  C   UNL     1       2.982   3.698  17.476  0.00  0.00    +0.000 C 
ATOM     18  N   UNL     1       4.422   3.749  17.762  0.00  0.00    +0.000 N 
ATOM     19  C   UNL     1       4.827   3.448  19.142  0.00  0.00    +0.000 C 
ATOM     20  C   UNL     1       4.092   2.191  19.681  0.00  0.00    +0.000 C 
BRANCH  18  21
ATOM     21  C   UNL     1       5.338   4.132  16.797  0.00  0.00    +0.000 A 
ATOM     22  C   UNL     1       4.985   4.274  15.453  0.00  0.00    +0.000 A 
ATOM     23  C   UNL     1       5.920   4.708  14.506  0.00  0.00    +0.000 A 
ATOM     24  C   UNL     1       7.208   4.978  14.934  0.00  0.00    +0.000 A 
ATOM     25  N   UNL     1       7.609   4.857  16.215  0.00  0.00    +0.000 NA
ATOM     26  C   UNL     1       6.669   4.441  17.097  0.00  0.00    +0.000 A 
ENDBRANCH  18  21
ENDBRANCH  14  15
ENDBRANCH   1  14
TORSDOF 7
ENDMDL
MODEL 3
REMARK VINA RESULT:      -7.3      5.884      7.748
REMARK  Name = 
REMARK  10 active torsions:
REMARK  status: ('A' for Active; 'I' for Inactive)
REMARK    1  A    between atoms: C_1  and  C_2
REMARK    2  A    between atoms: C_2  and  C_3
REMARK    3  A    between atoms: C_2  and  C_4
REMARK    4  A    between atoms: C_2  and  C_5
REMARK    5  A    between atoms: C_8  and  O_9
REMARK    6  A    between atoms: O_9  and  C_10
REMARK    7  A    between atoms: C_10  and  C_11
REMARK    8  A    between atoms: C_11  and  C_12
REMARK    9  A    between atoms: C_12  and  N_13
REMARK   10  A    between atoms: N_16  and  C_17
REMARK                            x       y       z     vdW  Elec       q    Type
REMARK                         _______ _______ _______ _____ _____    ______ ____
ROOT
ATOM      1  C   UNL     1       7.855   8.029  17.234  0.00  0.00    +0.000 C 
ENDROOT
BRANCH   1   2
ATOM      2  C   UNL     1       7.727   9.341  17.999  0.00  0.00    +0.000 C 
BRANCH   2   3
ATOM      3  O   UNL     1       8.997   9.555  18.619  0.00  0.00    +0.000 OA
BRANCH   3   7
ATOM      4  C   UNL     1      10.215  13.439  19.608  0.00  0.00    +0.000 A 
ATOM      5  C   UNL     1      10.411  12.333  20.451  0.00  0.00    +0.000 A 
ATOM      6  C   UNL     1       9.986  11.055  20.083  0.00  0.00    +0.000 A 
ATOM      7  C   UNL     1       9.333  10.851  18.872  0.00  0.00    +0.000 A 
ATOM      8  C   UNL     1       9.126  11.927  18.017  0.00  0.00    +0.000 A 
ATOM      9  C   UNL     1       9.560  13.204  18.386  0.00  0.00    +0.000 A 
BRANCH   4  11
ATOM     10  C   UNL     1      10.437  15.214  21.446  0.00  0.00    +0.000 C 
ATOM     11  C   UNL     1      10.705  14.849  19.969  0.00  0.00    +0.000 C 
ATOM     12  C   UNL     1       9.997  15.902  19.090  0.00  0.00    +0.000 C 
ATOM     13  C   UNL     1      12.228  14.955  19.736  0.00  0.00    +0.000 C 
ENDBRANCH   4  11
ENDBRANCH   3   7
ENDBRANCH   2   3
ENDBRANCH   1   2
BRANCH   1  14
ATOM     14  C   UNL     1       7.337   6.815  18.007  0.00  0.00    +0.000 C 
BRANCH  14  15
ATOM     15  N   UNL     1       6.674   5.807  17.169  0.00  0.00    +0.000 NA
ATOM     16  C   UNL     1       6.510   4.495  17.842  0.00  0.00    +0.000 C 
ATOM     17  C   UNL     1       5.520   4.502  19.024  0.00  0.00    +0.000 C 
ATOM     18  N   UNL     1       4.213   5.000  18.576  0.00  0.00    +0.000 N 
ATOM     19  C   UNL     1       4.215   6.263  17.824  0.00  0.00    +0.000 C 
ATOM     20  C   UNL     1       5.329   6.269  16.742  0.00  0.00    +0.000 C 
BRANCH  18  21
ATOM     21  C   UNL     1       3.038   4.349  18.909  0.00  0.00    +0.000 A 
ATOM     22  C   UNL     1       2.379   4.579  20.119  0.00  0.00    +0.000 A 
ATOM     23  C   UNL     1       1.167   3.941  20.411  0.00  0.00    +0.000 A 
ATOM     24  C   UNL     1       0.646   3.065  19.475  0.00  0.00    +0.000 A 
ATOM     25  N   UNL     1       1.237   2.800  18.293  0.00  0.00    +0.000 NA
ATOM     26  C   UNL     1       2.403   3.444  18.051  0.00  0.00    +0.000 A 
ENDBRANCH  18  21
ENDBRANCH  14  15
ENDBRANCH   1  14
TORSDOF 7
ENDMDL
MODEL 4
REMARK VINA RESULT:      -7.2      2.108      2.951
REMARK  Name = 
REMARK  10 active torsions:
REMARK  status: ('A' for Active; 'I' for Inactive)
REMARK    1  A    between atoms: C_1  and  C_2
REMARK    2  A    between atoms: C_2  and  C_3
REMARK    3  A    between atoms: C_2  and  C_4
REMARK    4  A    between atoms: C_2  and  C_5
REMARK    5  A    between atoms: C_8  and  O_9
REMARK    6  A    between atoms: O_9  and  C_10
REMARK    7  A    between atoms: C_10  and  C_11
REMARK    8  A    between atoms: C_11  and  C_12
REMARK    9  A    between atoms: C_12  and  N_13
REMARK   10  A    between atoms: N_16  and  C_17
REMARK                            x       y       z     vdW  Elec       q    Type
REMARK                         _______ _______ _______ _____ _____    ______ ____
ROOT
ATOM      1  C   UNL     1       1.993   5.849  20.773  0.00  0.00    +0.000 C 
ENDROOT
BRANCH   1   2
ATOM      2  C   UNL     1       1.567   7.274  20.441  0.00  0.00    +0.000 C 
BRANCH   2   3
ATOM      3  O   UNL     1       1.515   7.965  21.691  0.00  0.00    +0.000 OA
BRANCH   3   7
ATOM      4  C   UNL     1      -0.961  11.313  22.147  0.00  0.00    +0.000 A 
ATOM      5  C   UNL     1      -0.654  10.435  23.199  0.00  0.00    +0.000 A 
ATOM      6  C   UNL     1       0.175   9.327  23.002  0.00  0.00    +0.000 A 
ATOM      7  C   UNL     1       0.700   9.056  21.744  0.00  0.00    +0.000 A 
ATOM      8  C   UNL     1       0.413   9.909  20.684  0.00  0.00    +0.000 A 
ATOM      9  C   UNL     1      -0.410  11.020  20.886  0.00  0.00    +0.000 A 
BRANCH   4  11
ATOM     10  C   UNL     1      -1.045  13.763  22.902  0.00  0.00    +0.000 C 
ATOM     11  C   UNL     1      -1.837  12.559  22.343  0.00  0.00    +0.000 C 
ATOM     12  C   UNL     1      -2.986  12.256  23.328  0.00  0.00    +0.000 C 
ATOM     13  C   UNL     1      -2.447  12.995  20.992  0.00  0.00    +0.000 C 
ENDBRANCH   4  11
ENDBRANCH   3   7
ENDBRANCH   2   3
ENDBRANCH   1   2
BRANCH   1  14
ATOM     14  C   UNL     1       1.960   4.902  19.573  0.00  0.00    +0.000 C 
BRANCH  14  15
ATOM     15  N   UNL     1       3.114   3.997  19.488  0.00  0.00    +0.000 NA
ATOM     16  C   UNL     1       3.123   3.167  18.259  0.00  0.00    +0.000 C 
ATOM     17  C   UNL     1       3.352   3.957  16.955  0.00  0.00    +0.000 C 
ATOM     18  N   UNL     1       4.602   4.722  17.050  0.00  0.00    +0.000 N 
ATOM     19  C   UNL     1       4.778   5.544  18.255  0.00  0.00    +0.000 C 
ATOM     20  C   UNL     1       4.390   4.754  19.535  0.00  0.00    +0.000 C 
BRANCH  18  21
ATOM     21  C   UNL     1       5.530   4.723  16.023  0.00  0.00    +0.000 A 
ATOM     22  C   UNL     1       5.349   3.972  14.858  0.00  0.00    +0.000 A 
ATOM     23  C   UNL     1       6.280   4.028  13.815  0.00  0.00    +0.000 A 
ATOM     24  C   UNL     1       7.394   4.834  13.973  0.00  0.00    +0.000 A 
ATOM     25  N   UNL     1       7.624   5.579  15.073  0.00  0.00    +0.000 NA
ATOM     26  C   UNL     1       6.694   5.499  16.053  0.00  0.00    +0.000 A 
ENDBRANCH  18  21
ENDBRANCH  14  15
ENDBRANCH   1  14
TORSDOF 7
ENDMDL
MODEL 5
REMARK VINA RESULT:      -7.1      0.808      1.295
REMARK  Name = 
REMARK  10 active torsions:
REMARK  status: ('A' for Active; 'I' for Inactive)
REMARK    1  A    between atoms: C_1  and  C_2
REMARK    2  A    between atoms: C_2  and  C_3
REMARK    3  A    between atoms: C_2  and  C_4
REMARK    4  A    between atoms: C_2  and  C_5
REMARK    5  A    between atoms: C_8  and  O_9
REMARK    6  A    between atoms: O_9  and  C_10
REMARK    7  A    between atoms: C_10  and  C_11
REMARK    8  A    between atoms: C_11  and  C_12
REMARK    9  A    between atoms: C_12  and  N_13
REMARK   10  A    between atoms: N_16  and  C_17
REMARK                            x       y       z     vdW  Elec       q    Type
REMARK                         _______ _______ _______ _____ _____    ______ ____
ROOT
ATOM      1  C   UNL     1       1.502   4.478  19.808  0.00  0.00    +0.000 C 
ENDROOT
BRANCH   1   2
ATOM      2  C   UNL     1       2.050   5.689  20.553  0.00  0.00    +0.000 C 
BRANCH   2   3
ATOM      3  O   UNL     1       2.397   6.640  19.545  0.00  0.00    +0.000 OA
BRANCH   3   7
ATOM      4  C   UNL     1       0.752  10.491  19.678  0.00  0.00    +0.000 A 
ATOM      5  C   UNL     1       1.358   9.953  18.531  0.00  0.00    +0.000 A 
ATOM      6  C   UNL     1       1.898   8.664  18.532  0.00  0.00    +0.000 A 
ATOM      7  C   UNL     1       1.865   7.888  19.684  0.00  0.00    +0.000 A 
ATOM      8  C   UNL     1       1.270   8.394  20.834  0.00  0.00    +0.000 A 
ATOM      9  C   UNL     1       0.725   9.681  20.828  0.00  0.00    +0.000 A 
BRANCH   4  11
ATOM     10  C   UNL     1      -1.415  11.850  19.491  0.00  0.00    +0.000 C 
ATOM     11  C   UNL     1       0.116  11.888  19.696  0.00  0.00    +0.000 C 
ATOM     12  C   UNL     1       0.717  12.763  18.575  0.00  0.00    +0.000 C 
ATOM     13  C   UNL     1       0.384  12.574  21.054  0.00  0.00    +0.000 C 
ENDBRANCH   4  11
ENDBRANCH   3   7
ENDBRANCH   2   3
ENDBRANCH   1   2
BRANCH   1  14
ATOM     14  C   UNL     1       1.920   3.140  20.418  0.00  0.00    +0.000 C 
BRANCH  14  15
ATOM     15  N   UNL     1       2.538   2.210  19.463  0.00  0.00    +0.000 NA
ATOM     16  C   UNL     1       2.274   2.559  18.045  0.00  0.00    +0.000 C 
ATOM     17  C   UNL     1       2.949   3.860  17.571  0.00  0.00    +0.000 C 
ATOM     18  N   UNL     1       4.397   3.784  17.805  0.00  0.00    +0.000 N 
ATOM     19  C   UNL     1       4.823   3.377  19.152  0.00  0.00    +0.000 C 
ATOM     20  C   UNL     1       4.009   2.152  19.650  0.00  0.00    +0.000 C 
BRANCH  18  21
ATOM     21  C   UNL     1       5.308   4.148  16.829  0.00  0.00    +0.000 A 
ATOM     22  C   UNL     1       4.940   4.301  15.490  0.00  0.00    +0.000 A 
ATOM     23  C   UNL     1       5.872   4.716  14.531  0.00  0.00    +0.000 A 
ATOM     24  C   UNL     1       7.171   4.956  14.941  0.00  0.00    +0.000 A 
ATOM     25  N   UNL     1       7.586   4.823  16.216  0.00  0.00    +0.000 NA
ATOM     26  C   UNL     1       6.650   4.427  17.111  0.00  0.00    +0.000 A 
ENDBRANCH  18  21
ENDBRANCH  14  15
ENDBRANCH   1  14
TORSDOF 7
ENDMDL
MODEL 6
REMARK VINA RESULT:      -7.1      2.053      2.914
REMARK  Name = 
REMARK  10 active torsions:
REMARK  status: ('A' for Active; 'I' for Inactive)
REMARK    1  A    between atoms: C_1  and  C_2
REMARK    2  A    between atoms: C_2  and  C_3
REMARK    3  A    between atoms: C_2  and  C_4
REMARK    4  A    between atoms: C_2  and  C_5
REMARK    5  A    between atoms: C_8  and  O_9
REMARK    6  A    between atoms: O_9  and  C_10
REMARK    7  A    between atoms: C_10  and  C_11
REMARK    8  A    between atoms: C_11  and  C_12
REMARK    9  A    between atoms: C_12  and  N_13
REMARK   10  A    between atoms: N_16  and  C_17
REMARK                            x       y       z     vdW  Elec       q    Type
REMARK                         _______ _______ _______ _____ _____    ______ ____
ROOT
ATOM      1  C   UNL     1       1.436   5.860  20.702  0.00  0.00    +0.000 C 
ENDROOT
BRANCH   1   2
ATOM      2  C   UNL     1       1.881   7.258  21.115  0.00  0.00    +0.000 C 
BRANCH   2   3
ATOM      3  O   UNL     1       1.195   8.158  20.241  0.00  0.00    +0.000 OA
BRANCH   3   7
ATOM      4  C   UNL     1      -1.017  11.349  21.813  0.00  0.00    +0.000 A 
ATOM      5  C   UNL     1      -0.761  11.193  20.441  0.00  0.00    +0.000 A 
ATOM      6  C   UNL     1      -0.014  10.114  19.960  0.00  0.00    +0.000 A 
ATOM      7  C   UNL     1       0.513   9.176  20.839  0.00  0.00    +0.000 A 
ATOM      8  C   UNL     1       0.275   9.304  22.202  0.00  0.00    +0.000 A 
ATOM      9  C   UNL     1      -0.478  10.381  22.680  0.00  0.00    +0.000 A 
BRANCH   4  11
ATOM     10  C   UNL     1      -2.789  13.131  21.300  0.00  0.00    +0.000 C 
ATOM     11  C   UNL     1      -1.866  12.502  22.368  0.00  0.00    +0.000 C 
ATOM     12  C   UNL     1      -0.954  13.622  22.915  0.00  0.00    +0.000 C 
ATOM     13  C   UNL     1      -2.766  11.994  23.515  0.00  0.00    +0.000 C 
ENDBRANCH   4  11
ENDBRANCH   3   7
ENDBRANCH   2   3
ENDBRANCH   1   2
BRANCH   1  14
ATOM     14  C   UNL     1       2.596   4.900  20.435  0.00  0.00    +0.000 C 
BRANCH  14  15
ATOM     15  N   UNL     1       2.437   4.085  19.223  0.00  0.00    +0.000 NA
ATOM     16  C   UNL     1       2.312   4.891  17.983  0.00  0.00    +0.000 C 
ATOM     17  C   UNL     1       3.592   5.652  17.584  0.00  0.00    +0.000 C 
ATOM     18  N   UNL     1       4.712   4.711  17.458  0.00  0.00    +0.000 N 
ATOM     19  C   UNL     1       4.923   3.788  18.581  0.00  0.00    +0.000 C 
ATOM     20  C   UNL     1       3.583   3.158  19.049  0.00  0.00    +0.000 C 
BRANCH  18  21
ATOM     21  C   UNL     1       5.565   4.745  16.368  0.00  0.00    +0.000 A 
ATOM     22  C   UNL     1       5.293   4.048  15.189  0.00  0.00    +0.000 A 
ATOM     23  C   UNL     1       6.150   4.137  14.086  0.00  0.00    +0.000 A 
ATOM     24  C   UNL     1       7.283   4.924  14.199  0.00  0.00    +0.000 A 
ATOM     25  N   UNL     1       7.601   5.618  15.310  0.00  0.00    +0.000 NA
ATOM     26  C   UNL     1       6.740   5.507  16.349  0.00  0.00    +0.000 A 
ENDBRANCH  18  21
ENDBRANCH  14  15
ENDBRANCH   1  14
TORSDOF 7
ENDMDL
MODEL 7
REMARK VINA RESULT:      -7.1      7.095     10.089
REMARK  Name = 
REMARK  10 active torsions:
REMARK  status: ('A' for Active; 'I' for Inactive)
REMARK    1  A    between atoms: C_1  and  C_2
REMARK    2  A    between atoms: C_2  and  C_3
REMARK    3  A    between atoms: C_2  and  C_4
REMARK    4  A    between atoms: C_2  and  C_5
REMARK    5  A    between atoms: C_8  and  O_9
REMARK    6  A    between atoms: O_9  and  C_10
REMARK    7  A    between atoms: C_10  and  C_11
REMARK    8  A    between atoms: C_11  and  C_12
REMARK    9  A    between atoms: C_12  and  N_13
REMARK   10  A    between atoms: N_16  and  C_17
REMARK                            x       y       z     vdW  Elec       q    Type
REMARK                         _______ _______ _______ _____ _____    ______ ____
ROOT
ATOM      1  C   UNL     1       8.532   9.662  18.139  0.00  0.00    +0.000 C 
ENDROOT
BRANCH   1   2
ATOM      2  C   UNL     1       8.429   8.162  18.387  0.00  0.00    +0.000 C 
BRANCH   2   3
ATOM      3  O   UNL     1       7.648   7.643  17.308  0.00  0.00    +0.000 OA
BRANCH   3   7
ATOM      4  C   UNL     1       4.453   5.049  18.091  0.00  0.00    +0.000 A 
ATOM      5  C   UNL     1       4.410   6.045  17.101  0.00  0.00    +0.000 A 
ATOM      6  C   UNL     1       5.499   6.891  16.876  0.00  0.00    +0.000 A 
ATOM      7  C   UNL     1       6.649   6.780  17.648  0.00  0.00    +0.000 A 
ATOM      8  C   UNL     1       6.720   5.802  18.633  0.00  0.00    +0.000 A 
ATOM      9  C   UNL     1       5.632   4.951  18.851  0.00  0.00    +0.000 A 
BRANCH   4  11
ATOM     10  C   UNL     1       3.394   3.348  19.692  0.00  0.00    +0.000 C 
ATOM     11  C   UNL     1       3.288   4.079  18.335  0.00  0.00    +0.000 C 
ATOM     12  C   UNL     1       3.246   3.004  17.227  0.00  0.00    +0.000 C 
ATOM     13  C   UNL     1       1.948   4.847  18.328  0.00  0.00    +0.000 C 
ENDBRANCH   4  11
ENDBRANCH   3   7
ENDBRANCH   2   3
ENDBRANCH   1   2
BRANCH   1  14
ATOM     14  C   UNL     1       9.192  10.430  19.285  0.00  0.00    +0.000 C 
BRANCH  14  15
ATOM     15  N   UNL     1      10.540  10.928  18.977  0.00  0.00    +0.000 NA
ATOM     16  C   UNL     1      10.614  11.675  17.697  0.00  0.00    +0.000 C 
ATOM     17  C   UNL     1       9.864  13.021  17.698  0.00  0.00    +0.000 C 
ATOM     18  N   UNL     1      10.354  13.864  18.797  0.00  0.00    +0.000 N 
ATOM     19  C   UNL     1      10.411  13.240  20.126  0.00  0.00    +0.000 C 
ATOM     20  C   UNL     1      11.037  11.821  20.053  0.00  0.00    +0.000 C 
BRANCH  18  21
ATOM     21  C   UNL     1      10.675  15.196  18.600  0.00  0.00    +0.000 A 
ATOM     22  C   UNL     1      10.852  16.083  19.664  0.00  0.00    +0.000 A 
ATOM     23  C   UNL     1      11.222  17.414  19.437  0.00  0.00    +0.000 A 
ATOM     24  C   UNL     1      11.395  17.832  18.129  0.00  0.00    +0.000 A 
ATOM     25  N   UNL     1      11.237  17.024  17.062  0.00  0.00    +0.000 NA
ATOM     26  C   UNL     1      10.885  15.744  17.329  0.00  0.00    +0.000 A 
ENDBRANCH  18  21
ENDBRANCH  14  15
ENDBRANCH   1  14
TORSDOF 7
ENDMDL
MODEL 8
REMARK VINA RESULT:      -7.1      5.961      7.802
REMARK  Name = 
REMARK  10 active torsions:
REMARK  status: ('A' for Active; 'I' for Inactive)
REMARK    1  A    between atoms: C_1  and  C_2
REMARK    2  A    between atoms: C_2  and  C_3
REMARK    3  A    between atoms: C_2  and  C_4
REMARK    4  A    between atoms: C_2  and  C_5
REMARK    5  A    between atoms: C_8  and  O_9
REMARK    6  A    between atoms: O_9  and  C_10
REMARK    7  A    between atoms: C_10  and  C_11
REMARK    8  A    between atoms: C_11  and  C_12
REMARK    9  A    between atoms: C_12  and  N_13
REMARK   10  A    between atoms: N_16  and  C_17
REMARK                            x       y       z     vdW  Elec       q    Type
REMARK                         _______ _______ _______ _____ _____    ______ ____
ROOT
ATOM      1  C   UNL     1       7.881   8.563  17.668  0.00  0.00    +0.000 C 
ENDROOT
BRANCH   1   2
ATOM      2  C   UNL     1       8.629   9.452  18.654  0.00  0.00    +0.000 C 
BRANCH   2   3
ATOM      3  O   UNL     1       9.401  10.352  17.856  0.00  0.00    +0.000 OA
BRANCH   3   7
ATOM      4  C   UNL     1       9.980  14.163  19.498  0.00  0.00    +0.000 A 
ATOM      5  C   UNL     1      10.399  12.981  20.130  0.00  0.00    +0.000 A 
ATOM      6  C   UNL     1      10.182  11.730  19.548  0.00  0.00    +0.000 A 
ATOM      7  C   UNL     1       9.522  11.624  18.330  0.00  0.00    +0.000 A 
ATOM      8  C   UNL     1       9.097  12.777  17.679  0.00  0.00    +0.000 A 
ATOM      9  C   UNL     1       9.322  14.028  18.261  0.00  0.00    +0.000 A 
BRANCH   4  11
ATOM     10  C   UNL     1      11.361  16.319  19.358  0.00  0.00    +0.000 C 
ATOM     11  C   UNL     1      10.238  15.554  20.094  0.00  0.00    +0.000 C 
ATOM     12  C   UNL     1      10.648  15.431  21.577  0.00  0.00    +0.000 C 
ATOM     13  C   UNL     1       8.958  16.414  20.005  0.00  0.00    +0.000 C 
ENDBRANCH   4  11
ENDBRANCH   3   7
ENDBRANCH   2   3
ENDBRANCH   1   2
BRANCH   1  14
ATOM     14  C   UNL     1       7.870   7.084  18.059  0.00  0.00    +0.000 C 
BRANCH  14  15
ATOM     15  N   UNL     1       7.303   6.195  17.036  0.00  0.00    +0.000 NA
ATOM     16  C   UNL     1       7.243   4.774  17.458  0.00  0.00    +0.000 C 
ATOM     17  C   UNL     1       6.244   4.485  18.595  0.00  0.00    +0.000 C 
ATOM     18  N   UNL     1       4.904   4.948  18.210  0.00  0.00    +0.000 N 
ATOM     19  C   UNL     1       4.808   6.323  17.699  0.00  0.00    +0.000 C 
ATOM     20  C   UNL     1       5.929   6.617  16.666  0.00  0.00    +0.000 C 
BRANCH  18  21
ATOM     21  C   UNL     1       3.785   4.154  18.390  0.00  0.00    +0.000 A 
ATOM     22  C   UNL     1       3.388   3.705  19.652  0.00  0.00    +0.000 A 
ATOM     23  C   UNL     1       2.225   2.942  19.811  0.00  0.00    +0.000 A 
ATOM     24  C   UNL     1       1.487   2.630  18.682  0.00  0.00    +0.000 A 
ATOM     25  N   UNL     1       1.821   3.032  17.440  0.00  0.00    +0.000 NA
ATOM     26  C   UNL     1       2.949   3.773  17.335  0.00  0.00    +0.000 A 
ENDBRANCH  18  21
ENDBRANCH  14  15
ENDBRANCH   1  14
TORSDOF 7
ENDMDL
MODEL 9
REMARK VINA RESULT:      -7.1      5.698      7.574
REMARK  Name = 
REMARK  10 active torsions:
REMARK  status: ('A' for Active; 'I' for Inactive)
REMARK    1  A    between atoms: C_1  and  C_2
REMARK    2  A    between atoms: C_2  and  C_3
REMARK    3  A    between atoms: C_2  and  C_4
REMARK    4  A    between atoms: C_2  and  C_5
REMARK    5  A    between atoms: C_8  and  O_9
REMARK    6  A    between atoms: O_9  and  C_10
REMARK    7  A    between atoms: C_10  and  C_11
REMARK    8  A    between atoms: C_11  and  C_12
REMARK    9  A    between atoms: C_12  and  N_13
REMARK   10  A    between atoms: N_16  and  C_17
REMARK                            x       y       z     vdW  Elec       q    Type
REMARK                         _______ _______ _______ _____ _____    ______ ____
ROOT
ATOM      1  C   UNL     1       6.947   7.698  17.839  0.00  0.00    +0.000 C 
ENDROOT
BRANCH   1   2
ATOM      2  C   UNL     1       7.797   8.950  17.657  0.00  0.00    +0.000 C 
BRANCH   2   3
ATOM      3  O   UNL     1       8.669   8.996  18.788  0.00  0.00    +0.000 OA
BRANCH   3   7
ATOM      4  C   UNL     1      10.251  12.824  19.417  0.00  0.00    +0.000 A 
ATOM      5  C   UNL     1       9.816  12.368  18.162  0.00  0.00    +0.000 A 
ATOM      6  C   UNL     1       9.297  11.081  17.996  0.00  0.00    +0.000 A 
ATOM      7  C   UNL     1       9.220  10.209  19.075  0.00  0.00    +0.000 A 
ATOM      8  C   UNL     1       9.642  10.633  20.330  0.00  0.00    +0.000 A 
ATOM      9  C   UNL     1      10.154  11.924  20.494  0.00  0.00    +0.000 A 
BRANCH   4  11
ATOM     10  C   UNL     1      10.385  14.829  21.010  0.00  0.00    +0.000 C 
ATOM     11  C   UNL     1      10.789  14.245  19.638  0.00  0.00    +0.000 C 
ATOM     12  C   UNL     1      10.250  15.195  18.547  0.00  0.00    +0.000 C 
ATOM     13  C   UNL     1      12.332  14.243  19.573  0.00  0.00    +0.000 C 
ENDBRANCH   4  11
ENDBRANCH   3   7
ENDBRANCH   2   3
ENDBRANCH   1   2
BRANCH   1  14
ATOM     14  C   UNL     1       7.339   6.549  16.909  0.00  0.00    +0.000 C 
BRANCH  14  15
ATOM     15  N   UNL     1       7.316   5.225  17.546  0.00  0.00    +0.000 NA
ATOM     16  C   UNL     1       6.723   5.234  18.905  0.00  0.00    +0.000 C 
ATOM     17  C   UNL     1       5.212   5.534  18.942  0.00  0.00    +0.000 C 
ATOM     18  N   UNL     1       4.493   4.577  18.091  0.00  0.00    +0.000 N 
ATOM     19  C   UNL     1       5.009   4.398  16.726  0.00  0.00    +0.000 C 
ATOM     20  C   UNL     1       6.554   4.251  16.725  0.00  0.00    +0.000 C 
BRANCH  18  21
ATOM     21  C   UNL     1       3.350   3.934  18.531  0.00  0.00    +0.000 A 
ATOM     22  C   UNL     1       3.162   3.586  19.871  0.00  0.00    +0.000 A 
ATOM     23  C   UNL     1       1.975   2.978  20.297  0.00  0.00    +0.000 A 
ATOM     24  C   UNL     1       0.997   2.718  19.353  0.00  0.00    +0.000 A 
ATOM     25  N   UNL     1       1.121   3.028  18.047  0.00  0.00    +0.000 NA
ATOM     26  C   UNL     1       2.282   3.620  17.682  0.00  0.00    +0.000 A 
ENDBRANCH  18  21
ENDBRANCH  14  15
ENDBRANCH   1  14
TORSDOF 7
ENDMDL
