MODEL 1
REMARK VINA RESULT:      -7.8      0.000      0.000
REMARK  Name = 
REMARK  4 active torsions:
REMARK  status: ('A' for Active; 'I' for Inactive)
REMARK    1  A    between atoms: C_2  and  C_3
REMARK    2  A    between atoms: C_10  and  C_11
REMARK    3  A    between atoms: C_11  and  O_12
REMARK    4  A    between atoms: C_11  and  C_13
REMARK                            x       y       z     vdW  Elec       q    Type
REMARK                         _______ _______ _______ _____ _____    ______ ____
ROOT
ATOM      1  C   UNL     1       4.648   3.303  18.315  0.00  0.00    +0.000 C 
ENDROOT
BRANCH   1   2
ATOM      2  C   UNL     1       5.389   4.144  17.278  0.00  0.00    +0.000 A 
ATOM      3  C   UNL     1       5.056   4.056  15.922  0.00  0.00    +0.000 A 
ATOM      4  C   UNL     1       5.600   4.963  15.034  0.00  0.00    +0.000 A 
ATOM      5  N   UNL     1       6.437   5.957  15.390  0.00  0.00    +0.000 NA
ATOM      6  C   UNL     1       6.805   6.032  16.674  0.00  0.00    +0.000 A 
ATOM      7  C   UNL     1       7.631   7.081  17.057  0.00  0.00    +0.000 A 
ATOM      8  C   UNL     1       8.093   7.218  18.368  0.00  0.00    +0.000 A 
ATOM      9  C   UNL     1       7.772   6.254  19.309  0.00  0.00    +0.000 A 
ATOM     10  C   UNL     1       6.927   5.203  18.958  0.00  0.00    +0.000 A 
ATOM     11  C   UNL     1       6.373   5.103  17.660  0.00  0.00    +0.000 A 
ENDBRANCH   1   2
BRANCH   1  19
ATOM     12  C   UNL     1       1.338   5.092  20.639  0.00  0.00    +0.000 C 
ATOM     13  C   UNL     1       2.515   4.345  21.325  0.00  0.00    +0.000 C 
ATOM     14  N   UNL     1       3.139   3.342  20.422  0.00  0.00    +0.000 NA
ATOM     15  C   UNL     1       2.129   2.309  20.089  0.00  0.00    +0.000 C 
ATOM     16  C   UNL     1       0.837   2.930  19.533  0.00  0.00    +0.000 C 
ATOM     17  C   UNL     1       1.083   4.426  19.259  0.00  0.00    +0.000 C 
ATOM     18  C   UNL     1       2.341   4.496  18.364  0.00  0.00    +0.000 C 
ATOM     19  C   UNL     1       3.580   4.058  19.188  0.00  0.00    +0.000 C 
BRANCH  12  21
ATOM     20  C   UNL     1       1.014   7.498  21.326  0.00  0.00    +0.000 C 
ATOM     21  C   UNL     1       1.573   6.581  20.522  0.00  0.00    +0.000 C 
ENDBRANCH  12  21
ENDBRANCH   1  19
BRANCH   1  22
ATOM     22  O   UNL     1       4.024   2.203  17.645  0.00  0.00    +0.000 OA
ATOM     23  H   UNL     1       4.722   1.724  17.168  0.00  0.00    +0.000 HD
ENDBRANCH   1  22
TORSDOF 4
ENDMDL
MODEL 2
REMARK VINA RESULT:      -7.6      1.214      5.795
REMARK  Name = 
REMARK  4 active torsions:
REMARK  status: ('A' for Active; 'I' for Inactive)
REMARK    1  A    between atoms: C_2  and  C_3
REMARK    2  A    between atoms: C_10  and  C_11
REMARK    3  A    between atoms: C_11  and  O_12
REMARK    4  A    between atoms: C_11  and  C_13
REMARK                            x       y       z     vdW  Elec       q    Type
REMARK                         _______ _______ _______ _____ _____    ______ ____
ROOT
ATOM      1  C   UNL     1       3.718   3.629  17.473  0.00  0.00    +0.000 C 
ENDROOT
BRANCH   1   2
ATOM      2  C   UNL     1       2.832   3.859  18.696  0.00  0.00    +0.000 A 
ATOM      3  C   UNL     1       2.468   2.789  19.520  0.00  0.00    +0.000 A 
ATOM      4  C   UNL     1       1.835   3.048  20.721  0.00  0.00    +0.000 A 
ATOM      5  N   UNL     1       1.549   4.285  21.169  0.00  0.00    +0.000 NA
ATOM      6  C   UNL     1       1.847   5.321  20.376  0.00  0.00    +0.000 A 
ATOM      7  C   UNL     1       1.597   6.602  20.851  0.00  0.00    +0.000 A 
ATOM      8  C   UNL     1       1.845   7.739  20.079  0.00  0.00    +0.000 A 
ATOM      9  C   UNL     1       2.298   7.595  18.778  0.00  0.00    +0.000 A 
ATOM     10  C   UNL     1       2.578   6.324  18.283  0.00  0.00    +0.000 A 
ATOM     11  C   UNL     1       2.425   5.168  19.086  0.00  0.00    +0.000 A 
ENDBRANCH   1   2
BRANCH   1  19
ATOM     12  C   UNL     1       7.109   6.289  16.484  0.00  0.00    +0.000 C 
ATOM     13  C   UNL     1       5.662   6.588  16.005  0.00  0.00    +0.000 C 
ATOM     14  N   UNL     1       4.845   5.351  15.897  0.00  0.00    +0.000 NA
ATOM     15  C   UNL     1       5.450   4.470  14.870  0.00  0.00    +0.000 C 
ATOM     16  C   UNL     1       6.940   4.211  15.143  0.00  0.00    +0.000 C 
ATOM     17  C   UNL     1       7.289   4.747  16.545  0.00  0.00    +0.000 C 
ATOM     18  C   UNL     1       6.271   4.104  17.515  0.00  0.00    +0.000 C 
ATOM     19  C   UNL     1       4.860   4.683  17.233  0.00  0.00    +0.000 C 
BRANCH  12  21
ATOM     20  C   UNL     1       7.968   8.187  17.908  0.00  0.00    +0.000 C 
ATOM     21  C   UNL     1       7.444   6.957  17.800  0.00  0.00    +0.000 C 
ENDBRANCH  12  21
ENDBRANCH   1  19
BRANCH   1  22
ATOM     22  O   UNL     1       4.290   2.320  17.567  0.00  0.00    +0.000 OA
ATOM     23  H   UNL     1       4.389   1.984  16.660  0.00  0.00    +0.000 HD
ENDBRANCH   1  22
TORSDOF 4
ENDMDL
MODEL 3
REMARK VINA RESULT:      -7.5      1.814      6.315
REMARK  Name = 
REMARK  4 active torsions:
REMARK  status: ('A' for Active; 'I' for Inactive)
REMARK    1  A    between atoms: C_2  and  C_3
REMARK    2  A    between atoms: C_10  and  C_11
REMARK    3  A    between atoms: C_11  and  O_12
REMARK    4  A    between atoms: C_11  and  C_13
REMARK                            x       y       z     vdW  Elec       q    Type
REMARK                         _______ _______ _______ _____ _____    ______ ____
ROOT
ATOM      1  C   UNL     1       5.650   4.101  18.737  0.00  0.00    +0.000 C 
ENDROOT
BRANCH   1   2
ATOM      2  C   UNL     1       4.272   4.583  19.189  0.00  0.00    +0.000 A 
ATOM      3  C   UNL     1       4.061   5.926  19.518  0.00  0.00    +0.000 A 
ATOM      4  C   UNL     1       2.772   6.373  19.731  0.00  0.00    +0.000 A 
ATOM      5  N   UNL     1       1.678   5.594  19.631  0.00  0.00    +0.000 NA
ATOM      6  C   UNL     1       1.860   4.295  19.362  0.00  0.00    +0.000 A 
ATOM      7  C   UNL     1       0.734   3.496  19.212  0.00  0.00    +0.000 A 
ATOM      8  C   UNL     1       0.829   2.124  18.964  0.00  0.00    +0.000 A 
ATOM      9  C   UNL     1       2.076   1.523  18.925  0.00  0.00    +0.000 A 
ATOM     10  C   UNL     1       3.222   2.304  19.051  0.00  0.00    +0.000 A 
ATOM     11  C   UNL     1       3.145   3.709  19.204  0.00  0.00    +0.000 A 
ENDBRANCH   1   2
BRANCH   1  19
ATOM     12  C   UNL     1       6.346   5.009  14.466  0.00  0.00    +0.000 C 
ATOM     13  C   UNL     1       7.476   5.122  15.525  0.00  0.00    +0.000 C 
ATOM     14  N   UNL     1       6.938   5.380  16.887  0.00  0.00    +0.000 NA
ATOM     15  C   UNL     1       6.240   6.688  16.883  0.00  0.00    +0.000 C 
ATOM     16  C   UNL     1       5.184   6.770  15.769  0.00  0.00    +0.000 C 
ATOM     17  C   UNL     1       5.001   5.368  15.154  0.00  0.00    +0.000 C 
ATOM     18  C   UNL     1       4.708   4.417  16.338  0.00  0.00    +0.000 C 
ATOM     19  C   UNL     1       5.983   4.279  17.211  0.00  0.00    +0.000 C 
BRANCH  12  21
ATOM     20  C   UNL     1       5.820   3.443  12.559  0.00  0.00    +0.000 C 
ATOM     21  C   UNL     1       6.302   3.655  13.793  0.00  0.00    +0.000 C 
ENDBRANCH  12  21
ENDBRANCH   1  19
BRANCH   1  22
ATOM     22  O   UNL     1       6.643   4.768  19.523  0.00  0.00    +0.000 OA
ATOM     23  H   UNL     1       7.508   4.549  19.138  0.00  0.00    +0.000 HD
ENDBRANCH   1  22
TORSDOF 4
ENDMDL
MODEL 4
REMARK VINA RESULT:      -7.5      2.120      3.449
REMARK  Name = 
REMARK  4 active torsions:
REMARK  status: ('A' for Active; 'I' for Inactive)
REMARK    1  A    between atoms: C_2  and  C_3
REMARK    2  A    between atoms: C_10  and  C_11
REMARK    3  A    between atoms: C_11  and  O_12
REMARK    4  A    between atoms: C_11  and  C_13
REMARK                            x       y       z     vdW  Elec       q    Type
REMARK                         _______ _______ _______ _____ _____    ______ ____
ROOT
ATOM      1  C   UNL     1       3.567   5.824  17.496  0.00  0.00    +0.000 C 
ENDROOT
BRANCH   1   2
ATOM      2  C   UNL     1       4.988   6.095  17.006  0.00  0.00    +0.000 A 
ATOM      3  C   UNL     1       5.857   6.897  17.754  0.00  0.00    +0.000 A 
ATOM      4  C   UNL     1       7.189   6.966  17.395  0.00  0.00    +0.000 A 
ATOM      5  N   UNL     1       7.725   6.291  16.360  0.00  0.00    +0.000 NA
ATOM      6  C   UNL     1       6.904   5.553  15.603  0.00  0.00    +0.000 A 
ATOM      7  C   UNL     1       7.458   4.818  14.563  0.00  0.00    +0.000 A 
ATOM      8  C   UNL     1       6.673   4.048  13.702  0.00  0.00    +0.000 A 
ATOM      9  C   UNL     1       5.295   4.057  13.842  0.00  0.00    +0.000 A 
ATOM     10  C   UNL     1       4.714   4.768  14.891  0.00  0.00    +0.000 A 
ATOM     11  C   UNL     1       5.503   5.474  15.830  0.00  0.00    +0.000 A 
ENDBRANCH   1   2
BRANCH   1  19
ATOM     12  C   UNL     1       2.964   2.349  20.162  0.00  0.00    +0.000 C 
ATOM     13  C   UNL     1       4.381   2.836  19.753  0.00  0.00    +0.000 C 
ATOM     14  N   UNL     1       4.369   3.552  18.451  0.00  0.00    +0.000 NA
ATOM     15  C   UNL     1       3.932   2.609  17.394  0.00  0.00    +0.000 C 
ATOM     16  C   UNL     1       2.598   1.933  17.745  0.00  0.00    +0.000 C 
ATOM     17  C   UNL     1       1.996   2.632  18.980  0.00  0.00    +0.000 C 
ATOM     18  C   UNL     1       1.956   4.139  18.641  0.00  0.00    +0.000 C 
ATOM     19  C   UNL     1       3.406   4.687  18.569  0.00  0.00    +0.000 C 
BRANCH  12  21
ATOM     20  C   UNL     1       1.251   2.783  21.963  0.00  0.00    +0.000 C 
ATOM     21  C   UNL     1       2.481   2.962  21.457  0.00  0.00    +0.000 C 
ENDBRANCH  12  21
ENDBRANCH   1  19
BRANCH   1  22
ATOM     22  O   UNL     1       3.024   7.046  18.009  0.00  0.00    +0.000 OA
ATOM     23  H   UNL     1       3.560   7.296  18.779  0.00  0.00    +0.000 HD
ENDBRANCH   1  22
TORSDOF 4
ENDMDL
MODEL 5
REMARK VINA RESULT:      -7.3      1.166      1.933
REMARK  Name = 
REMARK  4 active torsions:
REMARK  status: ('A' for Active; 'I' for Inactive)
REMARK    1  A    between atoms: C_2  and  C_3
REMARK    2  A    between atoms: C_10  and  C_11
REMARK    3  A    between atoms: C_11  and  O_12
REMARK    4  A    between atoms: C_11  and  C_13
REMARK                            x       y       z     vdW  Elec       q    Type
REMARK                         _______ _______ _______ _____ _____    ______ ____
ROOT
ATOM      1  C   UNL     1       4.820   2.970  17.874  0.00  0.00    +0.000 C 
ENDROOT
BRANCH   1   2
ATOM      2  C   UNL     1       5.350   4.149  17.060  0.00  0.00    +0.000 A 
ATOM      3  C   UNL     1       4.810   4.445  15.804  0.00  0.00    +0.000 A 
ATOM      4  C   UNL     1       5.167   5.624  15.178  0.00  0.00    +0.000 A 
ATOM      5  N   UNL     1       6.006   6.533  15.707  0.00  0.00    +0.000 NA
ATOM      6  C   UNL     1       6.571   6.249  16.887  0.00  0.00    +0.000 A 
ATOM      7  C   UNL     1       7.402   7.203  17.461  0.00  0.00    +0.000 A 
ATOM      8  C   UNL     1       8.059   6.979  18.673  0.00  0.00    +0.000 A 
ATOM      9  C   UNL     1       7.933   5.750  19.300  0.00  0.00    +0.000 A 
ATOM     10  C   UNL     1       7.089   4.783  18.758  0.00  0.00    +0.000 A 
ATOM     11  C   UNL     1       6.340   5.031  17.583  0.00  0.00    +0.000 A 
ENDBRANCH   1   2
BRANCH   1  19
ATOM     12  C   UNL     1       1.241   4.175  20.174  0.00  0.00    +0.000 C 
ATOM     13  C   UNL     1       1.213   2.989  19.171  0.00  0.00    +0.000 C 
ATOM     14  N   UNL     1       2.244   3.135  18.110  0.00  0.00    +0.000 NA
ATOM     15  C   UNL     1       1.946   4.353  17.321  0.00  0.00    +0.000 C 
ATOM     16  C   UNL     1       1.795   5.593  18.217  0.00  0.00    +0.000 C 
ATOM     17  C   UNL     1       2.249   5.232  19.645  0.00  0.00    +0.000 C 
ATOM     18  C   UNL     1       3.666   4.630  19.504  0.00  0.00    +0.000 C 
ATOM     19  C   UNL     1       3.571   3.260  18.784  0.00  0.00    +0.000 C 
BRANCH  12  21
ATOM     20  C   UNL     1       1.789   2.474  21.955  0.00  0.00    +0.000 C 
ATOM     21  C   UNL     1       1.555   3.743  21.589  0.00  0.00    +0.000 C 
ENDBRANCH  12  21
ENDBRANCH   1  19
BRANCH   1  22
ATOM     22  O   UNL     1       4.517   1.898  16.975  0.00  0.00    +0.000 OA
ATOM     23  H   UNL     1       5.343   1.663  16.520  0.00  0.00    +0.000 HD
ENDBRANCH   1  22
TORSDOF 4
ENDMDL
MODEL 6
REMARK VINA RESULT:      -7.2      2.754      6.029
REMARK  Name = 
REMARK  4 active torsions:
REMARK  status: ('A' for Active; 'I' for Inactive)
REMARK    1  A    between atoms: C_2  and  C_3
REMARK    2  A    between atoms: C_10  and  C_11
REMARK    3  A    between atoms: C_11  and  O_12
REMARK    4  A    between atoms: C_11  and  C_13
REMARK                            x       y       z     vdW  Elec       q    Type
REMARK                         _______ _______ _______ _____ _____    ______ ____
ROOT
ATOM      1  C   UNL     1       1.947   6.201  19.762  0.00  0.00    +0.000 C 
ENDROOT
BRANCH   1   2
ATOM      2  C   UNL     1       1.862   7.689  19.428  0.00  0.00    +0.000 A 
ATOM      3  C   UNL     1       2.364   8.176  18.216  0.00  0.00    +0.000 A 
ATOM      4  C   UNL     1       2.100   9.482  17.853  0.00  0.00    +0.000 A 
ATOM      5  N   UNL     1       1.367  10.336  18.593  0.00  0.00    +0.000 NA
ATOM      6  C   UNL     1       0.916   9.906  19.777  0.00  0.00    +0.000 A 
ATOM      7  C   UNL     1       0.121  10.766  20.524  0.00  0.00    +0.000 A 
ATOM      8  C   UNL     1      -0.367  10.414  21.785  0.00  0.00    +0.000 A 
ATOM      9  C   UNL     1      -0.004   9.199  22.342  0.00  0.00    +0.000 A 
ATOM     10  C   UNL     1       0.775   8.308  21.606  0.00  0.00    +0.000 A 
ATOM     11  C   UNL     1       1.195   8.610  20.288  0.00  0.00    +0.000 A 
ENDBRANCH   1   2
BRANCH   1  19
ATOM     12  C   UNL     1       4.286   3.400  17.264  0.00  0.00    +0.000 C 
ATOM     13  C   UNL     1       2.735   3.455  17.206  0.00  0.00    +0.000 C 
ATOM     14  N   UNL     1       2.148   3.959  18.476  0.00  0.00    +0.000 NA
ATOM     15  C   UNL     1       2.491   3.016  19.566  0.00  0.00    +0.000 C 
ATOM     16  C   UNL     1       4.003   2.751  19.640  0.00  0.00    +0.000 C 
ATOM     17  C   UNL     1       4.728   3.746  18.713  0.00  0.00    +0.000 C 
ATOM     18  C   UNL     1       4.236   5.152  19.126  0.00  0.00    +0.000 C 
ATOM     19  C   UNL     1       2.741   5.304  18.743  0.00  0.00    +0.000 C 
BRANCH  12  21
ATOM     20  C   UNL     1       5.993   3.926  15.482  0.00  0.00    +0.000 C 
ATOM     21  C   UNL     1       4.946   4.292  16.236  0.00  0.00    +0.000 C 
ENDBRANCH  12  21
ENDBRANCH   1  19
BRANCH   1  22
ATOM     22  O   UNL     1       2.519   6.061  21.067  0.00  0.00    +0.000 OA
ATOM     23  H   UNL     1       1.783   5.988  21.697  0.00  0.00    +0.000 HD
ENDBRANCH   1  22
TORSDOF 4
ENDMDL
MODEL 7
REMARK VINA RESULT:      -7.0      2.033      6.208
REMARK  Name = 
REMARK  4 active torsions:
REMARK  status: ('A' for Active; 'I' for Inactive)
REMARK    1  A    between atoms: C_2  and  C_3
REMARK    2  A    between atoms: C_10  and  C_11
REMARK    3  A    between atoms: C_11  and  O_12
REMARK    4  A    between atoms: C_11  and  C_13
REMARK                            x       y       z     vdW  Elec       q    Type
REMARK                         _______ _______ _______ _____ _____    ______ ____
ROOT
ATOM      1  C   UNL     1       3.705   6.079  18.520  0.00  0.00    +0.000 C 
ENDROOT
BRANCH   1   2
ATOM      2  C   UNL     1       2.517   5.119  18.504  0.00  0.00    +0.000 A 
ATOM      3  C   UNL     1       1.793   4.904  17.326  0.00  0.00    +0.000 A 
ATOM      4  C   UNL     1       0.855   3.891  17.287  0.00  0.00    +0.000 A 
ATOM      5  N   UNL     1       0.590   3.070  18.321  0.00  0.00    +0.000 NA
ATOM      6  C   UNL     1       1.237   3.287  19.473  0.00  0.00    +0.000 A 
ATOM      7  C   UNL     1       1.003   2.416  20.528  0.00  0.00    +0.000 A 
ATOM      8  C   UNL     1       1.609   2.586  21.776  0.00  0.00    +0.000 A 
ATOM      9  C   UNL     1       2.422   3.685  21.995  0.00  0.00    +0.000 A 
ATOM     10  C   UNL     1       2.692   4.563  20.947  0.00  0.00    +0.000 A 
ATOM     11  C   UNL     1       2.164   4.350  19.651  0.00  0.00    +0.000 A 
ENDBRANCH   1   2
BRANCH   1  19
ATOM     12  C   UNL     1       7.457   5.184  16.359  0.00  0.00    +0.000 C 
ATOM     13  C   UNL     1       6.770   4.139  17.281  0.00  0.00    +0.000 C 
ATOM     14  N   UNL     1       5.944   4.786  18.334  0.00  0.00    +0.000 NA
ATOM     15  C   UNL     1       6.831   5.592  19.207  0.00  0.00    +0.000 C 
ATOM     16  C   UNL     1       7.691   6.575  18.397  0.00  0.00    +0.000 C 
ATOM     17  C   UNL     1       7.184   6.597  16.942  0.00  0.00    +0.000 C 
ATOM     18  C   UNL     1       5.667   6.884  17.021  0.00  0.00    +0.000 C 
ATOM     19  C   UNL     1       4.947   5.663  17.650  0.00  0.00    +0.000 C 
BRANCH  12  21
ATOM     20  C   UNL     1       6.192   4.126  14.450  0.00  0.00    +0.000 C 
ATOM     21  C   UNL     1       7.027   5.067  14.913  0.00  0.00    +0.000 C 
ENDBRANCH  12  21
ENDBRANCH   1  19
BRANCH   1  22
ATOM     22  O   UNL     1       3.248   7.373  18.111  0.00  0.00    +0.000 OA
ATOM     23  H   UNL     1       3.623   8.019  18.733  0.00  0.00    +0.000 HD
ENDBRANCH   1  22
TORSDOF 4
ENDMDL
MODEL 8
REMARK VINA RESULT:      -6.9      1.402      5.730
REMARK  Name = 
REMARK  4 active torsions:
REMARK  status: ('A' for Active; 'I' for Inactive)
REMARK    1  A    between atoms: C_2  and  C_3
REMARK    2  A    between atoms: C_10  and  C_11
REMARK    3  A    between atoms: C_11  and  O_12
REMARK    4  A    between atoms: C_11  and  C_13
REMARK                            x       y       z     vdW  Elec       q    Type
REMARK                         _______ _______ _______ _____ _____    ______ ____
ROOT
ATOM      1  C   UNL     1       4.745   3.128  18.232  0.00  0.00    +0.000 C 
ENDROOT
BRANCH   1   2
ATOM      2  C   UNL     1       3.242   3.180  18.497  0.00  0.00    +0.000 A 
ATOM      3  C   UNL     1       2.422   2.100  18.155  0.00  0.00    +0.000 A 
ATOM      4  C   UNL     1       1.108   2.089  18.581  0.00  0.00    +0.000 A 
ATOM      5  N   UNL     1       0.551   3.061  19.329  0.00  0.00    +0.000 NA
ATOM      6  C   UNL     1       1.304   4.126  19.629  0.00  0.00    +0.000 A 
ATOM      7  C   UNL     1       0.751   5.110  20.438  0.00  0.00    +0.000 A 
ATOM      8  C   UNL     1       1.451   6.271  20.774  0.00  0.00    +0.000 A 
ATOM      9  C   UNL     1       2.711   6.486  20.242  0.00  0.00    +0.000 A 
ATOM     10  C   UNL     1       3.299   5.506  19.445  0.00  0.00    +0.000 A 
ATOM     11  C   UNL     1       2.642   4.281  19.176  0.00  0.00    +0.000 A 
ENDBRANCH   1   2
BRANCH   1  19
ATOM     12  C   UNL     1       6.789   6.640  16.490  0.00  0.00    +0.000 C 
ATOM     13  C   UNL     1       5.245   6.479  16.440  0.00  0.00    +0.000 C 
ATOM     14  N   UNL     1       4.833   5.052  16.497  0.00  0.00    +0.000 NA
ATOM     15  C   UNL     1       5.362   4.355  15.301  0.00  0.00    +0.000 C 
ATOM     16  C   UNL     1       6.877   4.561  15.142  0.00  0.00    +0.000 C 
ATOM     17  C   UNL     1       7.425   5.225  16.421  0.00  0.00    +0.000 C 
ATOM     18  C   UNL     1       6.951   4.342  17.598  0.00  0.00    +0.000 C 
ATOM     19  C   UNL     1       5.412   4.465  17.743  0.00  0.00    +0.000 C 
BRANCH  12  21
ATOM     20  C   UNL     1       7.858   8.622  17.628  0.00  0.00    +0.000 C 
ATOM     21  C   UNL     1       7.262   7.422  17.695  0.00  0.00    +0.000 C 
ENDBRANCH  12  21
ENDBRANCH   1  19
BRANCH   1  22
ATOM     22  O   UNL     1       5.400   2.675  19.422  0.00  0.00    +0.000 OA
ATOM     23  H   UNL     1       6.345   2.881  19.325  0.00  0.00    +0.000 HD
ENDBRANCH   1  22
TORSDOF 4
ENDMDL
MODEL 9
REMARK VINA RESULT:      -6.9      2.018      6.005
REMARK  Name = 
REMARK  4 active torsions:
REMARK  status: ('A' for Active; 'I' for Inactive)
REMARK    1  A    between atoms: C_2  and  C_3
REMARK    2  A    between atoms: C_10  and  C_11
REMARK    3  A    between atoms: C_11  and  O_12
REMARK    4  A    between atoms: C_11  and  C_13
REMARK                            x       y       z     vdW  Elec       q    Type
REMARK                         _______ _______ _______ _____ _____    ______ ____
ROOT
ATOM      1  C   UNL     1       3.075   5.295  17.522  0.00  0.00    +0.000 C 
ENDROOT
BRANCH   1   2
ATOM      2  C   UNL     1       2.338   5.884  18.724  0.00  0.00    +0.000 A 
ATOM      3  C   UNL     1       2.077   5.099  19.852  0.00  0.00    +0.000 A 
ATOM      4  C   UNL     1       1.589   5.702  20.995  0.00  0.00    +0.000 A 
ATOM      5  N   UNL     1       1.354   7.024  21.107  0.00  0.00    +0.000 NA
ATOM      6  C   UNL     1       1.554   7.787  20.026  0.00  0.00    +0.000 A 
ATOM      7  C   UNL     1       1.357   9.157  20.148  0.00  0.00    +0.000 A 
ATOM      8  C   UNL     1       1.509  10.025  19.064  0.00  0.00    +0.000 A 
ATOM      9  C   UNL     1       1.806   9.510  17.813  0.00  0.00    +0.000 A 
ATOM     10  C   UNL     1       2.030   8.142  17.667  0.00  0.00    +0.000 A 
ATOM     11  C   UNL     1       1.975   7.262  18.774  0.00  0.00    +0.000 A 
ENDBRANCH   1   2
BRANCH   1  19
ATOM     12  C   UNL     1       7.471   5.519  17.109  0.00  0.00    +0.000 C 
ATOM     13  C   UNL     1       6.590   6.793  17.213  0.00  0.00    +0.000 C 
ATOM     14  N   UNL     1       5.202   6.550  16.736  0.00  0.00    +0.000 NA
ATOM     15  C   UNL     1       5.249   6.193  15.299  0.00  0.00    +0.000 C 
ATOM     16  C   UNL     1       6.215   5.028  15.029  0.00  0.00    +0.000 C 
ATOM     17  C   UNL     1       6.651   4.422  16.377  0.00  0.00    +0.000 C 
ATOM     18  C   UNL     1       5.347   4.097  17.142  0.00  0.00    +0.000 C 
ATOM     19  C   UNL     1       4.642   5.421  17.537  0.00  0.00    +0.000 C 
BRANCH  12  21
ATOM     20  C   UNL     1       7.799   5.706  19.604  0.00  0.00    +0.000 C 
ATOM     21  C   UNL     1       7.988   5.048  18.450  0.00  0.00    +0.000 C 
ENDBRANCH  12  21
ENDBRANCH   1  19
BRANCH   1  22
ATOM     22  O   UNL     1       2.708   3.917  17.396  0.00  0.00    +0.000 OA
ATOM     23  H   UNL     1       2.466   3.603  18.283  0.00  0.00    +0.000 HD
ENDBRANCH   1  22
TORSDOF 4
ENDMDL
