MODEL 1
REMARK VINA RESULT:      -9.3      0.000      0.000
REMARK  Name = 
REMARK  10 active torsions:
REMARK  status: ('A' for Active; 'I' for Inactive)
REMARK    1  A    between atoms: O_1  and  C_2
REMARK    2  A    between atoms: C_2  and  C_3
REMARK    3  A    between atoms: C_2  and  C_31
REMARK    4  A    between atoms: C_3  and  N_4
REMARK    5  A    between atoms: N_4  and  C_5
REMARK    6  A    between atoms: N_4  and  C_18
REMARK    7  A    between atoms: C_5  and  C_6
REMARK    8  A    between atoms: C_10  and  C_11
REMARK    9  A    between atoms: C_22  and  O_23
REMARK   10  A    between atoms: O_23  and  C_24
REMARK                            x       y       z     vdW  Elec       q    Type
REMARK                         _______ _______ _______ _____ _____    ______ ____
ROOT
ATOM      1  N   UNL     1       2.920   6.773  18.227  0.00  0.00    +0.000 N 
ENDROOT
BRANCH   1   2
ATOM      2  C   UNL     1       2.104   7.683  18.951  0.00  0.00    +0.000 A 
ATOM      3  C   UNL     1       1.842   7.457  20.311  0.00  0.00    +0.000 A 
ATOM      4  C   UNL     1       1.072   8.355  21.062  0.00  0.00    +0.000 A 
ATOM      5  C   UNL     1       0.522   9.485  20.461  0.00  0.00    +0.000 A 
ATOM      6  C   UNL     1       0.724   9.707  19.102  0.00  0.00    +0.000 A 
ATOM      7  C   UNL     1       1.535   8.830  18.371  0.00  0.00    +0.000 A 
BRANCH   6   8
ATOM      8  O   UNL     1       0.146  10.836  18.562  0.00  0.00    +0.000 OA
BRANCH   8   9
ATOM      9  C   UNL     1      -1.207  10.841  18.296  0.00  0.00    +0.000 A 
ATOM     10  C   UNL     1      -2.113  11.738  18.871  0.00  0.00    +0.000 A 
ATOM     11  C   UNL     1      -3.472  11.658  18.563  0.00  0.00    +0.000 A 
ATOM     12  C   UNL     1      -3.923  10.718  17.638  0.00  0.00    +0.000 A 
ATOM     13  C   UNL     1      -3.014   9.858  17.019  0.00  0.00    +0.000 A 
ATOM     14  C   UNL     1      -1.659   9.918  17.349  0.00  0.00    +0.000 A 
ENDBRANCH   8   9
ENDBRANCH   6   8
ENDBRANCH   1   2
BRANCH   1  15
ATOM     15  C   UNL     1       3.076   5.429  18.856  0.00  0.00    +0.000 C 
BRANCH  15  16
ATOM     16  C   UNL     1       2.196   4.397  18.144  0.00  0.00    +0.000 C 
BRANCH  16  17
ATOM     17  C   UNL     1       3.087   3.277  17.573  0.00  0.00    +0.000 C 
ATOM     18  F   UNL     1       4.057   2.888  18.427  0.00  0.00    +0.000 F 
ATOM     19  F   UNL     1       2.338   2.181  17.292  0.00  0.00    +0.000 F 
ATOM     20  F   UNL     1       3.694   3.637  16.418  0.00  0.00    +0.000 F 
ENDBRANCH  16  17
BRANCH  16  21
ATOM     21  O   UNL     1       1.201   3.925  19.081  0.00  0.00    +0.000 OA
ATOM     22  H   UNL     1       1.684   3.324  19.687  0.00  0.00    +0.000 HD
ENDBRANCH  16  21
ENDBRANCH  15  16
ENDBRANCH   1  15
BRANCH   1  23
ATOM     23  C   UNL     1       4.202   7.409  17.794  0.00  0.00    +0.000 C 
BRANCH  23  24
ATOM     24  C   UNL     1       5.311   6.412  17.511  0.00  0.00    +0.000 A 
ATOM     25  C   UNL     1       6.051   5.808  18.528  0.00  0.00    +0.000 A 
ATOM     26  C   UNL     1       7.038   4.872  18.221  0.00  0.00    +0.000 A 
ATOM     27  C   UNL     1       7.297   4.518  16.892  0.00  0.00    +0.000 A 
ATOM     28  C   UNL     1       6.602   5.117  15.827  0.00  0.00    +0.000 A 
ATOM     29  C   UNL     1       5.639   6.096  16.175  0.00  0.00    +0.000 A 
BRANCH  28  30
ATOM     30  C   UNL     1       6.795   4.721  14.404  0.00  0.00    +0.000 A 
ATOM     31  C   UNL     1       6.087   3.713  13.769  0.00  0.00    +0.000 A 
ATOM     32  C   UNL     1       6.331   3.526  12.429  0.00  0.00    +0.000 A 
ATOM     33  N   UNL     1       7.213   4.252  11.722  0.00  0.00    +0.000 NA
ATOM     34  C   UNL     1       7.865   5.193  12.414  0.00  0.00    +0.000 A 
ATOM     35  N   UNL     1       7.698   5.461  13.719  0.00  0.00    +0.000 NA
ENDBRANCH  28  30
ENDBRANCH  23  24
ENDBRANCH   1  23
TORSDOF 10
ENDMDL
MODEL 2
REMARK VINA RESULT:      -9.3      0.098      1.044
REMARK  Name = 
REMARK  10 active torsions:
REMARK  status: ('A' for Active; 'I' for Inactive)
REMARK    1  A    between atoms: O_1  and  C_2
REMARK    2  A    between atoms: C_2  and  C_3
REMARK    3  A    between atoms: C_2  and  C_31
REMARK    4  A    between atoms: C_3  and  N_4
REMARK    5  A    between atoms: N_4  and  C_5
REMARK    6  A    between atoms: N_4  and  C_18
REMARK    7  A    between atoms: C_5  and  C_6
REMARK    8  A    between atoms: C_10  and  C_11
REMARK    9  A    between atoms: C_22  and  O_23
REMARK   10  A    between atoms: O_23  and  C_24
REMARK                            x       y       z     vdW  Elec       q    Type
REMARK                         _______ _______ _______ _____ _____    ______ ____
ROOT
ATOM      1  N   UNL     1       2.837   6.795  18.222  0.00  0.00    +0.000 N 
ENDROOT
BRANCH   1   2
ATOM      2  C   UNL     1       2.067   7.707  18.992  0.00  0.00    +0.000 A 
ATOM      3  C   UNL     1       1.880   7.480  20.365  0.00  0.00    +0.000 A 
ATOM      4  C   UNL     1       1.158   8.380  21.159  0.00  0.00    +0.000 A 
ATOM      5  C   UNL     1       0.582   9.515  20.592  0.00  0.00    +0.000 A 
ATOM      6  C   UNL     1       0.710   9.738  19.225  0.00  0.00    +0.000 A 
ATOM      7  C   UNL     1       1.473   8.859  18.447  0.00  0.00    +0.000 A 
BRANCH   6   8
ATOM      8  O   UNL     1       0.108  10.872  18.719  0.00  0.00    +0.000 OA
BRANCH   8   9
ATOM      9  C   UNL     1      -1.197  10.806  18.278  0.00  0.00    +0.000 A 
ATOM     10  C   UNL     1      -1.643   9.927  17.286  0.00  0.00    +0.000 A 
ATOM     11  C   UNL     1      -2.979   9.942  16.883  0.00  0.00    +0.000 A 
ATOM     12  C   UNL     1      -3.886  10.796  17.508  0.00  0.00    +0.000 A 
ATOM     13  C   UNL     1      -3.456  11.635  18.537  0.00  0.00    +0.000 A 
ATOM     14  C   UNL     1      -2.114  11.641  18.921  0.00  0.00    +0.000 A 
ENDBRANCH   8   9
ENDBRANCH   6   8
ENDBRANCH   1   2
BRANCH   1  15
ATOM     15  C   UNL     1       3.021   5.449  18.839  0.00  0.00    +0.000 C 
BRANCH  15  16
ATOM     16  C   UNL     1       2.157   4.406  18.122  0.00  0.00    +0.000 C 
BRANCH  16  17
ATOM     17  C   UNL     1       3.066   3.298  17.554  0.00  0.00    +0.000 C 
ATOM     18  F   UNL     1       2.410   2.137  17.341  0.00  0.00    +0.000 F 
ATOM     19  F   UNL     1       3.589   3.686  16.364  0.00  0.00    +0.000 F 
ATOM     20  F   UNL     1       4.113   3.021  18.365  0.00  0.00    +0.000 F 
ENDBRANCH  16  17
BRANCH  16  21
ATOM     21  O   UNL     1       1.165   3.920  19.055  0.00  0.00    +0.000 OA
ATOM     22  H   UNL     1       0.380   4.492  18.917  0.00  0.00    +0.000 HD
ENDBRANCH  16  21
ENDBRANCH  15  16
ENDBRANCH   1  15
BRANCH   1  23
ATOM     23  C   UNL     1       4.095   7.425  17.718  0.00  0.00    +0.000 C 
BRANCH  23  24
ATOM     24  C   UNL     1       5.216   6.432  17.468  0.00  0.00    +0.000 A 
ATOM     25  C   UNL     1       5.931   5.834  18.506  0.00  0.00    +0.000 A 
ATOM     26  C   UNL     1       6.930   4.901  18.228  0.00  0.00    +0.000 A 
ATOM     27  C   UNL     1       7.224   4.544  16.908  0.00  0.00    +0.000 A 
ATOM     28  C   UNL     1       6.555   5.136  15.823  0.00  0.00    +0.000 A 
ATOM     29  C   UNL     1       5.579   6.113  16.142  0.00  0.00    +0.000 A 
BRANCH  28  30
ATOM     30  C   UNL     1       6.787   4.736  14.406  0.00  0.00    +0.000 A 
ATOM     31  C   UNL     1       6.078   3.745  13.746  0.00  0.00    +0.000 A 
ATOM     32  C   UNL     1       6.363   3.553  12.416  0.00  0.00    +0.000 A 
ATOM     33  N   UNL     1       7.285   4.260  11.740  0.00  0.00    +0.000 NA
ATOM     34  C   UNL     1       7.934   5.184  12.454  0.00  0.00    +0.000 A 
ATOM     35  N   UNL     1       7.729   5.457  13.753  0.00  0.00    +0.000 NA
ENDBRANCH  28  30
ENDBRANCH  23  24
ENDBRANCH   1  23
TORSDOF 10
ENDMDL
MODEL 3
REMARK VINA RESULT:      -8.8      0.537      1.036
REMARK  Name = 
REMARK  10 active torsions:
REMARK  status: ('A' for Active; 'I' for Inactive)
REMARK    1  A    between atoms: O_1  and  C_2
REMARK    2  A    between atoms: C_2  and  C_3
REMARK    3  A    between atoms: C_2  and  C_31
REMARK    4  A    between atoms: C_3  and  N_4
REMARK    5  A    between atoms: N_4  and  C_5
REMARK    6  A    between atoms: N_4  and  C_18
REMARK    7  A    between atoms: C_5  and  C_6
REMARK    8  A    between atoms: C_10  and  C_11
REMARK    9  A    between atoms: C_22  and  O_23
REMARK   10  A    between atoms: O_23  and  C_24
REMARK                            x       y       z     vdW  Elec       q    Type
REMARK                         _______ _______ _______ _____ _____    ______ ____
ROOT
ATOM      1  N   UNL     1       3.017   6.766  18.197  0.00  0.00    +0.000 N 
ENDROOT
BRANCH   1   2
ATOM      2  C   UNL     1       2.190   7.680  18.903  0.00  0.00    +0.000 A 
ATOM      3  C   UNL     1       1.917   7.469  20.263  0.00  0.00    +0.000 A 
ATOM      4  C   UNL     1       1.136   8.371  20.997  0.00  0.00    +0.000 A 
ATOM      5  C   UNL     1       0.586   9.492  20.378  0.00  0.00    +0.000 A 
ATOM      6  C   UNL     1       0.799   9.699  19.019  0.00  0.00    +0.000 A 
ATOM      7  C   UNL     1       1.620   8.818  18.304  0.00  0.00    +0.000 A 
BRANCH   6   8
ATOM      8  O   UNL     1       0.219  10.818  18.460  0.00  0.00    +0.000 OA
BRANCH   8   9
ATOM      9  C   UNL     1      -1.142  10.836  18.239  0.00  0.00    +0.000 A 
ATOM     10  C   UNL     1      -2.021  11.737  18.847  0.00  0.00    +0.000 A 
ATOM     11  C   UNL     1      -3.390  11.670  18.583  0.00  0.00    +0.000 A 
ATOM     12  C   UNL     1      -3.879  10.739  17.668  0.00  0.00    +0.000 A 
ATOM     13  C   UNL     1      -2.998   9.876  17.016  0.00  0.00    +0.000 A 
ATOM     14  C   UNL     1      -1.631   9.922  17.302  0.00  0.00    +0.000 A 
ENDBRANCH   8   9
ENDBRANCH   6   8
ENDBRANCH   1   2
BRANCH   1  15
ATOM     15  C   UNL     1       3.168   5.428  18.838  0.00  0.00    +0.000 C 
BRANCH  15  16
ATOM     16  C   UNL     1       2.258   4.400  18.159  0.00  0.00    +0.000 C 
BRANCH  16  17
ATOM     17  C   UNL     1       3.122   3.283  17.544  0.00  0.00    +0.000 C 
ATOM     18  F   UNL     1       2.426   2.151  17.302  0.00  0.00    +0.000 F 
ATOM     19  F   UNL     1       3.643   3.693  16.360  0.00  0.00    +0.000 F 
ATOM     20  F   UNL     1       4.170   2.945  18.332  0.00  0.00    +0.000 F 
ENDBRANCH  16  17
BRANCH  16  21
ATOM     21  O   UNL     1       1.304   3.923  19.137  0.00  0.00    +0.000 OA
ATOM     22  H   UNL     1       1.754   3.179  19.592  0.00  0.00    +0.000 HD
ENDBRANCH  16  21
ENDBRANCH  15  16
ENDBRANCH   1  15
BRANCH   1  23
ATOM     23  C   UNL     1       4.302   7.402  17.774  0.00  0.00    +0.000 C 
BRANCH  23  24
ATOM     24  C   UNL     1       5.390   6.402  17.425  0.00  0.00    +0.000 A 
ATOM     25  C   UNL     1       6.193   5.801  18.395  0.00  0.00    +0.000 A 
ATOM     26  C   UNL     1       7.157   4.862  18.031  0.00  0.00    +0.000 A 
ATOM     27  C   UNL     1       7.330   4.502  16.689  0.00  0.00    +0.000 A 
ATOM     28  C   UNL     1       6.569   5.097  15.668  0.00  0.00    +0.000 A 
ATOM     29  C   UNL     1       5.632   6.079  16.072  0.00  0.00    +0.000 A 
BRANCH  28  30
ATOM     30  C   UNL     1       6.671   4.694  14.237  0.00  0.00    +0.000 A 
ATOM     31  C   UNL     1       7.622   5.178  13.353  0.00  0.00    +0.000 A 
ATOM     32  C   UNL     1       7.628   4.645  12.087  0.00  0.00    +0.000 A 
ATOM     33  N   UNL     1       6.766   3.703  11.669  0.00  0.00    +0.000 NA
ATOM     34  C   UNL     1       5.871   3.303  12.579  0.00  0.00    +0.000 A 
ATOM     35  N   UNL     1       5.783   3.753  13.841  0.00  0.00    +0.000 NA
ENDBRANCH  28  30
ENDBRANCH  23  24
ENDBRANCH   1  23
TORSDOF 10
ENDMDL
MODEL 4
REMARK VINA RESULT:      -8.8      1.809      2.250
REMARK  Name = 
REMARK  10 active torsions:
REMARK  status: ('A' for Active; 'I' for Inactive)
REMARK    1  A    between atoms: O_1  and  C_2
REMARK    2  A    between atoms: C_2  and  C_3
REMARK    3  A    between atoms: C_2  and  C_31
REMARK    4  A    between atoms: C_3  and  N_4
REMARK    5  A    between atoms: N_4  and  C_5
REMARK    6  A    between atoms: N_4  and  C_18
REMARK    7  A    between atoms: C_5  and  C_6
REMARK    8  A    between atoms: C_10  and  C_11
REMARK    9  A    between atoms: C_22  and  O_23
REMARK   10  A    between atoms: O_23  and  C_24
REMARK                            x       y       z     vdW  Elec       q    Type
REMARK                         _______ _______ _______ _____ _____    ______ ____
ROOT
ATOM      1  N   UNL     1       2.868   4.902  18.556  0.00  0.00    +0.000 N 
ENDROOT
BRANCH   1   2
ATOM      2  C   UNL     1       2.416   6.149  19.063  0.00  0.00    +0.000 A 
ATOM      3  C   UNL     1       2.037   6.260  20.410  0.00  0.00    +0.000 A 
ATOM      4  C   UNL     1       1.622   7.484  20.951  0.00  0.00    +0.000 A 
ATOM      5  C   UNL     1       1.551   8.621  20.148  0.00  0.00    +0.000 A 
ATOM      6  C   UNL     1       1.874   8.528  18.798  0.00  0.00    +0.000 A 
ATOM      7  C   UNL     1       2.333   7.312  18.277  0.00  0.00    +0.000 A 
BRANCH   6   8
ATOM      8  O   UNL     1       1.773   9.684  18.052  0.00  0.00    +0.000 OA
BRANCH   8   9
ATOM      9  C   UNL     1       0.656  10.480  18.187  0.00  0.00    +0.000 A 
ATOM     10  C   UNL     1       0.687  11.797  18.657  0.00  0.00    +0.000 A 
ATOM     11  C   UNL     1      -0.496  12.526  18.784  0.00  0.00    +0.000 A 
ATOM     12  C   UNL     1      -1.709  11.961  18.390  0.00  0.00    +0.000 A 
ATOM     13  C   UNL     1      -1.737  10.668  17.868  0.00  0.00    +0.000 A 
ATOM     14  C   UNL     1      -0.557   9.927  17.768  0.00  0.00    +0.000 A 
ENDBRANCH   8   9
ENDBRANCH   6   8
ENDBRANCH   1   2
BRANCH   1  15
ATOM     15  C   UNL     1       1.858   3.805  18.589  0.00  0.00    +0.000 C 
BRANCH  15  16
ATOM     16  C   UNL     1       2.329   2.668  19.502  0.00  0.00    +0.000 C 
BRANCH  16  17
ATOM     17  C   UNL     1       1.702   2.846  20.899  0.00  0.00    +0.000 C 
ATOM     18  F   UNL     1       1.467   1.672  21.524  0.00  0.00    +0.000 F 
ATOM     19  F   UNL     1       2.532   3.564  21.697  0.00  0.00    +0.000 F 
ATOM     20  F   UNL     1       0.528   3.517  20.858  0.00  0.00    +0.000 F 
ENDBRANCH  16  17
BRANCH  16  21
ATOM     21  O   UNL     1       1.992   1.411  18.872  0.00  0.00    +0.000 OA
ATOM     22  H   UNL     1       2.848   1.036  18.575  0.00  0.00    +0.000 HD
ENDBRANCH  16  21
ENDBRANCH  15  16
ENDBRANCH   1  15
BRANCH   1  23
ATOM     23  C   UNL     1       4.206   4.534  19.113  0.00  0.00    +0.000 C 
BRANCH  23  24
ATOM     24  C   UNL     1       5.372   5.117  18.334  0.00  0.00    +0.000 A 
ATOM     25  C   UNL     1       6.322   5.950  18.924  0.00  0.00    +0.000 A 
ATOM     26  C   UNL     1       7.396   6.435  18.177  0.00  0.00    +0.000 A 
ATOM     27  C   UNL     1       7.540   6.089  16.829  0.00  0.00    +0.000 A 
ATOM     28  C   UNL     1       6.595   5.278  16.177  0.00  0.00    +0.000 A 
ATOM     29  C   UNL     1       5.495   4.841  16.956  0.00  0.00    +0.000 A 
BRANCH  28  30
ATOM     30  C   UNL     1       6.745   4.828  14.764  0.00  0.00    +0.000 A 
ATOM     31  C   UNL     1       5.945   3.872  14.158  0.00  0.00    +0.000 A 
ATOM     32  C   UNL     1       6.165   3.628  12.823  0.00  0.00    +0.000 A 
ATOM     33  N   UNL     1       7.106   4.252  12.095  0.00  0.00    +0.000 NA
ATOM     34  C   UNL     1       7.844   5.147  12.760  0.00  0.00    +0.000 A 
ATOM     35  N   UNL     1       7.708   5.464  14.058  0.00  0.00    +0.000 NA
ENDBRANCH  28  30
ENDBRANCH  23  24
ENDBRANCH   1  23
TORSDOF 10
ENDMDL
MODEL 5
REMARK VINA RESULT:      -8.8      2.959      8.620
REMARK  Name = 
REMARK  10 active torsions:
REMARK  status: ('A' for Active; 'I' for Inactive)
REMARK    1  A    between atoms: O_1  and  C_2
REMARK    2  A    between atoms: C_2  and  C_3
REMARK    3  A    between atoms: C_2  and  C_31
REMARK    4  A    between atoms: C_3  and  N_4
REMARK    5  A    between atoms: N_4  and  C_5
REMARK    6  A    between atoms: N_4  and  C_18
REMARK    7  A    between atoms: C_5  and  C_6
REMARK    8  A    between atoms: C_10  and  C_11
REMARK    9  A    between atoms: C_22  and  O_23
REMARK   10  A    between atoms: O_23  and  C_24
REMARK                            x       y       z     vdW  Elec       q    Type
REMARK                         _______ _______ _______ _____ _____    ______ ____
ROOT
ATOM      1  N   UNL     1       3.320   5.814  18.350  0.00  0.00    +0.000 N 
ENDROOT
BRANCH   1   2
ATOM      2  C   UNL     1       4.711   5.647  18.119  0.00  0.00    +0.000 A 
ATOM      3  C   UNL     1       5.557   5.284  19.178  0.00  0.00    +0.000 A 
ATOM      4  C   UNL     1       6.928   5.076  18.975  0.00  0.00    +0.000 A 
ATOM      5  C   UNL     1       7.488   5.253  17.711  0.00  0.00    +0.000 A 
ATOM      6  C   UNL     1       6.680   5.661  16.654  0.00  0.00    +0.000 A 
ATOM      7  C   UNL     1       5.304   5.821  16.856  0.00  0.00    +0.000 A 
BRANCH   6   8
ATOM      8  O   UNL     1       7.293   5.831  15.431  0.00  0.00    +0.000 OA
BRANCH   8   9
ATOM      9  C   UNL     1       6.916   5.036  14.369  0.00  0.00    +0.000 A 
ATOM     10  C   UNL     1       5.804   4.188  14.383  0.00  0.00    +0.000 A 
ATOM     11  C   UNL     1       5.507   3.400  13.271  0.00  0.00    +0.000 A 
ATOM     12  C   UNL     1       6.287   3.497  12.119  0.00  0.00    +0.000 A 
ATOM     13  C   UNL     1       7.364   4.383  12.081  0.00  0.00    +0.000 A 
ATOM     14  C   UNL     1       7.679   5.151  13.204  0.00  0.00    +0.000 A 
ENDBRANCH   8   9
ENDBRANCH   6   8
ENDBRANCH   1   2
BRANCH   1  15
ATOM     15  C   UNL     1       2.461   4.696  17.862  0.00  0.00    +0.000 C 
BRANCH  15  16
ATOM     16  C   UNL     1       2.697   3.433  18.697  0.00  0.00    +0.000 C 
BRANCH  16  17
ATOM     17  C   UNL     1       1.844   3.505  19.979  0.00  0.00    +0.000 C 
ATOM     18  F   UNL     1       1.495   2.288  20.448  0.00  0.00    +0.000 F 
ATOM     19  F   UNL     1       2.534   4.131  20.965  0.00  0.00    +0.000 F 
ATOM     20  F   UNL     1       0.700   4.207  19.801  0.00  0.00    +0.000 F 
ENDBRANCH  16  17
BRANCH  16  21
ATOM     21  O   UNL     1       2.405   2.282  17.871  0.00  0.00    +0.000 OA
ATOM     22  H   UNL     1       1.530   2.471  17.468  0.00  0.00    +0.000 HD
ENDBRANCH  16  21
ENDBRANCH  15  16
ENDBRANCH   1  15
BRANCH   1  23
ATOM     23  C   UNL     1       2.854   7.176  17.948  0.00  0.00    +0.000 C 
BRANCH  23  24
ATOM     24  C   UNL     1       2.069   7.896  19.031  0.00  0.00    +0.000 A 
ATOM     25  C   UNL     1       1.839   7.332  20.286  0.00  0.00    +0.000 A 
ATOM     26  C   UNL     1       1.141   8.045  21.262  0.00  0.00    +0.000 A 
ATOM     27  C   UNL     1       0.669   9.336  21.000  0.00  0.00    +0.000 A 
ATOM     28  C   UNL     1       0.848   9.940  19.743  0.00  0.00    +0.000 A 
ATOM     29  C   UNL     1       1.521   9.168  18.764  0.00  0.00    +0.000 A 
BRANCH  28  30
ATOM     30  C   UNL     1       0.424  11.337  19.443  0.00  0.00    +0.000 A 
ATOM     31  C   UNL     1       1.257  12.312  18.918  0.00  0.00    +0.000 A 
ATOM     32  C   UNL     1       0.689  13.529  18.626  0.00  0.00    +0.000 A 
ATOM     33  N   UNL     1      -0.608  13.815  18.830  0.00  0.00    +0.000 NA
ATOM     34  C   UNL     1      -1.338  12.825  19.353  0.00  0.00    +0.000 A 
ATOM     35  N   UNL     1      -0.884  11.601  19.668  0.00  0.00    +0.000 NA
ENDBRANCH  28  30
ENDBRANCH  23  24
ENDBRANCH   1  23
TORSDOF 10
ENDMDL
MODEL 6
REMARK VINA RESULT:      -8.8      2.593      3.162
REMARK  Name = 
REMARK  10 active torsions:
REMARK  status: ('A' for Active; 'I' for Inactive)
REMARK    1  A    between atoms: O_1  and  C_2
REMARK    2  A    between atoms: C_2  and  C_3
REMARK    3  A    between atoms: C_2  and  C_31
REMARK    4  A    between atoms: C_3  and  N_4
REMARK    5  A    between atoms: N_4  and  C_5
REMARK    6  A    between atoms: N_4  and  C_18
REMARK    7  A    between atoms: C_5  and  C_6
REMARK    8  A    between atoms: C_10  and  C_11
REMARK    9  A    between atoms: C_22  and  O_23
REMARK   10  A    between atoms: O_23  and  C_24
REMARK                            x       y       z     vdW  Elec       q    Type
REMARK                         _______ _______ _______ _____ _____    ______ ____
ROOT
ATOM      1  N   UNL     1       2.799   4.799  18.524  0.00  0.00    +0.000 N 
ENDROOT
BRANCH   1   2
ATOM      2  C   UNL     1       2.464   6.144  18.834  0.00  0.00    +0.000 A 
ATOM      3  C   UNL     1       2.421   7.107  17.813  0.00  0.00    +0.000 A 
ATOM      4  C   UNL     1       2.058   8.433  18.080  0.00  0.00    +0.000 A 
ATOM      5  C   UNL     1       1.755   8.833  19.380  0.00  0.00    +0.000 A 
ATOM      6  C   UNL     1       1.837   7.910  20.418  0.00  0.00    +0.000 A 
ATOM      7  C   UNL     1       2.155   6.577  20.136  0.00  0.00    +0.000 A 
BRANCH   6   8
ATOM      8  O   UNL     1       1.537   8.368  21.684  0.00  0.00    +0.000 OA
BRANCH   8   9
ATOM      9  C   UNL     1       0.730   9.476  21.829  0.00  0.00    +0.000 A 
ATOM     10  C   UNL     1       0.743  10.572  20.960  0.00  0.00    +0.000 A 
ATOM     11  C   UNL     1      -0.092  11.665  21.195  0.00  0.00    +0.000 A 
ATOM     12  C   UNL     1      -0.984  11.643  22.266  0.00  0.00    +0.000 A 
ATOM     13  C   UNL     1      -1.041  10.527  23.102  0.00  0.00    +0.000 A 
ATOM     14  C   UNL     1      -0.184   9.446  22.886  0.00  0.00    +0.000 A 
ENDBRANCH   8   9
ENDBRANCH   6   8
ENDBRANCH   1   2
BRANCH   1  15
ATOM     15  C   UNL     1       1.730   3.800  18.813  0.00  0.00    +0.000 C 
BRANCH  15  16
ATOM     16  C   UNL     1       2.280   2.656  19.670  0.00  0.00    +0.000 C 
BRANCH  16  17
ATOM     17  C   UNL     1       1.776   2.816  21.117  0.00  0.00    +0.000 C 
ATOM     18  F   UNL     1       2.230   1.849  21.943  0.00  0.00    +0.000 F 
ATOM     19  F   UNL     1       2.187   4.004  21.628  0.00  0.00    +0.000 F 
ATOM     20  F   UNL     1       0.425   2.806  21.199  0.00  0.00    +0.000 F 
ENDBRANCH  16  17
BRANCH  16  21
ATOM     21  O   UNL     1       1.893   1.404  19.057  0.00  0.00    +0.000 OA
ATOM     22  H   UNL     1       1.107   1.103  19.561  0.00  0.00    +0.000 HD
ENDBRANCH  16  21
ENDBRANCH  15  16
ENDBRANCH   1  15
BRANCH   1  23
ATOM     23  C   UNL     1       4.150   4.434  19.050  0.00  0.00    +0.000 C 
BRANCH  23  24
ATOM     24  C   UNL     1       5.295   5.062  18.275  0.00  0.00    +0.000 A 
ATOM     25  C   UNL     1       6.205   5.938  18.866  0.00  0.00    +0.000 A 
ATOM     26  C   UNL     1       7.262   6.464  18.122  0.00  0.00    +0.000 A 
ATOM     27  C   UNL     1       7.430   6.116  16.777  0.00  0.00    +0.000 A 
ATOM     28  C   UNL     1       6.526   5.260  16.125  0.00  0.00    +0.000 A 
ATOM     29  C   UNL     1       5.440   4.782  16.899  0.00  0.00    +0.000 A 
BRANCH  28  30
ATOM     30  C   UNL     1       6.705   4.807  14.716  0.00  0.00    +0.000 A 
ATOM     31  C   UNL     1       5.933   3.834  14.103  0.00  0.00    +0.000 A 
ATOM     32  C   UNL     1       6.177   3.589  12.772  0.00  0.00    +0.000 A 
ATOM     33  N   UNL     1       7.116   4.228  12.055  0.00  0.00    +0.000 NA
ATOM     34  C   UNL     1       7.826   5.140  12.727  0.00  0.00    +0.000 A 
ATOM     35  N   UNL     1       7.665   5.460  14.021  0.00  0.00    +0.000 NA
ENDBRANCH  28  30
ENDBRANCH  23  24
ENDBRANCH   1  23
TORSDOF 10
ENDMDL
MODEL 7
REMARK VINA RESULT:      -8.7      3.012      8.658
REMARK  Name = 
REMARK  10 active torsions:
REMARK  status: ('A' for Active; 'I' for Inactive)
REMARK    1  A    between atoms: O_1  and  C_2
REMARK    2  A    between atoms: C_2  and  C_3
REMARK    3  A    between atoms: C_2  and  C_31
REMARK    4  A    between atoms: C_3  and  N_4
REMARK    5  A    between atoms: N_4  and  C_5
REMARK    6  A    between atoms: N_4  and  C_18
REMARK    7  A    between atoms: C_5  and  C_6
REMARK    8  A    between atoms: C_10  and  C_11
REMARK    9  A    between atoms: C_22  and  O_23
REMARK   10  A    between atoms: O_23  and  C_24
REMARK                            x       y       z     vdW  Elec       q    Type
REMARK                         _______ _______ _______ _____ _____    ______ ____
ROOT
ATOM      1  N   UNL     1       3.453   5.760  19.302  0.00  0.00    +0.000 N 
ENDROOT
BRANCH   1   2
ATOM      2  C   UNL     1       4.702   5.552  18.659  0.00  0.00    +0.000 A 
ATOM      3  C   UNL     1       5.745   4.913  19.349  0.00  0.00    +0.000 A 
ATOM      4  C   UNL     1       6.977   4.659  18.732  0.00  0.00    +0.000 A 
ATOM      5  C   UNL     1       7.202   5.064  17.417  0.00  0.00    +0.000 A 
ATOM      6  C   UNL     1       6.203   5.744  16.727  0.00  0.00    +0.000 A 
ATOM      7  C   UNL     1       4.960   5.951  17.336  0.00  0.00    +0.000 A 
BRANCH   6   8
ATOM      8  O   UNL     1       6.490   6.130  15.435  0.00  0.00    +0.000 OA
BRANCH   8   9
ATOM      9  C   UNL     1       6.398   5.204  14.417  0.00  0.00    +0.000 A 
ATOM     10  C   UNL     1       5.326   4.320  14.258  0.00  0.00    +0.000 A 
ATOM     11  C   UNL     1       5.324   3.398  13.210  0.00  0.00    +0.000 A 
ATOM     12  C   UNL     1       6.366   3.394  12.284  0.00  0.00    +0.000 A 
ATOM     13  C   UNL     1       7.410   4.312  12.406  0.00  0.00    +0.000 A 
ATOM     14  C   UNL     1       7.427   5.215  13.471  0.00  0.00    +0.000 A 
ENDBRANCH   8   9
ENDBRANCH   6   8
ENDBRANCH   1   2
BRANCH   1  15
ATOM     15  C   UNL     1       2.995   4.636  20.169  0.00  0.00    +0.000 C 
BRANCH  15  16
ATOM     16  C   UNL     1       1.790   3.929  19.542  0.00  0.00    +0.000 C 
BRANCH  16  17
ATOM     17  C   UNL     1       2.249   2.597  18.916  0.00  0.00    +0.000 C 
ATOM     18  F   UNL     1       2.263   2.627  17.566  0.00  0.00    +0.000 F 
ATOM     19  F   UNL     1       3.509   2.299  19.323  0.00  0.00    +0.000 F 
ATOM     20  F   UNL     1       1.467   1.556  19.283  0.00  0.00    +0.000 F 
ENDBRANCH  16  17
BRANCH  16  21
ATOM     21  O   UNL     1       0.776   3.770  20.561  0.00  0.00    +0.000 OA
ATOM     22  H   UNL     1       1.203   4.061  21.395  0.00  0.00    +0.000 HD
ENDBRANCH  16  21
ENDBRANCH  15  16
ENDBRANCH   1  15
BRANCH   1  23
ATOM     23  C   UNL     1       2.421   6.268  18.347  0.00  0.00    +0.000 C 
BRANCH  23  24
ATOM     24  C   UNL     1       2.117   7.747  18.510  0.00  0.00    +0.000 A 
ATOM     25  C   UNL     1       2.387   8.681  17.509  0.00  0.00    +0.000 A 
ATOM     26  C   UNL     1       2.059  10.024  17.691  0.00  0.00    +0.000 A 
ATOM     27  C   UNL     1       1.447  10.455  18.874  0.00  0.00    +0.000 A 
ATOM     28  C   UNL     1       1.179   9.562  19.926  0.00  0.00    +0.000 A 
ATOM     29  C   UNL     1       1.568   8.215  19.723  0.00  0.00    +0.000 A 
BRANCH  28  30
ATOM     30  C   UNL     1       0.468   9.962  21.173  0.00  0.00    +0.000 A 
ATOM     31  C   UNL     1      -0.344  11.079  21.286  0.00  0.00    +0.000 A 
ATOM     32  C   UNL     1      -0.991  11.263  22.485  0.00  0.00    +0.000 A 
ATOM     33  N   UNL     1      -0.868  10.434  23.535  0.00  0.00    +0.000 NA
ATOM     34  C   UNL     1      -0.053   9.391  23.347  0.00  0.00    +0.000 A 
ATOM     35  N   UNL     1       0.618   9.115  22.218  0.00  0.00    +0.000 NA
ENDBRANCH  28  30
ENDBRANCH  23  24
ENDBRANCH   1  23
TORSDOF 10
ENDMDL
MODEL 8
REMARK VINA RESULT:      -8.7      1.684      2.446
REMARK  Name = 
REMARK  10 active torsions:
REMARK  status: ('A' for Active; 'I' for Inactive)
REMARK    1  A    between atoms: O_1  and  C_2
REMARK    2  A    between atoms: C_2  and  C_3
REMARK    3  A    between atoms: C_2  and  C_31
REMARK    4  A    between atoms: C_3  and  N_4
REMARK    5  A    between atoms: N_4  and  C_5
REMARK    6  A    between atoms: N_4  and  C_18
REMARK    7  A    between atoms: C_5  and  C_6
REMARK    8  A    between atoms: C_10  and  C_11
REMARK    9  A    between atoms: C_22  and  O_23
REMARK   10  A    between atoms: O_23  and  C_24
REMARK                            x       y       z     vdW  Elec       q    Type
REMARK                         _______ _______ _______ _____ _____    ______ ____
ROOT
ATOM      1  N   UNL     1       2.773   6.836  18.268  0.00  0.00    +0.000 N 
ENDROOT
BRANCH   1   2
ATOM      2  C   UNL     1       2.054   7.775  19.055  0.00  0.00    +0.000 A 
ATOM      3  C   UNL     1       1.823   7.516  20.415  0.00  0.00    +0.000 A 
ATOM      4  C   UNL     1       1.149   8.438  21.227  0.00  0.00    +0.000 A 
ATOM      5  C   UNL     1       0.667   9.630  20.688  0.00  0.00    +0.000 A 
ATOM      6  C   UNL     1       0.839   9.889  19.332  0.00  0.00    +0.000 A 
ATOM      7  C   UNL     1       1.554   8.984  18.539  0.00  0.00    +0.000 A 
BRANCH   6   8
ATOM      8  O   UNL     1       0.330  11.079  18.855  0.00  0.00    +0.000 OA
BRANCH   8   9
ATOM      9  C   UNL     1       1.091  12.225  18.947  0.00  0.00    +0.000 A 
ATOM     10  C   UNL     1       2.290  12.425  18.255  0.00  0.00    +0.000 A 
ATOM     11  C   UNL     1       3.010  13.608  18.424  0.00  0.00    +0.000 A 
ATOM     12  C   UNL     1       2.507  14.620  19.240  0.00  0.00    +0.000 A 
ATOM     13  C   UNL     1       1.284  14.448  19.888  0.00  0.00    +0.000 A 
ATOM     14  C   UNL     1       0.577  13.252  19.743  0.00  0.00    +0.000 A 
ENDBRANCH   8   9
ENDBRANCH   6   8
ENDBRANCH   1   2
BRANCH   1  15
ATOM     15  C   UNL     1       2.991   5.509  18.915  0.00  0.00    +0.000 C 
BRANCH  15  16
ATOM     16  C   UNL     1       2.123   4.437  18.249  0.00  0.00    +0.000 C 
BRANCH  16  17
ATOM     17  C   UNL     1       3.031   3.339  17.662  0.00  0.00    +0.000 C 
ATOM     18  F   UNL     1       4.055   3.011  18.479  0.00  0.00    +0.000 F 
ATOM     19  F   UNL     1       2.315   2.207  17.443  0.00  0.00    +0.000 F 
ATOM     20  F   UNL     1       3.569   3.693  16.472  0.00  0.00    +0.000 F 
ENDBRANCH  16  17
BRANCH  16  21
ATOM     21  O   UNL     1       1.178   3.947  19.228  0.00  0.00    +0.000 OA
ATOM     22  H   UNL     1       1.472   3.034  19.433  0.00  0.00    +0.000 HD
ENDBRANCH  16  21
ENDBRANCH  15  16
ENDBRANCH   1  15
BRANCH   1  23
ATOM     23  C   UNL     1       3.999   7.446  17.669  0.00  0.00    +0.000 C 
BRANCH  23  24
ATOM     24  C   UNL     1       5.124   6.451  17.441  0.00  0.00    +0.000 A 
ATOM     25  C   UNL     1       5.823   5.859  18.493  0.00  0.00    +0.000 A 
ATOM     26  C   UNL     1       6.827   4.925  18.235  0.00  0.00    +0.000 A 
ATOM     27  C   UNL     1       7.141   4.561  16.921  0.00  0.00    +0.000 A 
ATOM     28  C   UNL     1       6.488   5.147  15.823  0.00  0.00    +0.000 A 
ATOM     29  C   UNL     1       5.508   6.125  16.122  0.00  0.00    +0.000 A 
BRANCH  28  30
ATOM     30  C   UNL     1       6.742   4.740  14.412  0.00  0.00    +0.000 A 
ATOM     31  C   UNL     1       6.040   3.749  13.746  0.00  0.00    +0.000 A 
ATOM     32  C   UNL     1       6.346   3.550  12.420  0.00  0.00    +0.000 A 
ATOM     33  N   UNL     1       7.282   4.249  11.757  0.00  0.00    +0.000 NA
ATOM     34  C   UNL     1       7.923   5.174  12.478  0.00  0.00    +0.000 A 
ATOM     35  N   UNL     1       7.698   5.453  13.772  0.00  0.00    +0.000 NA
ENDBRANCH  28  30
ENDBRANCH  23  24
ENDBRANCH   1  23
TORSDOF 10
ENDMDL
MODEL 9
REMARK VINA RESULT:      -8.6      1.553      2.021
REMARK  Name = 
REMARK  10 active torsions:
REMARK  status: ('A' for Active; 'I' for Inactive)
REMARK    1  A    between atoms: O_1  and  C_2
REMARK    2  A    between atoms: C_2  and  C_3
REMARK    3  A    between atoms: C_2  and  C_31
REMARK    4  A    between atoms: C_3  and  N_4
REMARK    5  A    between atoms: N_4  and  C_5
REMARK    6  A    between atoms: N_4  and  C_18
REMARK    7  A    between atoms: C_5  and  C_6
REMARK    8  A    between atoms: C_10  and  C_11
REMARK    9  A    between atoms: C_22  and  O_23
REMARK   10  A    between atoms: O_23  and  C_24
REMARK                            x       y       z     vdW  Elec       q    Type
REMARK                         _______ _______ _______ _____ _____    ______ ____
ROOT
ATOM      1  N   UNL     1       2.723   5.643  18.177  0.00  0.00    +0.000 N 
ENDROOT
BRANCH   1   2
ATOM      2  C   UNL     1       2.206   6.762  18.882  0.00  0.00    +0.000 A 
ATOM      3  C   UNL     1       1.999   6.681  20.267  0.00  0.00    +0.000 A 
ATOM      4  C   UNL     1       1.525   7.779  20.998  0.00  0.00    +0.000 A 
ATOM      5  C   UNL     1       1.222   8.976  20.352  0.00  0.00    +0.000 A 
ATOM      6  C   UNL     1       1.370   9.068  18.971  0.00  0.00    +0.000 A 
ATOM      7  C   UNL     1       1.889   7.981  18.257  0.00  0.00    +0.000 A 
BRANCH   6   8
ATOM      8  O   UNL     1       1.042  10.274  18.388  0.00  0.00    +0.000 OA
BRANCH   8   9
ATOM      9  C   UNL     1      -0.283  10.645  18.302  0.00  0.00    +0.000 A 
ATOM     10  C   UNL     1      -1.251   9.932  17.587  0.00  0.00    +0.000 A 
ATOM     11  C   UNL     1      -2.567  10.393  17.535  0.00  0.00    +0.000 A 
ATOM     12  C   UNL     1      -2.934  11.537  18.241  0.00  0.00    +0.000 A 
ATOM     13  C   UNL     1      -1.984  12.220  19.002  0.00  0.00    +0.000 A 
ATOM     14  C   UNL     1      -0.660  11.776  19.031  0.00  0.00    +0.000 A 
ENDBRANCH   8   9
ENDBRANCH   6   8
ENDBRANCH   1   2
BRANCH   1  15
ATOM     15  C   UNL     1       1.715   4.605  17.817  0.00  0.00    +0.000 C 
BRANCH  15  16
ATOM     16  C   UNL     1       2.117   3.242  18.391  0.00  0.00    +0.000 C 
BRANCH  16  17
ATOM     17  C   UNL     1       1.055   2.787  19.411  0.00  0.00    +0.000 C 
ATOM     18  F   UNL     1       1.575   2.065  20.426  0.00  0.00    +0.000 F 
ATOM     19  F   UNL     1       0.440   3.865  19.960  0.00  0.00    +0.000 F 
ATOM     20  F   UNL     1       0.083   2.034  18.845  0.00  0.00    +0.000 F 
ENDBRANCH  16  17
BRANCH  16  21
ATOM     21  O   UNL     1       2.295   2.321  17.291  0.00  0.00    +0.000 OA
ATOM     22  H   UNL     1       2.984   1.691  17.593  0.00  0.00    +0.000 HD
ENDBRANCH  16  21
ENDBRANCH  15  16
ENDBRANCH   1  15
BRANCH   1  23
ATOM     23  C   UNL     1       3.961   5.110  18.824  0.00  0.00    +0.000 C 
BRANCH  23  24
ATOM     24  C   UNL     1       5.235   5.443  18.067  0.00  0.00    +0.000 A 
ATOM     25  C   UNL     1       6.324   6.069  18.676  0.00  0.00    +0.000 A 
ATOM     26  C   UNL     1       7.486   6.325  17.949  0.00  0.00    +0.000 A 
ATOM     27  C   UNL     1       7.583   5.952  16.604  0.00  0.00    +0.000 A 
ATOM     28  C   UNL     1       6.506   5.345  15.934  0.00  0.00    +0.000 A 
ATOM     29  C   UNL     1       5.326   5.143  16.691  0.00  0.00    +0.000 A 
BRANCH  28  30
ATOM     30  C   UNL     1       6.588   4.870  14.524  0.00  0.00    +0.000 A 
ATOM     31  C   UNL     1       7.582   5.237  13.631  0.00  0.00    +0.000 A 
ATOM     32  C   UNL     1       7.557   4.646  12.390  0.00  0.00    +0.000 A 
ATOM     33  N   UNL     1       6.628   3.755  12.006  0.00  0.00    +0.000 NA
ATOM     34  C   UNL     1       5.697   3.468  12.921  0.00  0.00    +0.000 A 
ATOM     35  N   UNL     1       5.633   3.982  14.160  0.00  0.00    +0.000 NA
ENDBRANCH  28  30
ENDBRANCH  23  24
ENDBRANCH   1  23
TORSDOF 10
ENDMDL
