MODEL 1
REMARK VINA RESULT:      -6.8      0.000      0.000
REMARK  Name = 
REMARK  9 active torsions:
REMARK  status: ('A' for Active; 'I' for Inactive)
REMARK    1  A    between atoms: O_1  and  C_2
REMARK    2  A    between atoms: C_4  and  O_5
REMARK    3  A    between atoms: C_7  and  C_8
REMARK    4  A    between atoms: C_8  and  O_9
REMARK    5  A    between atoms: C_8  and  C_10
REMARK    6  A    between atoms: C_10  and  N_11
REMARK    7  A    between atoms: N_11  and  C_12
REMARK    8  A    between atoms: C_12  and  C_13
REMARK    9  A    between atoms: C_13  and  C_14
REMARK                            x       y       z     vdW  Elec       q    Type
REMARK                         _______ _______ _______ _____ _____    ______ ____
ROOT
ATOM      1  C   UNL     1       4.813   5.893  17.240  0.00  0.00    +0.000 C 
ENDROOT
BRANCH   1   6
ATOM      2  C   UNL     1       2.239   7.114  19.803  0.00  0.00    +0.000 A 
ATOM      3  C   UNL     1       1.780   8.289  19.219  0.00  0.00    +0.000 A 
ATOM      4  C   UNL     1       2.315   8.676  17.994  0.00  0.00    +0.000 A 
ATOM      5  C   UNL     1       3.298   7.914  17.364  0.00  0.00    +0.000 A 
ATOM      6  C   UNL     1       3.771   6.733  17.957  0.00  0.00    +0.000 A 
ATOM      7  C   UNL     1       3.217   6.339  19.186  0.00  0.00    +0.000 A 
BRANCH   2   8
ATOM      8  O   UNL     1       1.750   6.671  20.997  0.00  0.00    +0.000 OA
ATOM      9  H   UNL     1       2.492   6.530  21.608  0.00  0.00    +0.000 HD
ENDBRANCH   2   8
BRANCH   4  10
ATOM     10  O   UNL     1       1.896   9.810  17.361  0.00  0.00    +0.000 OA
ATOM     11  H   UNL     1       0.977   9.688  17.069  0.00  0.00    +0.000 HD
ENDBRANCH   4  10
ENDBRANCH   1   6
BRANCH   1  12
ATOM     12  O   UNL     1       5.605   6.701  16.366  0.00  0.00    +0.000 OA
ATOM     13  H   UNL     1       5.857   7.502  16.849  0.00  0.00    +0.000 HD
ENDBRANCH   1  12
BRANCH   1  14
ATOM     14  C   UNL     1       5.722   5.181  18.266  0.00  0.00    +0.000 C 
BRANCH  14  15
ATOM     15  N   UNL     1       5.595   3.714  18.224  0.00  0.00    +0.000 NA
ATOM     16  H   UNL     1       5.382   3.384  19.166  0.00  0.00    +0.000 HD
BRANCH  15  17
ATOM     17  C   UNL     1       4.545   3.290  17.289  0.00  0.00    +0.000 C 
BRANCH  17  18
ATOM     18  C   UNL     1       3.695   2.140  17.853  0.00  0.00    +0.000 C 
BRANCH  18  19
ATOM     19  C   UNL     1       2.854   2.557  19.028  0.00  0.00    +0.000 A 
ATOM     20  C   UNL     1       1.555   3.042  18.826  0.00  0.00    +0.000 A 
ATOM     21  C   UNL     1       0.769   3.414  19.916  0.00  0.00    +0.000 A 
ATOM     22  C   UNL     1       1.278   3.301  21.209  0.00  0.00    +0.000 A 
ATOM     23  C   UNL     1       2.572   2.823  21.414  0.00  0.00    +0.000 A 
ATOM     24  C   UNL     1       3.360   2.456  20.326  0.00  0.00    +0.000 A 
ENDBRANCH  18  19
ENDBRANCH  17  18
ENDBRANCH  15  17
ENDBRANCH  14  15
ENDBRANCH   1  14
TORSDOF 9
ENDMDL
MODEL 2
REMARK VINA RESULT:      -6.7      0.345      1.889
REMARK  Name = 
REMARK  9 active torsions:
REMARK  status: ('A' for Active; 'I' for Inactive)
REMARK    1  A    between atoms: O_1  and  C_2
REMARK    2  A    between atoms: C_4  and  O_5
REMARK    3  A    between atoms: C_7  and  C_8
REMARK    4  A    between atoms: C_8  and  O_9
REMARK    5  A    between atoms: C_8  and  C_10
REMARK    6  A    between atoms: C_10  and  N_11
REMARK    7  A    between atoms: N_11  and  C_12
REMARK    8  A    between atoms: C_12  and  C_13
REMARK    9  A    between atoms: C_13  and  C_14
REMARK                            x       y       z     vdW  Elec       q    Type
REMARK                         _______ _______ _______ _____ _____    ______ ____
ROOT
ATOM      1  C   UNL     1       4.982   6.104  17.044  0.00  0.00    +0.000 C 
ENDROOT
BRANCH   1   6
ATOM      2  C   UNL     1       2.293   8.675  17.964  0.00  0.00    +0.000 A 
ATOM      3  C   UNL     1       1.816   8.180  19.171  0.00  0.00    +0.000 A 
ATOM      4  C   UNL     1       2.374   7.009  19.677  0.00  0.00    +0.000 A 
ATOM      5  C   UNL     1       3.381   6.335  18.989  0.00  0.00    +0.000 A 
ATOM      6  C   UNL     1       3.857   6.828  17.764  0.00  0.00    +0.000 A 
ATOM      7  C   UNL     1       3.302   8.017  17.264  0.00  0.00    +0.000 A 
BRANCH   2   8
ATOM      8  O   UNL     1       1.800   9.823  17.417  0.00  0.00    +0.000 OA
ATOM      9  H   UNL     1       2.005  10.567  18.006  0.00  0.00    +0.000 HD
ENDBRANCH   2   8
BRANCH   4  10
ATOM     10  O   UNL     1       1.961   6.480  20.865  0.00  0.00    +0.000 OA
ATOM     11  H   UNL     1       0.993   6.393  20.854  0.00  0.00    +0.000 HD
ENDBRANCH   4  10
ENDBRANCH   1   6
BRANCH   1  12
ATOM     12  O   UNL     1       6.029   7.012  16.693  0.00  0.00    +0.000 OA
ATOM     13  H   UNL     1       5.885   7.836  17.183  0.00  0.00    +0.000 HD
ENDBRANCH   1  12
BRANCH   1  14
ATOM     14  C   UNL     1       5.543   4.972  17.934  0.00  0.00    +0.000 C 
BRANCH  14  15
ATOM     15  N   UNL     1       5.462   3.648  17.295  0.00  0.00    +0.000 NA
ATOM     16  H   UNL     1       5.877   2.962  17.926  0.00  0.00    +0.000 HD
BRANCH  15  17
ATOM     17  C   UNL     1       4.074   3.280  16.988  0.00  0.00    +0.000 C 
BRANCH  17  18
ATOM     18  C   UNL     1       3.599   2.070  17.807  0.00  0.00    +0.000 C 
BRANCH  18  19
ATOM     19  C   UNL     1       2.799   2.461  19.018  0.00  0.00    +0.000 A 
ATOM     20  C   UNL     1       1.452   2.828  18.883  0.00  0.00    +0.000 A 
ATOM     21  C   UNL     1       0.705   3.176  20.008  0.00  0.00    +0.000 A 
ATOM     22  C   UNL     1       1.300   3.158  21.269  0.00  0.00    +0.000 A 
ATOM     23  C   UNL     1       2.640   2.799  21.407  0.00  0.00    +0.000 A 
ATOM     24  C   UNL     1       3.390   2.455  20.284  0.00  0.00    +0.000 A 
ENDBRANCH  18  19
ENDBRANCH  17  18
ENDBRANCH  15  17
ENDBRANCH  14  15
ENDBRANCH   1  14
TORSDOF 9
ENDMDL
MODEL 3
REMARK VINA RESULT:      -6.6      2.239      4.852
REMARK  Name = 
REMARK  9 active torsions:
REMARK  status: ('A' for Active; 'I' for Inactive)
REMARK    1  A    between atoms: O_1  and  C_2
REMARK    2  A    between atoms: C_4  and  O_5
REMARK    3  A    between atoms: C_7  and  C_8
REMARK    4  A    between atoms: C_8  and  O_9
REMARK    5  A    between atoms: C_8  and  C_10
REMARK    6  A    between atoms: C_10  and  N_11
REMARK    7  A    between atoms: N_11  and  C_12
REMARK    8  A    between atoms: C_12  and  C_13
REMARK    9  A    between atoms: C_13  and  C_14
REMARK                            x       y       z     vdW  Elec       q    Type
REMARK                         _______ _______ _______ _____ _____    ______ ____
ROOT
ATOM      1  C   UNL     1       3.433   2.359  18.359  0.00  0.00    +0.000 C 
ENDROOT
BRANCH   1   6
ATOM      2  C   UNL     1       6.111   5.062  18.819  0.00  0.00    +0.000 A 
ATOM      3  C   UNL     1       6.109   5.689  17.579  0.00  0.00    +0.000 A 
ATOM      4  C   UNL     1       5.235   5.225  16.600  0.00  0.00    +0.000 A 
ATOM      5  C   UNL     1       4.385   4.148  16.845  0.00  0.00    +0.000 A 
ATOM      6  C   UNL     1       4.393   3.506  18.093  0.00  0.00    +0.000 A 
ATOM      7  C   UNL     1       5.265   3.987  19.083  0.00  0.00    +0.000 A 
BRANCH   2   8
ATOM      8  O   UNL     1       6.933   5.473  19.827  0.00  0.00    +0.000 OA
ATOM      9  H   UNL     1       7.480   6.209  19.507  0.00  0.00    +0.000 HD
ENDBRANCH   2   8
BRANCH   4  10
ATOM     10  O   UNL     1       5.173   5.808  15.368  0.00  0.00    +0.000 OA
ATOM     11  H   UNL     1       4.343   5.547  14.935  0.00  0.00    +0.000 HD
ENDBRANCH   4  10
ENDBRANCH   1   6
BRANCH   1  12
ATOM     12  O   UNL     1       4.140   1.124  18.495  0.00  0.00    +0.000 OA
ATOM     13  H   UNL     1       3.681   0.459  17.961  0.00  0.00    +0.000 HD
ENDBRANCH   1  12
BRANCH   1  14
ATOM     14  C   UNL     1       2.609   2.638  19.635  0.00  0.00    +0.000 C 
BRANCH  14  15
ATOM     15  N   UNL     1       1.313   3.277  19.352  0.00  0.00    +0.000 NA
ATOM     16  H   UNL     1       0.599   2.550  19.310  0.00  0.00    +0.000 HD
BRANCH  15  17
ATOM     17  C   UNL     1       0.965   4.269  20.378  0.00  0.00    +0.000 C 
BRANCH  17  18
ATOM     18  C   UNL     1       2.141   5.200  20.709  0.00  0.00    +0.000 C 
BRANCH  18  19
ATOM     19  C   UNL     1       2.009   6.557  20.075  0.00  0.00    +0.000 A 
ATOM     20  C   UNL     1       2.547   6.794  18.802  0.00  0.00    +0.000 A 
ATOM     21  C   UNL     1       2.412   8.048  18.207  0.00  0.00    +0.000 A 
ATOM     22  C   UNL     1       1.738   9.066  18.880  0.00  0.00    +0.000 A 
ATOM     23  C   UNL     1       1.205   8.836  20.147  0.00  0.00    +0.000 A 
ATOM     24  C   UNL     1       1.344   7.586  20.746  0.00  0.00    +0.000 A 
ENDBRANCH  18  19
ENDBRANCH  17  18
ENDBRANCH  15  17
ENDBRANCH  14  15
ENDBRANCH   1  14
TORSDOF 9
ENDMDL
MODEL 4
REMARK VINA RESULT:      -6.4      2.562      4.807
REMARK  Name = 
REMARK  9 active torsions:
REMARK  status: ('A' for Active; 'I' for Inactive)
REMARK    1  A    between atoms: O_1  and  C_2
REMARK    2  A    between atoms: C_4  and  O_5
REMARK    3  A    between atoms: C_7  and  C_8
REMARK    4  A    between atoms: C_8  and  O_9
REMARK    5  A    between atoms: C_8  and  C_10
REMARK    6  A    between atoms: C_10  and  N_11
REMARK    7  A    between atoms: N_11  and  C_12
REMARK    8  A    between atoms: C_12  and  C_13
REMARK    9  A    between atoms: C_13  and  C_14
REMARK                            x       y       z     vdW  Elec       q    Type
REMARK                         _______ _______ _______ _____ _____    ______ ____
ROOT
ATOM      1  C   UNL     1       4.239   3.047  18.480  0.00  0.00    +0.000 C 
ENDROOT
BRANCH   1   6
ATOM      2  C   UNL     1       6.841   5.288  16.779  0.00  0.00    +0.000 A 
ATOM      3  C   UNL     1       7.504   5.843  17.867  0.00  0.00    +0.000 A 
ATOM      4  C   UNL     1       7.096   5.485  19.148  0.00  0.00    +0.000 A 
ATOM      5  C   UNL     1       6.040   4.597  19.346  0.00  0.00    +0.000 A 
ATOM      6  C   UNL     1       5.362   4.043  18.249  0.00  0.00    +0.000 A 
ATOM      7  C   UNL     1       5.787   4.396  16.958  0.00  0.00    +0.000 A 
BRANCH   2   8
ATOM      8  O   UNL     1       7.196   5.586  15.496  0.00  0.00    +0.000 OA
ATOM      9  H   UNL     1       6.405   5.558  14.935  0.00  0.00    +0.000 HD
ENDBRANCH   2   8
BRANCH   4  10
ATOM     10  O   UNL     1       7.715   5.983  20.257  0.00  0.00    +0.000 OA
ATOM     11  H   UNL     1       8.197   5.265  20.701  0.00  0.00    +0.000 HD
ENDBRANCH   4  10
ENDBRANCH   1   6
BRANCH   1  12
ATOM     12  O   UNL     1       4.239   2.036  17.469  0.00  0.00    +0.000 OA
ATOM     13  H   UNL     1       4.706   2.389  16.696  0.00  0.00    +0.000 HD
ENDBRANCH   1  12
BRANCH   1  14
ATOM     14  C   UNL     1       4.379   2.397  19.874  0.00  0.00    +0.000 C 
BRANCH  14  15
ATOM     15  N   UNL     1       3.250   2.705  20.767  0.00  0.00    +0.000 NA
ATOM     16  H   UNL     1       3.317   3.686  21.041  0.00  0.00    +0.000 HD
BRANCH  15  17
ATOM     17  C   UNL     1       1.959   2.450  20.114  0.00  0.00    +0.000 C 
BRANCH  17  18
ATOM     18  C   UNL     1       0.981   3.622  20.282  0.00  0.00    +0.000 C 
BRANCH  18  19
ATOM     19  C   UNL     1       1.514   4.913  19.724  0.00  0.00    +0.000 A 
ATOM     20  C   UNL     1       1.723   6.011  20.570  0.00  0.00    +0.000 A 
ATOM     21  C   UNL     1       2.232   7.204  20.057  0.00  0.00    +0.000 A 
ATOM     22  C   UNL     1       2.534   7.302  18.699  0.00  0.00    +0.000 A 
ATOM     23  C   UNL     1       2.323   6.213  17.854  0.00  0.00    +0.000 A 
ATOM     24  C   UNL     1       1.810   5.023  18.364  0.00  0.00    +0.000 A 
ENDBRANCH  18  19
ENDBRANCH  17  18
ENDBRANCH  15  17
ENDBRANCH  14  15
ENDBRANCH   1  14
TORSDOF 9
ENDMDL
MODEL 5
REMARK VINA RESULT:      -6.4      3.325      5.624
REMARK  Name = 
REMARK  9 active torsions:
REMARK  status: ('A' for Active; 'I' for Inactive)
REMARK    1  A    between atoms: O_1  and  C_2
REMARK    2  A    between atoms: C_4  and  O_5
REMARK    3  A    between atoms: C_7  and  C_8
REMARK    4  A    between atoms: C_8  and  O_9
REMARK    5  A    between atoms: C_8  and  C_10
REMARK    6  A    between atoms: C_10  and  N_11
REMARK    7  A    between atoms: N_11  and  C_12
REMARK    8  A    between atoms: C_12  and  C_13
REMARK    9  A    between atoms: C_13  and  C_14
REMARK                            x       y       z     vdW  Elec       q    Type
REMARK                         _______ _______ _______ _____ _____    ______ ____
ROOT
ATOM      1  C   UNL     1       5.369   4.442  16.141  0.00  0.00    +0.000 C 
ENDROOT
BRANCH   1   6
ATOM      2  C   UNL     1       7.727   5.111  13.196  0.00  0.00    +0.000 A 
ATOM      3  C   UNL     1       7.207   4.280  12.211  0.00  0.00    +0.000 A 
ATOM      4  C   UNL     1       6.091   3.506  12.514  0.00  0.00    +0.000 A 
ATOM      5  C   UNL     1       5.508   3.548  13.780  0.00  0.00    +0.000 A 
ATOM      6  C   UNL     1       6.038   4.378  14.780  0.00  0.00    +0.000 A 
ATOM      7  C   UNL     1       7.155   5.169  14.465  0.00  0.00    +0.000 A 
BRANCH   2   8
ATOM      8  O   UNL     1       8.812   5.905  12.963  0.00  0.00    +0.000 OA
ATOM      9  H   UNL     1       9.019   6.400  13.772  0.00  0.00    +0.000 HD
ENDBRANCH   2   8
BRANCH   4  10
ATOM     10  O   UNL     1       5.523   2.683  11.587  0.00  0.00    +0.000 OA
ATOM     11  H   UNL     1       5.140   1.912  12.039  0.00  0.00    +0.000 HD
ENDBRANCH   4  10
ENDBRANCH   1   6
BRANCH   1  12
ATOM     12  O   UNL     1       5.302   3.145  16.738  0.00  0.00    +0.000 OA
ATOM     13  H   UNL     1       4.418   3.041  17.124  0.00  0.00    +0.000 HD
ENDBRANCH   1  12
BRANCH   1  14
ATOM     14  C   UNL     1       6.137   5.409  17.069  0.00  0.00    +0.000 C 
BRANCH  14  15
ATOM     15  N   UNL     1       5.333   6.574  17.476  0.00  0.00    +0.000 NA
ATOM     16  H   UNL     1       4.821   6.910  16.660  0.00  0.00    +0.000 HD
BRANCH  15  17
ATOM     17  C   UNL     1       4.399   6.235  18.557  0.00  0.00    +0.000 C 
BRANCH  17  18
ATOM     18  C   UNL     1       2.950   6.124  18.059  0.00  0.00    +0.000 C 
BRANCH  18  19
ATOM     19  C   UNL     1       2.203   4.979  18.684  0.00  0.00    +0.000 A 
ATOM     20  C   UNL     1       1.928   3.826  17.935  0.00  0.00    +0.000 A 
ATOM     21  C   UNL     1       1.249   2.757  18.519  0.00  0.00    +0.000 A 
ATOM     22  C   UNL     1       0.844   2.837  19.851  0.00  0.00    +0.000 A 
ATOM     23  C   UNL     1       1.111   3.983  20.598  0.00  0.00    +0.000 A 
ATOM     24  C   UNL     1       1.785   5.054  20.015  0.00  0.00    +0.000 A 
ENDBRANCH  18  19
ENDBRANCH  17  18
ENDBRANCH  15  17
ENDBRANCH  14  15
ENDBRANCH   1  14
TORSDOF 9
ENDMDL
MODEL 6
REMARK VINA RESULT:      -6.4      3.225      5.550
REMARK  Name = 
REMARK  9 active torsions:
REMARK  status: ('A' for Active; 'I' for Inactive)
REMARK    1  A    between atoms: O_1  and  C_2
REMARK    2  A    between atoms: C_4  and  O_5
REMARK    3  A    between atoms: C_7  and  C_8
REMARK    4  A    between atoms: C_8  and  O_9
REMARK    5  A    between atoms: C_8  and  C_10
REMARK    6  A    between atoms: C_10  and  N_11
REMARK    7  A    between atoms: N_11  and  C_12
REMARK    8  A    between atoms: C_12  and  C_13
REMARK    9  A    between atoms: C_13  and  C_14
REMARK                            x       y       z     vdW  Elec       q    Type
REMARK                         _______ _______ _______ _____ _____    ______ ____
ROOT
ATOM      1  C   UNL     1       5.200   4.431  16.220  0.00  0.00    +0.000 C 
ENDROOT
BRANCH   1   6
ATOM      2  C   UNL     1       5.982   3.463  12.595  0.00  0.00    +0.000 A 
ATOM      3  C   UNL     1       7.104   4.236  12.322  0.00  0.00    +0.000 A 
ATOM      4  C   UNL     1       7.596   5.070  13.321  0.00  0.00    +0.000 A 
ATOM      5  C   UNL     1       6.979   5.143  14.568  0.00  0.00    +0.000 A 
ATOM      6  C   UNL     1       5.839   4.371  14.843  0.00  0.00    +0.000 A 
ATOM      7  C   UNL     1       5.354   3.519  13.837  0.00  0.00    +0.000 A 
BRANCH   2   8
ATOM      8  O   UNL     1       5.454   2.616  11.666  0.00  0.00    +0.000 OA
ATOM      9  H   UNL     1       6.045   2.584  10.896  0.00  0.00    +0.000 HD
ENDBRANCH   2   8
BRANCH   4  10
ATOM     10  O   UNL     1       8.703   5.843  13.121  0.00  0.00    +0.000 OA
ATOM     11  H   UNL     1       8.463   6.777  13.240  0.00  0.00    +0.000 HD
ENDBRANCH   4  10
ENDBRANCH   1   6
BRANCH   1  12
ATOM     12  O   UNL     1       5.375   3.195  16.917  0.00  0.00    +0.000 OA
ATOM     13  H   UNL     1       4.673   2.591  16.632  0.00  0.00    +0.000 HD
ENDBRANCH   1  12
BRANCH   1  14
ATOM     14  C   UNL     1       5.808   5.590  17.041  0.00  0.00    +0.000 C 
BRANCH  14  15
ATOM     15  N   UNL     1       4.958   5.999  18.172  0.00  0.00    +0.000 NA
ATOM     16  H   UNL     1       5.543   6.484  18.852  0.00  0.00    +0.000 HD
BRANCH  15  17
ATOM     17  C   UNL     1       3.860   6.870  17.735  0.00  0.00    +0.000 C 
BRANCH  17  18
ATOM     18  C   UNL     1       2.698   6.889  18.740  0.00  0.00    +0.000 C 
BRANCH  18  19
ATOM     19  C   UNL     1       2.102   5.527  18.971  0.00  0.00    +0.000 A 
ATOM     20  C   UNL     1       1.912   4.652  17.893  0.00  0.00    +0.000 A 
ATOM     21  C   UNL     1       1.373   3.383  18.108  0.00  0.00    +0.000 A 
ATOM     22  C   UNL     1       1.026   2.987  19.398  0.00  0.00    +0.000 A 
ATOM     23  C   UNL     1       1.209   3.857  20.472  0.00  0.00    +0.000 A 
ATOM     24  C   UNL     1       1.742   5.126  20.259  0.00  0.00    +0.000 A 
ENDBRANCH  18  19
ENDBRANCH  17  18
ENDBRANCH  15  17
ENDBRANCH  14  15
ENDBRANCH   1  14
TORSDOF 9
ENDMDL
MODEL 7
REMARK VINA RESULT:      -6.3      4.847      7.334
REMARK  Name = 
REMARK  9 active torsions:
REMARK  status: ('A' for Active; 'I' for Inactive)
REMARK    1  A    between atoms: O_1  and  C_2
REMARK    2  A    between atoms: C_4  and  O_5
REMARK    3  A    between atoms: C_7  and  C_8
REMARK    4  A    between atoms: C_8  and  O_9
REMARK    5  A    between atoms: C_8  and  C_10
REMARK    6  A    between atoms: C_10  and  N_11
REMARK    7  A    between atoms: N_11  and  C_12
REMARK    8  A    between atoms: C_12  and  C_13
REMARK    9  A    between atoms: C_13  and  C_14
REMARK                            x       y       z     vdW  Elec       q    Type
REMARK                         _______ _______ _______ _____ _____    ______ ____
ROOT
ATOM      1  C   UNL     1       6.136   5.496  16.542  0.00  0.00    +0.000 C 
ENDROOT
BRANCH   1   6
ATOM      2  C   UNL     1       2.741   3.996  17.497  0.00  0.00    +0.000 A 
ATOM      3  C   UNL     1       2.139   5.048  18.177  0.00  0.00    +0.000 A 
ATOM      4  C   UNL     1       2.844   6.238  18.322  0.00  0.00    +0.000 A 
ATOM      5  C   UNL     1       4.133   6.379  17.808  0.00  0.00    +0.000 A 
ATOM      6  C   UNL     1       4.748   5.315  17.130  0.00  0.00    +0.000 A 
ATOM      7  C   UNL     1       4.026   4.120  16.974  0.00  0.00    +0.000 A 
BRANCH   2   8
ATOM      8  O   UNL     1       2.102   2.806  17.310  0.00  0.00    +0.000 OA
ATOM      9  H   UNL     1       2.719   2.178  16.900  0.00  0.00    +0.000 HD
ENDBRANCH   2   8
BRANCH   4  10
ATOM     10  O   UNL     1       2.303   7.313  18.965  0.00  0.00    +0.000 OA
ATOM     11  H   UNL     1       1.370   7.401  18.705  0.00  0.00    +0.000 HD
ENDBRANCH   4  10
ENDBRANCH   1   6
BRANCH   1  12
ATOM     12  O   UNL     1       6.089   6.303  15.363  0.00  0.00    +0.000 OA
ATOM     13  H   UNL     1       6.407   5.764  14.622  0.00  0.00    +0.000 HD
ENDBRANCH   1  12
BRANCH   1  14
ATOM     14  C   UNL     1       7.077   6.141  17.584  0.00  0.00    +0.000 C 
BRANCH  14  15
ATOM     15  N   UNL     1       7.761   7.341  17.073  0.00  0.00    +0.000 NA
ATOM     16  H   UNL     1       7.105   7.859  16.487  0.00  0.00    +0.000 HD
BRANCH  15  17
ATOM     17  C   UNL     1       8.245   8.194  18.166  0.00  0.00    +0.000 C 
BRANCH  17  18
ATOM     18  C   UNL     1       8.180   9.687  17.811  0.00  0.00    +0.000 C 
BRANCH  18  19
ATOM     19  C   UNL     1       9.238  10.500  18.505  0.00  0.00    +0.000 A 
ATOM     20  C   UNL     1       9.236  10.610  19.903  0.00  0.00    +0.000 A 
ATOM     21  C   UNL     1      10.226  11.351  20.548  0.00  0.00    +0.000 A 
ATOM     22  C   UNL     1      11.218  11.982  19.800  0.00  0.00    +0.000 A 
ATOM     23  C   UNL     1      11.221  11.879  18.410  0.00  0.00    +0.000 A 
ATOM     24  C   UNL     1      10.231  11.144  17.762  0.00  0.00    +0.000 A 
ENDBRANCH  18  19
ENDBRANCH  17  18
ENDBRANCH  15  17
ENDBRANCH  14  15
ENDBRANCH   1  14
TORSDOF 9
ENDMDL
MODEL 8
REMARK VINA RESULT:      -6.3      5.261      8.007
REMARK  Name = 
REMARK  9 active torsions:
REMARK  status: ('A' for Active; 'I' for Inactive)
REMARK    1  A    between atoms: O_1  and  C_2
REMARK    2  A    between atoms: C_4  and  O_5
REMARK    3  A    between atoms: C_7  and  C_8
REMARK    4  A    between atoms: C_8  and  O_9
REMARK    5  A    between atoms: C_8  and  C_10
REMARK    6  A    between atoms: C_10  and  N_11
REMARK    7  A    between atoms: N_11  and  C_12
REMARK    8  A    between atoms: C_12  and  C_13
REMARK    9  A    between atoms: C_13  and  C_14
REMARK                            x       y       z     vdW  Elec       q    Type
REMARK                         _______ _______ _______ _____ _____    ______ ____
ROOT
ATOM      1  C   UNL     1       6.336   5.926  16.734  0.00  0.00    +0.000 C 
ENDROOT
BRANCH   1   6
ATOM      2  C   UNL     1       2.950   4.608  17.952  0.00  0.00    +0.000 A 
ATOM      3  C   UNL     1       3.329   3.622  18.855  0.00  0.00    +0.000 A 
ATOM      4  C   UNL     1       4.686   3.392  19.059  0.00  0.00    +0.000 A 
ATOM      5  C   UNL     1       5.652   4.122  18.370  0.00  0.00    +0.000 A 
ATOM      6  C   UNL     1       5.273   5.111  17.449  0.00  0.00    +0.000 A 
ATOM      7  C   UNL     1       3.902   5.350  17.257  0.00  0.00    +0.000 A 
BRANCH   2   8
ATOM      8  O   UNL     1       1.638   4.893  17.711  0.00  0.00    +0.000 OA
ATOM      9  H   UNL     1       1.151   4.060  17.598  0.00  0.00    +0.000 HD
ENDBRANCH   2   8
BRANCH   4  10
ATOM     10  O   UNL     1       5.122   2.449  19.944  0.00  0.00    +0.000 OA
ATOM     11  H   UNL     1       5.011   2.787  20.848  0.00  0.00    +0.000 HD
ENDBRANCH   4  10
ENDBRANCH   1   6
BRANCH   1  12
ATOM     12  O   UNL     1       5.747   6.790  15.759  0.00  0.00    +0.000 OA
ATOM     13  H   UNL     1       4.972   7.209  16.164  0.00  0.00    +0.000 HD
ENDBRANCH   1  12
BRANCH   1  14
ATOM     14  C   UNL     1       7.146   6.758  17.754  0.00  0.00    +0.000 C 
BRANCH  14  15
ATOM     15  N   UNL     1       7.401   8.135  17.296  0.00  0.00    +0.000 NA
ATOM     16  H   UNL     1       6.522   8.651  17.329  0.00  0.00    +0.000 HD
BRANCH  15  17
ATOM     17  C   UNL     1       8.410   8.802  18.128  0.00  0.00    +0.000 C 
BRANCH  17  18
ATOM     18  C   UNL     1       8.377  10.330  17.969  0.00  0.00    +0.000 C 
BRANCH  18  19
ATOM     19  C   UNL     1       9.564  11.009  18.595  0.00  0.00    +0.000 A 
ATOM     20  C   UNL     1       9.617  11.191  19.984  0.00  0.00    +0.000 A 
ATOM     21  C   UNL     1      10.724  11.807  20.568  0.00  0.00    +0.000 A 
ATOM     22  C   UNL     1      11.779  12.241  19.766  0.00  0.00    +0.000 A 
ATOM     23  C   UNL     1      11.727  12.067  18.384  0.00  0.00    +0.000 A 
ATOM     24  C   UNL     1      10.620  11.456  17.798  0.00  0.00    +0.000 A 
ENDBRANCH  18  19
ENDBRANCH  17  18
ENDBRANCH  15  17
ENDBRANCH  14  15
ENDBRANCH   1  14
TORSDOF 9
ENDMDL
MODEL 9
REMARK VINA RESULT:      -6.3      3.247      5.568
REMARK  Name = 
REMARK  9 active torsions:
REMARK  status: ('A' for Active; 'I' for Inactive)
REMARK    1  A    between atoms: O_1  and  C_2
REMARK    2  A    between atoms: C_4  and  O_5
REMARK    3  A    between atoms: C_7  and  C_8
REMARK    4  A    between atoms: C_8  and  O_9
REMARK    5  A    between atoms: C_8  and  C_10
REMARK    6  A    between atoms: C_10  and  N_11
REMARK    7  A    between atoms: N_11  and  C_12
REMARK    8  A    between atoms: C_12  and  C_13
REMARK    9  A    between atoms: C_13  and  C_14
REMARK                            x       y       z     vdW  Elec       q    Type
REMARK                         _______ _______ _______ _____ _____    ______ ____
ROOT
ATOM      1  C   UNL     1       5.099   4.318  16.083  0.00  0.00    +0.000 C 
ENDROOT
BRANCH   1   6
ATOM      2  C   UNL     1       6.083   3.451  12.483  0.00  0.00    +0.000 A 
ATOM      3  C   UNL     1       7.192   4.263  12.280  0.00  0.00    +0.000 A 
ATOM      4  C   UNL     1       7.611   5.089  13.318  0.00  0.00    +0.000 A 
ATOM      5  C   UNL     1       6.932   5.117  14.535  0.00  0.00    +0.000 A 
ATOM      6  C   UNL     1       5.805   4.306  14.739  0.00  0.00    +0.000 A 
ATOM      7  C   UNL     1       5.395   3.463  13.693  0.00  0.00    +0.000 A 
BRANCH   2   8
ATOM      8  O   UNL     1       5.625   2.609  11.512  0.00  0.00    +0.000 OA
ATOM      9  H   UNL     1       5.164   1.865  11.932  0.00  0.00    +0.000 HD
ENDBRANCH   2   8
BRANCH   4  10
ATOM     10  O   UNL     1       8.702   5.898  13.187  0.00  0.00    +0.000 OA
ATOM     11  H   UNL     1       9.430   5.388  12.794  0.00  0.00    +0.000 HD
ENDBRANCH   4  10
ENDBRANCH   1   6
BRANCH   1  12
ATOM     12  O   UNL     1       5.242   3.060  16.745  0.00  0.00    +0.000 OA
ATOM     13  H   UNL     1       4.452   2.532  16.554  0.00  0.00    +0.000 HD
ENDBRANCH   1  12
BRANCH   1  14
ATOM     14  C   UNL     1       5.664   5.448  16.973  0.00  0.00    +0.000 C 
BRANCH  14  15
ATOM     15  N   UNL     1       4.991   5.540  18.280  0.00  0.00    +0.000 NA
ATOM     16  H   UNL     1       5.702   5.681  18.997  0.00  0.00    +0.000 HD
BRANCH  15  17
ATOM     17  C   UNL     1       4.016   6.638  18.310  0.00  0.00    +0.000 C 
BRANCH  17  18
ATOM     18  C   UNL     1       2.628   6.196  17.823  0.00  0.00    +0.000 C 
BRANCH  18  19
ATOM     19  C   UNL     1       2.067   5.050  18.619  0.00  0.00    +0.000 A 
ATOM     20  C   UNL     1       1.912   5.166  20.007  0.00  0.00    +0.000 A 
ATOM     21  C   UNL     1       1.378   4.109  20.743  0.00  0.00    +0.000 A 
ATOM     22  C   UNL     1       0.996   2.935  20.095  0.00  0.00    +0.000 A 
ATOM     23  C   UNL     1       1.153   2.814  18.715  0.00  0.00    +0.000 A 
ATOM     24  C   UNL     1       1.691   3.867  17.978  0.00  0.00    +0.000 A 
ENDBRANCH  18  19
ENDBRANCH  17  18
ENDBRANCH  15  17
ENDBRANCH  14  15
ENDBRANCH   1  14
TORSDOF 9
ENDMDL
