MODEL 1
REMARK VINA RESULT:      -7.3      0.000      0.000
REMARK  Name = 
REMARK  4 active torsions:
REMARK  status: ('A' for Active; 'I' for Inactive)
REMARK    1  A    between atoms: C_1  and  C_2
REMARK    2  A    between atoms: C_4  and  N_5
REMARK    3  A    between atoms: C_13  and  C_14
REMARK    4  A    between atoms: C_15  and  C_16
REMARK                            x       y       z     vdW  Elec       q    Type
REMARK                         _______ _______ _______ _____ _____    ______ ____
ROOT
ATOM      1  C   UNL     1       2.135   3.550  21.748  0.00  0.00    +0.000 C 
ATOM      2  C   UNL     1       2.504   4.555  20.684  0.00  0.00    +0.000 A 
ATOM      3  C   UNL     1       3.469   4.111  19.645  0.00  0.00    +0.000 A 
ATOM      4  C   UNL     1       3.834   4.994  18.700  0.00  0.00    +0.000 A 
ATOM      5  N   UNL     1       3.239   6.296  18.752  0.00  0.00    +0.000 N 
ATOM      6  N   UNL     1       3.450   7.356  17.921  0.00  0.00    +0.000 NA
ATOM      7  C   UNL     1       2.669   8.335  18.385  0.00  0.00    +0.000 A 
ATOM      8  C   UNL     1       2.639   9.625  17.649  0.00  0.00    +0.000 C 
ATOM      9  C   UNL     1       1.955   7.950  19.554  0.00  0.00    +0.000 A 
ATOM     10  C   UNL     1       2.325   6.629  19.767  0.00  0.00    +0.000 A 
ATOM     11  N   UNL     1       1.966   5.734  20.742  0.00  0.00    +0.000 NA
ENDROOT
BRANCH   4  12
ATOM     12  N   UNL     1       4.754   4.631  17.691  0.00  0.00    +0.000 N 
ATOM     13  C   UNL     1       6.203   4.441  17.924  0.00  0.00    +0.000 C 
ATOM     14  C   UNL     1       6.984   4.897  16.677  0.00  0.00    +0.000 C 
ATOM     15  O   UNL     1       6.544   4.232  15.479  0.00  0.00    +0.000 OA
ATOM     16  C   UNL     1       5.142   4.459  15.271  0.00  0.00    +0.000 C 
ATOM     17  C   UNL     1       4.320   3.939  16.457  0.00  0.00    +0.000 C 
ENDBRANCH   4  12
BRANCH   9  18
ATOM     18  C   UNL     1       1.052   8.709  20.418  0.00  0.00    +0.000 A 
ATOM     19  C   UNL     1       1.098   8.586  21.816  0.00  0.00    +0.000 A 
ATOM     20  C   UNL     1       0.260   9.357  22.629  0.00  0.00    +0.000 A 
ATOM     21  C   UNL     1      -0.651  10.241  22.060  0.00  0.00    +0.000 A 
ATOM     22  C   UNL     1      -0.725  10.359  20.675  0.00  0.00    +0.000 A 
ATOM     23  C   UNL     1       0.129   9.605  19.865  0.00  0.00    +0.000 A 
ENDBRANCH   9  18
TORSDOF 2
ENDMDL
MODEL 2
REMARK VINA RESULT:      -7.2      0.804      1.088
REMARK  Name = 
REMARK  4 active torsions:
REMARK  status: ('A' for Active; 'I' for Inactive)
REMARK    1  A    between atoms: C_1  and  C_2
REMARK    2  A    between atoms: C_4  and  N_5
REMARK    3  A    between atoms: C_13  and  C_14
REMARK    4  A    between atoms: C_15  and  C_16
REMARK                            x       y       z     vdW  Elec       q    Type
REMARK                         _______ _______ _______ _____ _____    ______ ____
ROOT
ATOM      1  C   UNL     1       2.163   3.799  21.526  0.00  0.00    +0.000 C 
ATOM      2  C   UNL     1       2.402   4.894  20.516  0.00  0.00    +0.000 A 
ATOM      3  C   UNL     1       3.268   4.562  19.356  0.00  0.00    +0.000 A 
ATOM      4  C   UNL     1       3.519   5.526  18.454  0.00  0.00    +0.000 A 
ATOM      5  N   UNL     1       2.903   6.802  18.668  0.00  0.00    +0.000 N 
ATOM      6  N   UNL     1       3.007   7.929  17.909  0.00  0.00    +0.000 NA
ATOM      7  C   UNL     1       2.254   8.845  18.523  0.00  0.00    +0.000 A 
ATOM      8  C   UNL     1       2.122  10.187  17.900  0.00  0.00    +0.000 C 
ATOM      9  C   UNL     1       1.668   8.349  19.721  0.00  0.00    +0.000 A 
ATOM     10  C   UNL     1       2.086   7.028  19.791  0.00  0.00    +0.000 A 
ATOM     11  N   UNL     1       1.845   6.049  20.721  0.00  0.00    +0.000 NA
ENDROOT
BRANCH   4  12
ATOM     12  N   UNL     1       4.342   5.271  17.334  0.00  0.00    +0.000 N 
ATOM     13  C   UNL     1       4.231   4.063  16.487  0.00  0.00    +0.000 C 
ATOM     14  C   UNL     1       5.633   3.658  15.991  0.00  0.00    +0.000 C 
ATOM     15  O   UNL     1       6.305   4.730  15.307  0.00  0.00    +0.000 OA
ATOM     16  C   UNL     1       6.417   5.874  16.166  0.00  0.00    +0.000 C 
ATOM     17  C   UNL     1       5.034   6.362  16.614  0.00  0.00    +0.000 C 
ENDBRANCH   4  12
BRANCH   9  18
ATOM     18  C   UNL     1       0.838   9.011  20.727  0.00  0.00    +0.000 A 
ATOM     19  C   UNL     1       1.054   8.816  22.100  0.00  0.00    +0.000 A 
ATOM     20  C   UNL     1       0.282   9.495  23.049  0.00  0.00    +0.000 A 
ATOM     21  C   UNL     1      -0.729  10.359  22.642  0.00  0.00    +0.000 A 
ATOM     22  C   UNL     1      -0.971  10.548  21.285  0.00  0.00    +0.000 A 
ATOM     23  C   UNL     1      -0.185   9.886  20.338  0.00  0.00    +0.000 A 
ENDBRANCH   9  18
TORSDOF 2
ENDMDL
MODEL 3
REMARK VINA RESULT:      -7.2      0.041      1.004
REMARK  Name = 
REMARK  4 active torsions:
REMARK  status: ('A' for Active; 'I' for Inactive)
REMARK    1  A    between atoms: C_1  and  C_2
REMARK    2  A    between atoms: C_4  and  N_5
REMARK    3  A    between atoms: C_13  and  C_14
REMARK    4  A    between atoms: C_15  and  C_16
REMARK                            x       y       z     vdW  Elec       q    Type
REMARK                         _______ _______ _______ _____ _____    ______ ____
ROOT
ATOM      1  C   UNL     1       2.124   3.569  21.747  0.00  0.00    +0.000 C 
ATOM      2  C   UNL     1       2.498   4.568  20.680  0.00  0.00    +0.000 A 
ATOM      3  C   UNL     1       3.456   4.113  19.639  0.00  0.00    +0.000 A 
ATOM      4  C   UNL     1       3.827   4.990  18.691  0.00  0.00    +0.000 A 
ATOM      5  N   UNL     1       3.243   6.297  18.741  0.00  0.00    +0.000 N 
ATOM      6  N   UNL     1       3.461   7.353  17.906  0.00  0.00    +0.000 NA
ATOM      7  C   UNL     1       2.689   8.340  18.368  0.00  0.00    +0.000 A 
ATOM      8  C   UNL     1       2.668   9.628  17.629  0.00  0.00    +0.000 C 
ATOM      9  C   UNL     1       1.975   7.965  19.540  0.00  0.00    +0.000 A 
ATOM     10  C   UNL     1       2.334   6.641  19.757  0.00  0.00    +0.000 A 
ATOM     11  N   UNL     1       1.970   5.752  20.735  0.00  0.00    +0.000 NA
ENDROOT
BRANCH   4  12
ATOM     12  N   UNL     1       4.741   4.616  17.680  0.00  0.00    +0.000 N 
ATOM     13  C   UNL     1       6.190   4.421  17.909  0.00  0.00    +0.000 C 
ATOM     14  C   UNL     1       6.969   4.866  16.656  0.00  0.00    +0.000 C 
ATOM     15  O   UNL     1       6.520   4.195  15.464  0.00  0.00    +0.000 OA
ATOM     16  C   UNL     1       5.119   4.427  15.260  0.00  0.00    +0.000 C 
ATOM     17  C   UNL     1       4.299   3.919  16.452  0.00  0.00    +0.000 C 
ENDBRANCH   4  12
BRANCH   9  18
ATOM     18  C   UNL     1       1.081   8.734  20.404  0.00  0.00    +0.000 A 
ATOM     19  C   UNL     1       0.120   9.609  19.873  0.00  0.00    +0.000 A 
ATOM     20  C   UNL     1      -0.761  10.300  20.713  0.00  0.00    +0.000 A 
ATOM     21  C   UNL     1      -0.679  10.146  22.093  0.00  0.00    +0.000 A 
ATOM     22  C   UNL     1       0.281   9.300  22.637  0.00  0.00    +0.000 A 
ATOM     23  C   UNL     1       1.146   8.593  21.796  0.00  0.00    +0.000 A 
ENDBRANCH   9  18
TORSDOF 2
ENDMDL
MODEL 4
REMARK VINA RESULT:      -7.1      0.802      1.490
REMARK  Name = 
REMARK  4 active torsions:
REMARK  status: ('A' for Active; 'I' for Inactive)
REMARK    1  A    between atoms: C_1  and  C_2
REMARK    2  A    between atoms: C_4  and  N_5
REMARK    3  A    between atoms: C_13  and  C_14
REMARK    4  A    between atoms: C_15  and  C_16
REMARK                            x       y       z     vdW  Elec       q    Type
REMARK                         _______ _______ _______ _____ _____    ______ ____
ROOT
ATOM      1  C   UNL     1       2.202   3.860  21.547  0.00  0.00    +0.000 C 
ATOM      2  C   UNL     1       2.437   4.946  20.526  0.00  0.00    +0.000 A 
ATOM      3  C   UNL     1       3.302   4.604  19.367  0.00  0.00    +0.000 A 
ATOM      4  C   UNL     1       3.550   5.560  18.456  0.00  0.00    +0.000 A 
ATOM      5  N   UNL     1       2.932   6.836  18.659  0.00  0.00    +0.000 N 
ATOM      6  N   UNL     1       3.033   7.956  17.888  0.00  0.00    +0.000 NA
ATOM      7  C   UNL     1       2.279   8.877  18.494  0.00  0.00    +0.000 A 
ATOM      8  C   UNL     1       2.144  10.213  17.859  0.00  0.00    +0.000 C 
ATOM      9  C   UNL     1       1.696   8.392  19.698  0.00  0.00    +0.000 A 
ATOM     10  C   UNL     1       2.117   7.072  19.780  0.00  0.00    +0.000 A 
ATOM     11  N   UNL     1       1.879   6.101  20.720  0.00  0.00    +0.000 NA
ENDROOT
BRANCH   4  12
ATOM     12  N   UNL     1       4.371   5.295  17.337  0.00  0.00    +0.000 N 
ATOM     13  C   UNL     1       4.193   4.133  16.439  0.00  0.00    +0.000 C 
ATOM     14  C   UNL     1       5.572   3.654  15.945  0.00  0.00    +0.000 C 
ATOM     15  O   UNL     1       6.325   4.705  15.315  0.00  0.00    +0.000 OA
ATOM     16  C   UNL     1       6.501   5.803  16.222  0.00  0.00    +0.000 C 
ATOM     17  C   UNL     1       5.147   6.365  16.672  0.00  0.00    +0.000 C 
ENDBRANCH   4  12
BRANCH   9  18
ATOM     18  C   UNL     1       0.867   9.062  20.699  0.00  0.00    +0.000 A 
ATOM     19  C   UNL     1      -0.203   9.893  20.329  0.00  0.00    +0.000 A 
ATOM     20  C   UNL     1      -1.017  10.487  21.300  0.00  0.00    +0.000 A 
ATOM     21  C   UNL     1      -0.760  10.281  22.651  0.00  0.00    +0.000 A 
ATOM     22  C   UNL     1       0.310   9.478  23.036  0.00  0.00    +0.000 A 
ATOM     23  C   UNL     1       1.108   8.867  22.065  0.00  0.00    +0.000 A 
ENDBRANCH   9  18
TORSDOF 2
ENDMDL
MODEL 5
REMARK VINA RESULT:      -6.6      3.508      6.817
REMARK  Name = 
REMARK  4 active torsions:
REMARK  status: ('A' for Active; 'I' for Inactive)
REMARK    1  A    between atoms: C_1  and  C_2
REMARK    2  A    between atoms: C_4  and  N_5
REMARK    3  A    between atoms: C_13  and  C_14
REMARK    4  A    between atoms: C_15  and  C_16
REMARK                            x       y       z     vdW  Elec       q    Type
REMARK                         _______ _______ _______ _____ _____    ______ ____
ROOT
ATOM      1  C   UNL     1      -0.122   9.315  23.480  0.00  0.00    +0.000 C 
ATOM      2  C   UNL     1       0.473   9.365  22.094  0.00  0.00    +0.000 A 
ATOM      3  C   UNL     1       0.423  10.671  21.387  0.00  0.00    +0.000 A 
ATOM      4  C   UNL     1       0.921  10.737  20.141  0.00  0.00    +0.000 A 
ATOM      5  N   UNL     1       1.493   9.541  19.598  0.00  0.00    +0.000 N 
ATOM      6  N   UNL     1       2.050   9.353  18.367  0.00  0.00    +0.000 NA
ATOM      7  C   UNL     1       2.433   8.074  18.339  0.00  0.00    +0.000 A 
ATOM      8  C   UNL     1       3.131   7.570  17.129  0.00  0.00    +0.000 C 
ATOM      9  C   UNL     1       2.101   7.383  19.538  0.00  0.00    +0.000 A 
ATOM     10  C   UNL     1       1.508   8.348  20.342  0.00  0.00    +0.000 A 
ATOM     11  N   UNL     1       0.983   8.276  21.607  0.00  0.00    +0.000 NA
ENDROOT
BRANCH   4  12
ATOM     12  N   UNL     1       0.894  11.950  19.416  0.00  0.00    +0.000 N 
ATOM     13  C   UNL     1       2.105  12.650  18.934  0.00  0.00    +0.000 C 
ATOM     14  C   UNL     1       1.871  14.172  18.989  0.00  0.00    +0.000 C 
ATOM     15  O   UNL     1       0.696  14.573  18.262  0.00  0.00    +0.000 OA
ATOM     16  C   UNL     1      -0.461  13.895  18.773  0.00  0.00    +0.000 C 
ATOM     17  C   UNL     1      -0.302  12.375  18.657  0.00  0.00    +0.000 C 
ENDBRANCH   4  12
BRANCH   9  18
ATOM     18  C   UNL     1       2.269   5.980  19.913  0.00  0.00    +0.000 A 
ATOM     19  C   UNL     1       1.217   5.240  20.477  0.00  0.00    +0.000 A 
ATOM     20  C   UNL     1       1.380   3.885  20.784  0.00  0.00    +0.000 A 
ATOM     21  C   UNL     1       2.600   3.256  20.556  0.00  0.00    +0.000 A 
ATOM     22  C   UNL     1       3.660   3.980  20.018  0.00  0.00    +0.000 A 
ATOM     23  C   UNL     1       3.488   5.328  19.690  0.00  0.00    +0.000 A 
ENDBRANCH   9  18
TORSDOF 2
ENDMDL
MODEL 6
REMARK VINA RESULT:      -6.6      3.506      6.800
REMARK  Name = 
REMARK  4 active torsions:
REMARK  status: ('A' for Active; 'I' for Inactive)
REMARK    1  A    between atoms: C_1  and  C_2
REMARK    2  A    between atoms: C_4  and  N_5
REMARK    3  A    between atoms: C_13  and  C_14
REMARK    4  A    between atoms: C_15  and  C_16
REMARK                            x       y       z     vdW  Elec       q    Type
REMARK                         _______ _______ _______ _____ _____    ______ ____
ROOT
ATOM      1  C   UNL     1      -0.155   9.284  23.456  0.00  0.00    +0.000 C 
ATOM      2  C   UNL     1       0.453   9.344  22.077  0.00  0.00    +0.000 A 
ATOM      3  C   UNL     1       0.410  10.655  21.379  0.00  0.00    +0.000 A 
ATOM      4  C   UNL     1       0.922  10.731  20.139  0.00  0.00    +0.000 A 
ATOM      5  N   UNL     1       1.500   9.539  19.593  0.00  0.00    +0.000 N 
ATOM      6  N   UNL     1       2.070   9.361  18.367  0.00  0.00    +0.000 NA
ATOM      7  C   UNL     1       2.454   8.083  18.334  0.00  0.00    +0.000 A 
ATOM      8  C   UNL     1       3.165   7.588  17.127  0.00  0.00    +0.000 C 
ATOM      9  C   UNL     1       2.110   7.383  19.523  0.00  0.00    +0.000 A 
ATOM     10  C   UNL     1       1.509   8.341  20.328  0.00  0.00    +0.000 A 
ATOM     11  N   UNL     1       0.970   8.259  21.587  0.00  0.00    +0.000 NA
ENDROOT
BRANCH   4  12
ATOM     12  N   UNL     1       0.901  11.950  19.423  0.00  0.00    +0.000 N 
ATOM     13  C   UNL     1       2.117  12.657  18.964  0.00  0.00    +0.000 C 
ATOM     14  C   UNL     1       1.877  14.178  19.027  0.00  0.00    +0.000 C 
ATOM     15  O   UNL     1       0.711  14.580  18.286  0.00  0.00    +0.000 OA
ATOM     16  C   UNL     1      -0.451  13.895  18.775  0.00  0.00    +0.000 C 
ATOM     17  C   UNL     1      -0.285  12.376  18.649  0.00  0.00    +0.000 C 
ENDBRANCH   4  12
BRANCH   9  18
ATOM     18  C   UNL     1       2.275   5.977  19.890  0.00  0.00    +0.000 A 
ATOM     19  C   UNL     1       3.495   5.308  19.702  0.00  0.00    +0.000 A 
ATOM     20  C   UNL     1       3.650   3.976  20.104  0.00  0.00    +0.000 A 
ATOM     21  C   UNL     1       2.585   3.288  20.674  0.00  0.00    +0.000 A 
ATOM     22  C   UNL     1       1.362   3.929  20.847  0.00  0.00    +0.000 A 
ATOM     23  C   UNL     1       1.215   5.265  20.466  0.00  0.00    +0.000 A 
ENDBRANCH   9  18
TORSDOF 2
ENDMDL
MODEL 7
REMARK VINA RESULT:      -6.4      5.057      8.949
REMARK  Name = 
REMARK  4 active torsions:
REMARK  status: ('A' for Active; 'I' for Inactive)
REMARK    1  A    between atoms: C_1  and  C_2
REMARK    2  A    between atoms: C_4  and  N_5
REMARK    3  A    between atoms: C_13  and  C_14
REMARK    4  A    between atoms: C_15  and  C_16
REMARK                            x       y       z     vdW  Elec       q    Type
REMARK                         _______ _______ _______ _____ _____    ______ ____
ROOT
ATOM      1  C   UNL     1      -2.429  10.630  16.052  0.00  0.00    +0.000 C 
ATOM      2  C   UNL     1      -1.967  10.766  17.482  0.00  0.00    +0.000 A 
ATOM      3  C   UNL     1      -2.713  11.720  18.342  0.00  0.00    +0.000 A 
ATOM      4  C   UNL     1      -2.306  11.880  19.613  0.00  0.00    +0.000 A 
ATOM      5  N   UNL     1      -1.194  11.090  20.052  0.00  0.00    +0.000 N 
ATOM      6  N   UNL     1      -0.597  11.077  21.277  0.00  0.00    +0.000 NA
ATOM      7  C   UNL     1       0.389  10.182  21.185  0.00  0.00    +0.000 A 
ATOM      8  C   UNL     1       1.205   9.900  22.394  0.00  0.00    +0.000 C 
ATOM      9  C   UNL     1       0.485   9.614  19.885  0.00  0.00    +0.000 A 
ATOM     10  C   UNL     1      -0.551  10.201  19.172  0.00  0.00    +0.000 A 
ATOM     11  N   UNL     1      -0.955  10.052  17.870  0.00  0.00    +0.000 NA
ENDROOT
BRANCH   4  12
ATOM     12  N   UNL     1      -2.972  12.780  20.476  0.00  0.00    +0.000 N 
ATOM     13  C   UNL     1      -2.453  14.118  20.833  0.00  0.00    +0.000 C 
ATOM     14  C   UNL     1      -2.847  14.448  22.286  0.00  0.00    +0.000 C 
ATOM     15  O   UNL     1      -4.265  14.349  22.506  0.00  0.00    +0.000 OA
ATOM     16  C   UNL     1      -4.728  13.032  22.175  0.00  0.00    +0.000 C 
ATOM     17  C   UNL     1      -4.431  12.697  20.708  0.00  0.00    +0.000 C 
ENDBRANCH   4  12
BRANCH   9  18
ATOM     18  C   UNL     1       1.440   8.659  19.324  0.00  0.00    +0.000 A 
ATOM     19  C   UNL     1       1.789   7.483  20.008  0.00  0.00    +0.000 A 
ATOM     20  C   UNL     1       2.667   6.556  19.435  0.00  0.00    +0.000 A 
ATOM     21  C   UNL     1       3.227   6.801  18.185  0.00  0.00    +0.000 A 
ATOM     22  C   UNL     1       2.909   7.971  17.503  0.00  0.00    +0.000 A 
ATOM     23  C   UNL     1       2.014   8.885  18.067  0.00  0.00    +0.000 A 
ENDBRANCH   9  18
TORSDOF 2
ENDMDL
MODEL 8
REMARK VINA RESULT:      -6.4      4.953      8.947
REMARK  Name = 
REMARK  4 active torsions:
REMARK  status: ('A' for Active; 'I' for Inactive)
REMARK    1  A    between atoms: C_1  and  C_2
REMARK    2  A    between atoms: C_4  and  N_5
REMARK    3  A    between atoms: C_13  and  C_14
REMARK    4  A    between atoms: C_15  and  C_16
REMARK                            x       y       z     vdW  Elec       q    Type
REMARK                         _______ _______ _______ _____ _____    ______ ____
ROOT
ATOM      1  C   UNL     1      -2.360  10.874  16.386  0.00  0.00    +0.000 C 
ATOM      2  C   UNL     1      -1.842  10.911  17.803  0.00  0.00    +0.000 A 
ATOM      3  C   UNL     1      -2.504  11.858  18.736  0.00  0.00    +0.000 A 
ATOM      4  C   UNL     1      -2.045  11.931  19.998  0.00  0.00    +0.000 A 
ATOM      5  N   UNL     1      -0.964  11.061  20.355  0.00  0.00    +0.000 N 
ATOM      6  N   UNL     1      -0.327  10.952  21.555  0.00  0.00    +0.000 NA
ATOM      7  C   UNL     1       0.604  10.011  21.383  0.00  0.00    +0.000 A 
ATOM      8  C   UNL     1       1.444   9.624  22.545  0.00  0.00    +0.000 C 
ATOM      9  C   UNL     1       0.624   9.507  20.052  0.00  0.00    +0.000 A 
ATOM     10  C   UNL     1      -0.402  10.185  19.409  0.00  0.00    +0.000 A 
ATOM     11  N   UNL     1      -0.858  10.125  18.116  0.00  0.00    +0.000 NA
ENDROOT
BRANCH   4  12
ATOM     12  N   UNL     1      -2.630  12.819  20.928  0.00  0.00    +0.000 N 
ATOM     13  C   UNL     1      -2.105  14.171  21.221  0.00  0.00    +0.000 C 
ATOM     14  C   UNL     1      -2.340  14.498  22.709  0.00  0.00    +0.000 C 
ATOM     15  O   UNL     1      -3.722  14.367  23.087  0.00  0.00    +0.000 OA
ATOM     16  C   UNL     1      -4.190  13.039  22.814  0.00  0.00    +0.000 C 
ATOM     17  C   UNL     1      -4.052  12.705  21.324  0.00  0.00    +0.000 C 
ENDBRANCH   4  12
BRANCH   9  18
ATOM     18  C   UNL     1       1.504   8.532  19.410  0.00  0.00    +0.000 A 
ATOM     19  C   UNL     1       2.093   8.786  18.161  0.00  0.00    +0.000 A 
ATOM     20  C   UNL     1       2.972   7.862  17.584  0.00  0.00    +0.000 A 
ATOM     21  C   UNL     1       3.257   6.666  18.233  0.00  0.00    +0.000 A 
ATOM     22  C   UNL     1       2.666   6.389  19.461  0.00  0.00    +0.000 A 
ATOM     23  C   UNL     1       1.805   7.321  20.047  0.00  0.00    +0.000 A 
ENDBRANCH   9  18
TORSDOF 2
ENDMDL
MODEL 9
REMARK VINA RESULT:      -6.2      5.013      9.168
REMARK  Name = 
REMARK  4 active torsions:
REMARK  status: ('A' for Active; 'I' for Inactive)
REMARK    1  A    between atoms: C_1  and  C_2
REMARK    2  A    between atoms: C_4  and  N_5
REMARK    3  A    between atoms: C_13  and  C_14
REMARK    4  A    between atoms: C_15  and  C_16
REMARK                            x       y       z     vdW  Elec       q    Type
REMARK                         _______ _______ _______ _____ _____    ______ ____
ROOT
ATOM      1  C   UNL     1      -2.560  11.498  17.375  0.00  0.00    +0.000 C 
ATOM      2  C   UNL     1      -1.914  11.336  18.729  0.00  0.00    +0.000 A 
ATOM      3  C   UNL     1      -2.440  12.184  19.830  0.00  0.00    +0.000 A 
ATOM      4  C   UNL     1      -1.865  12.079  21.041  0.00  0.00    +0.000 A 
ATOM      5  N   UNL     1      -0.802  11.130  21.183  0.00  0.00    +0.000 N 
ATOM      6  N   UNL     1      -0.065  10.847  22.295  0.00  0.00    +0.000 NA
ATOM      7  C   UNL     1       0.798   9.899  21.920  0.00  0.00    +0.000 A 
ATOM      8  C   UNL     1       1.720   9.336  22.940  0.00  0.00    +0.000 C 
ATOM      9  C   UNL     1       0.671   9.565  20.543  0.00  0.00    +0.000 A 
ATOM     10  C   UNL     1      -0.374  10.359  20.088  0.00  0.00    +0.000 A 
ATOM     11  N   UNL     1      -0.947  10.479  18.848  0.00  0.00    +0.000 NA
ENDROOT
BRANCH   4  12
ATOM     12  N   UNL     1      -2.317  12.866  22.124  0.00  0.00    +0.000 N 
ATOM     13  C   UNL     1      -3.251  12.380  23.163  0.00  0.00    +0.000 C 
ATOM     14  C   UNL     1      -4.160  13.539  23.615  0.00  0.00    +0.000 C 
ATOM     15  O   UNL     1      -3.409  14.682  24.064  0.00  0.00    +0.000 OA
ATOM     16  C   UNL     1      -2.534  15.141  23.023  0.00  0.00    +0.000 C 
ATOM     17  C   UNL     1      -1.554  14.039  22.604  0.00  0.00    +0.000 C 
ENDBRANCH   4  12
BRANCH   9  18
ATOM     18  C   UNL     1       1.439   8.645  19.705  0.00  0.00    +0.000 A 
ATOM     19  C   UNL     1       1.931   9.034  18.448  0.00  0.00    +0.000 A 
ATOM     20  C   UNL     1       2.706   8.156  17.681  0.00  0.00    +0.000 A 
ATOM     21  C   UNL     1       2.980   6.874  18.146  0.00  0.00    +0.000 A 
ATOM     22  C   UNL     1       2.482   6.466  19.379  0.00  0.00    +0.000 A 
ATOM     23  C   UNL     1       1.727   7.350  20.154  0.00  0.00    +0.000 A 
ENDBRANCH   9  18
TORSDOF 2
ENDMDL
