MODEL 1
REMARK VINA RESULT:      -7.6      0.000      0.000
REMARK  Name = 
REMARK  7 active torsions:
REMARK  status: ('A' for Active; 'I' for Inactive)
REMARK    1  A    between atoms: C_1  and  C_2
REMARK    2  A    between atoms: N_4  and  C_5
REMARK    3  A    between atoms: C_5  and  C_6
REMARK    4  A    between atoms: C_5  and  C_7
REMARK    5  A    between atoms: C_10  and  O_11
REMARK    6  A    between atoms: O_11  and  C_12
REMARK    7  A    between atoms: N_14  and  C_15
REMARK                            x       y       z     vdW  Elec       q    Type
REMARK                         _______ _______ _______ _____ _____    ______ ____
ROOT
ATOM      1  C   UNL     1       5.462   4.618  15.256  0.00  0.00    +0.000 A 
ATOM      2  C   UNL     1       4.931   3.804  16.268  0.00  0.00    +0.000 A 
ATOM      3  C   UNL     1       4.411   4.368  17.440  0.00  0.00    +0.000 A 
ATOM      4  C   UNL     1       4.417   5.751  17.624  0.00  0.00    +0.000 A 
ATOM      5  C   UNL     1       4.929   6.570  16.621  0.00  0.00    +0.000 A 
ATOM      6  C   UNL     1       5.453   6.010  15.452  0.00  0.00    +0.000 A 
ENDROOT
BRANCH   1   7
ATOM      7  C   UNL     1       6.017   4.003  13.981  0.00  0.00    +0.000 C 
ATOM      8  C   UNL     1       7.243   4.766  13.473  0.00  0.00    +0.000 C 
BRANCH   7  12
ATOM      9  C   UNL     1       3.919   3.244  10.917  0.00  0.00    +0.000 C 
ATOM     10  C   UNL     1       5.055   3.086  11.890  0.00  0.00    +0.000 C 
ATOM     11  O   UNL     1       5.940   2.251  11.742  0.00  0.00    +0.000 OA
ATOM     12  N   UNL     1       4.984   3.952  12.956  0.00  0.00    +0.000 N 
ATOM     13  H   UNL     1       4.276   4.673  12.952  0.00  0.00    +0.000 HD
ENDBRANCH   7  12
ENDBRANCH   1   7
BRANCH   4  14
ATOM     14  O   UNL     1       3.856   6.213  18.791  0.00  0.00    +0.000 OA
BRANCH  14  15
ATOM     15  C   UNL     1       2.545   6.828  18.726  0.00  0.00    +0.000 C 
ATOM     16  C   UNL     1       1.958   7.329  20.055  0.00  0.00    +0.000 C 
ATOM     17  N   UNL     1       1.835   8.632  19.483  0.00  0.00    +0.000 N 
ATOM     18  C   UNL     1       2.470   8.286  18.251  0.00  0.00    +0.000 C 
BRANCH  17  19
ATOM     19  C   UNL     1       0.802   9.564  19.666  0.00  0.00    +0.000 A 
ATOM     20  N   UNL     1       0.019   9.879  18.600  0.00  0.00    +0.000 NA
ATOM     21  C   UNL     1      -0.974  10.784  18.782  0.00  0.00    +0.000 A 
ATOM     22  C   UNL     1      -1.232  11.415  19.990  0.00  0.00    +0.000 A 
ATOM     23 BR   UNL     1      -2.638  12.659  20.150  0.00  0.00    +0.000 Br
ATOM     24  C   UNL     1      -0.433  11.107  21.077  0.00  0.00    +0.000 A 
ATOM     25  C   UNL     1       0.589  10.175  20.912  0.00  0.00    +0.000 A 
ATOM     26  F   UNL     1       1.364   9.883  21.967  0.00  0.00    +0.000 F 
ENDBRANCH  17  19
ENDBRANCH  14  15
ENDBRANCH   4  14
TORSDOF 5
ENDMDL
MODEL 2
REMARK VINA RESULT:      -7.5      6.995      7.999
REMARK  Name = 
REMARK  7 active torsions:
REMARK  status: ('A' for Active; 'I' for Inactive)
REMARK    1  A    between atoms: C_1  and  C_2
REMARK    2  A    between atoms: N_4  and  C_5
REMARK    3  A    between atoms: C_5  and  C_6
REMARK    4  A    between atoms: C_5  and  C_7
REMARK    5  A    between atoms: C_10  and  O_11
REMARK    6  A    between atoms: O_11  and  C_12
REMARK    7  A    between atoms: N_14  and  C_15
REMARK                            x       y       z     vdW  Elec       q    Type
REMARK                         _______ _______ _______ _____ _____    ______ ____
ROOT
ATOM      1  C   UNL     1       6.318   5.549  17.360  0.00  0.00    +0.000 A 
ATOM      2  C   UNL     1       7.159   5.255  18.443  0.00  0.00    +0.000 A 
ATOM      3  C   UNL     1       8.042   6.220  18.945  0.00  0.00    +0.000 A 
ATOM      4  C   UNL     1       8.105   7.490  18.371  0.00  0.00    +0.000 A 
ATOM      5  C   UNL     1       7.267   7.798  17.303  0.00  0.00    +0.000 A 
ATOM      6  C   UNL     1       6.386   6.836  16.798  0.00  0.00    +0.000 A 
ENDROOT
BRANCH   1   7
ATOM      7  C   UNL     1       5.353   4.503  16.824  0.00  0.00    +0.000 C 
ATOM      8  C   UNL     1       5.497   4.324  15.311  0.00  0.00    +0.000 C 
BRANCH   7  12
ATOM      9  C   UNL     1       1.693   4.486  17.806  0.00  0.00    +0.000 C 
ATOM     10  C   UNL     1       3.061   3.914  17.558  0.00  0.00    +0.000 C 
ATOM     11  O   UNL     1       3.317   2.725  17.708  0.00  0.00    +0.000 OA
ATOM     12  N   UNL     1       3.984   4.857  17.171  0.00  0.00    +0.000 N 
ATOM     13  H   UNL     1       3.668   5.797  16.977  0.00  0.00    +0.000 HD
ENDBRANCH   7  12
ENDBRANCH   1   7
BRANCH   4  14
ATOM     14  O   UNL     1       8.979   8.378  18.951  0.00  0.00    +0.000 OA
BRANCH  14  15
ATOM     15  C   UNL     1       8.694   9.794  18.839  0.00  0.00    +0.000 C 
ATOM     16  C   UNL     1       9.221  10.692  19.970  0.00  0.00    +0.000 C 
ATOM     17  N   UNL     1       9.929  11.462  18.998  0.00  0.00    +0.000 N 
ATOM     18  C   UNL     1       9.580  10.622  17.896  0.00  0.00    +0.000 C 
BRANCH  17  19
ATOM     19  C   UNL     1      10.125  12.852  18.969  0.00  0.00    +0.000 A 
ATOM     20  N   UNL     1       9.155  13.630  18.421  0.00  0.00    +0.000 NA
ATOM     21  C   UNL     1       9.352  14.971  18.391  0.00  0.00    +0.000 A 
ATOM     22  C   UNL     1      10.491  15.595  18.880  0.00  0.00    +0.000 A 
ATOM     23 BR   UNL     1      10.677  17.468  18.800  0.00  0.00    +0.000 Br
ATOM     24  C   UNL     1      11.487  14.807  19.430  0.00  0.00    +0.000 A 
ATOM     25  C   UNL     1      11.300  13.429  19.475  0.00  0.00    +0.000 A 
ATOM     26  F   UNL     1      12.271  12.669  20.005  0.00  0.00    +0.000 F 
ENDBRANCH  17  19
ENDBRANCH  14  15
ENDBRANCH   4  14
TORSDOF 5
ENDMDL
MODEL 3
REMARK VINA RESULT:      -7.3      4.392      6.059
REMARK  Name = 
REMARK  7 active torsions:
REMARK  status: ('A' for Active; 'I' for Inactive)
REMARK    1  A    between atoms: C_1  and  C_2
REMARK    2  A    between atoms: N_4  and  C_5
REMARK    3  A    between atoms: C_5  and  C_6
REMARK    4  A    between atoms: C_5  and  C_7
REMARK    5  A    between atoms: C_10  and  O_11
REMARK    6  A    between atoms: O_11  and  C_12
REMARK    7  A    between atoms: N_14  and  C_15
REMARK                            x       y       z     vdW  Elec       q    Type
REMARK                         _______ _______ _______ _____ _____    ______ ____
ROOT
ATOM      1  C   UNL     1       2.748   6.434  19.052  0.00  0.00    +0.000 A 
ATOM      2  C   UNL     1       1.975   7.089  20.021  0.00  0.00    +0.000 A 
ATOM      3  C   UNL     1       1.525   8.400  19.811  0.00  0.00    +0.000 A 
ATOM      4  C   UNL     1       1.844   9.077  18.634  0.00  0.00    +0.000 A 
ATOM      5  C   UNL     1       2.600   8.433  17.659  0.00  0.00    +0.000 A 
ATOM      6  C   UNL     1       3.053   7.126  17.867  0.00  0.00    +0.000 A 
ENDROOT
BRANCH   1   7
ATOM      7  C   UNL     1       3.225   5.008  19.279  0.00  0.00    +0.000 C 
ATOM      8  C   UNL     1       3.333   4.232  17.964  0.00  0.00    +0.000 C 
BRANCH   7  12
ATOM      9  C   UNL     1       1.617   2.585  21.710  0.00  0.00    +0.000 C 
ATOM     10  C   UNL     1       2.706   3.160  20.846  0.00  0.00    +0.000 C 
ATOM     11  O   UNL     1       3.812   2.643  20.746  0.00  0.00    +0.000 OA
ATOM     12  N   UNL     1       2.338   4.322  20.208  0.00  0.00    +0.000 N 
ATOM     13  H   UNL     1       1.377   4.628  20.268  0.00  0.00    +0.000 HD
ENDBRANCH   7  12
ENDBRANCH   1   7
BRANCH   4  14
ATOM     14  O   UNL     1       1.331  10.347  18.504  0.00  0.00    +0.000 OA
BRANCH  14  15
ATOM     15  C   UNL     1       0.007  10.610  19.031  0.00  0.00    +0.000 C 
ATOM     16  C   UNL     1      -0.611  11.973  18.682  0.00  0.00    +0.000 C 
ATOM     17  N   UNL     1      -1.728  11.293  18.109  0.00  0.00    +0.000 N 
ATOM     18  C   UNL     1      -1.185   9.985  18.293  0.00  0.00    +0.000 C 
BRANCH  17  19
ATOM     19  C   UNL     1      -3.083  11.658  18.159  0.00  0.00    +0.000 A 
ATOM     20  N   UNL     1      -3.590  12.101  19.339  0.00  0.00    +0.000 NA
ATOM     21  C   UNL     1      -4.900  12.447  19.382  0.00  0.00    +0.000 A 
ATOM     22  C   UNL     1      -5.756  12.368  18.293  0.00  0.00    +0.000 A 
ATOM     23 BR   UNL     1      -7.564  12.875  18.446  0.00  0.00    +0.000 Br
ATOM     24  C   UNL     1      -5.249  11.908  17.091  0.00  0.00    +0.000 A 
ATOM     25  C   UNL     1      -3.904  11.553  17.025  0.00  0.00    +0.000 A 
ATOM     26  F   UNL     1      -3.418  11.103  15.858  0.00  0.00    +0.000 F 
ENDBRANCH  17  19
ENDBRANCH  14  15
ENDBRANCH   4  14
TORSDOF 5
ENDMDL
MODEL 4
REMARK VINA RESULT:      -7.3      6.731      8.303
REMARK  Name = 
REMARK  7 active torsions:
REMARK  status: ('A' for Active; 'I' for Inactive)
REMARK    1  A    between atoms: C_1  and  C_2
REMARK    2  A    between atoms: N_4  and  C_5
REMARK    3  A    between atoms: C_5  and  C_6
REMARK    4  A    between atoms: C_5  and  C_7
REMARK    5  A    between atoms: C_10  and  O_11
REMARK    6  A    between atoms: O_11  and  C_12
REMARK    7  A    between atoms: N_14  and  C_15
REMARK                            x       y       z     vdW  Elec       q    Type
REMARK                         _______ _______ _______ _____ _____    ______ ____
ROOT
ATOM      1  C   UNL     1       5.626   5.128  18.279  0.00  0.00    +0.000 A 
ATOM      2  C   UNL     1       5.254   6.095  17.335  0.00  0.00    +0.000 A 
ATOM      3  C   UNL     1       6.099   7.175  17.046  0.00  0.00    +0.000 A 
ATOM      4  C   UNL     1       7.324   7.309  17.700  0.00  0.00    +0.000 A 
ATOM      5  C   UNL     1       7.710   6.348  18.631  0.00  0.00    +0.000 A 
ATOM      6  C   UNL     1       6.867   5.271  18.922  0.00  0.00    +0.000 A 
ENDROOT
BRANCH   1   7
ATOM      7  C   UNL     1       4.711   3.951  18.582  0.00  0.00    +0.000 C 
ATOM      8  C   UNL     1       4.214   3.278  17.300  0.00  0.00    +0.000 C 
BRANCH   7  12
ATOM      9  C   UNL     1       1.790   4.173  20.987  0.00  0.00    +0.000 C 
ATOM     10  C   UNL     1       2.966   3.542  20.293  0.00  0.00    +0.000 C 
ATOM     11  O   UNL     1       3.333   2.396  20.524  0.00  0.00    +0.000 OA
ATOM     12  N   UNL     1       3.588   4.385  19.401  0.00  0.00    +0.000 N 
ATOM     13  H   UNL     1       3.164   5.279  19.199  0.00  0.00    +0.000 HD
ENDBRANCH   7  12
ENDBRANCH   1   7
BRANCH   4  14
ATOM     14  O   UNL     1       8.098   8.383  17.328  0.00  0.00    +0.000 OA
BRANCH  14  15
ATOM     15  C   UNL     1       8.071   9.570  18.159  0.00  0.00    +0.000 C 
ATOM     16  C   UNL     1       9.251   9.758  19.125  0.00  0.00    +0.000 C 
ATOM     17  N   UNL     1       9.511  11.027  18.524  0.00  0.00    +0.000 N 
ATOM     18  C   UNL     1       8.507  10.894  17.517  0.00  0.00    +0.000 C 
BRANCH  17  19
ATOM     19  C   UNL     1       9.927  12.213  19.149  0.00  0.00    +0.000 A 
ATOM     20  N   UNL     1       8.979  13.104  19.540  0.00  0.00    +0.000 NA
ATOM     21  C   UNL     1       9.387  14.250  20.139  0.00  0.00    +0.000 A 
ATOM     22  C   UNL     1      10.717  14.570  20.368  0.00  0.00    +0.000 A 
ATOM     23 BR   UNL     1      11.191  16.187  21.212  0.00  0.00    +0.000 Br
ATOM     24  C   UNL     1      11.689  13.672  19.963  0.00  0.00    +0.000 A 
ATOM     25  C   UNL     1      11.289  12.486  19.351  0.00  0.00    +0.000 A 
ATOM     26  F   UNL     1      12.235  11.620  18.956  0.00  0.00    +0.000 F 
ENDBRANCH  17  19
ENDBRANCH  14  15
ENDBRANCH   4  14
TORSDOF 5
ENDMDL
MODEL 5
REMARK VINA RESULT:      -7.3      3.479      4.572
REMARK  Name = 
REMARK  7 active torsions:
REMARK  status: ('A' for Active; 'I' for Inactive)
REMARK    1  A    between atoms: C_1  and  C_2
REMARK    2  A    between atoms: N_4  and  C_5
REMARK    3  A    between atoms: C_5  and  C_6
REMARK    4  A    between atoms: C_5  and  C_7
REMARK    5  A    between atoms: C_10  and  O_11
REMARK    6  A    between atoms: O_11  and  C_12
REMARK    7  A    between atoms: N_14  and  C_15
REMARK                            x       y       z     vdW  Elec       q    Type
REMARK                         _______ _______ _______ _____ _____    ______ ____
ROOT
ATOM      1  C   UNL     1       3.106   5.119  18.300  0.00  0.00    +0.000 A 
ATOM      2  C   UNL     1       2.486   4.531  19.411  0.00  0.00    +0.000 A 
ATOM      3  C   UNL     1       1.825   5.319  20.363  0.00  0.00    +0.000 A 
ATOM      4  C   UNL     1       1.777   6.706  20.223  0.00  0.00    +0.000 A 
ATOM      5  C   UNL     1       2.379   7.302  19.117  0.00  0.00    +0.000 A 
ATOM      6  C   UNL     1       3.042   6.517  18.168  0.00  0.00    +0.000 A 
ENDROOT
BRANCH   1   7
ATOM      7  C   UNL     1       3.814   4.260  17.264  0.00  0.00    +0.000 C 
ATOM      8  C   UNL     1       3.720   2.771  17.608  0.00  0.00    +0.000 C 
BRANCH   7  12
ATOM      9  C   UNL     1       7.471   5.070  17.839  0.00  0.00    +0.000 C 
ATOM     10  C   UNL     1       6.108   4.522  18.161  0.00  0.00    +0.000 C 
ATOM     11  O   UNL     1       5.849   3.982  19.231  0.00  0.00    +0.000 OA
ATOM     12  N   UNL     1       5.204   4.670  17.135  0.00  0.00    +0.000 N 
ATOM     13  H   UNL     1       5.472   5.212  16.326  0.00  0.00    +0.000 HD
ENDBRANCH   7  12
ENDBRANCH   1   7
BRANCH   4  14
ATOM     14  O   UNL     1       1.079   7.392  21.189  0.00  0.00    +0.000 OA
BRANCH  14  15
ATOM     15  C   UNL     1       1.207   8.835  21.233  0.00  0.00    +0.000 C 
ATOM     16  C   UNL     1       0.016   9.645  20.696  0.00  0.00    +0.000 C 
ATOM     17  N   UNL     1      -0.074  10.306  21.958  0.00  0.00    +0.000 N 
ATOM     18  C   UNL     1       0.950   9.527  22.579  0.00  0.00    +0.000 C 
BRANCH  17  19
ATOM     19  C   UNL     1      -0.378  11.653  22.211  0.00  0.00    +0.000 A 
ATOM     20  N   UNL     1       0.439  12.608  21.695  0.00  0.00    +0.000 NA
ATOM     21  C   UNL     1       0.142  13.908  21.947  0.00  0.00    +0.000 A 
ATOM     22  C   UNL     1      -0.942  14.318  22.708  0.00  0.00    +0.000 A 
ATOM     23 BR   UNL     1      -1.279  16.149  23.002  0.00  0.00    +0.000 Br
ATOM     24  C   UNL     1      -1.773  13.350  23.245  0.00  0.00    +0.000 A 
ATOM     25  C   UNL     1      -1.488  12.011  22.993  0.00  0.00    +0.000 A 
ATOM     26  F   UNL     1      -2.294  11.076  23.520  0.00  0.00    +0.000 F 
ENDBRANCH  17  19
ENDBRANCH  14  15
ENDBRANCH   4  14
TORSDOF 5
ENDMDL
MODEL 6
REMARK VINA RESULT:      -7.2      2.164      2.783
REMARK  Name = 
REMARK  7 active torsions:
REMARK  status: ('A' for Active; 'I' for Inactive)
REMARK    1  A    between atoms: C_1  and  C_2
REMARK    2  A    between atoms: N_4  and  C_5
REMARK    3  A    between atoms: C_5  and  C_6
REMARK    4  A    between atoms: C_5  and  C_7
REMARK    5  A    between atoms: C_10  and  O_11
REMARK    6  A    between atoms: O_11  and  C_12
REMARK    7  A    between atoms: N_14  and  C_15
REMARK                            x       y       z     vdW  Elec       q    Type
REMARK                         _______ _______ _______ _____ _____    ______ ____
ROOT
ATOM      1  C   UNL     1       5.542   5.266  17.002  0.00  0.00    +0.000 A 
ATOM      2  C   UNL     1       4.511   4.578  17.657  0.00  0.00    +0.000 A 
ATOM      3  C   UNL     1       3.352   5.250  18.069  0.00  0.00    +0.000 A 
ATOM      4  C   UNL     1       3.207   6.619  17.839  0.00  0.00    +0.000 A 
ATOM      5  C   UNL     1       4.219   7.310  17.178  0.00  0.00    +0.000 A 
ATOM      6  C   UNL     1       5.378   6.642  16.768  0.00  0.00    +0.000 A 
ENDROOT
BRANCH   1   7
ATOM      7  C   UNL     1       6.793   4.531  16.547  0.00  0.00    +0.000 C 
ATOM      8  C   UNL     1       7.845   4.465  17.658  0.00  0.00    +0.000 C 
BRANCH   7  12
ATOM      9  C   UNL     1       7.796   5.458  13.011  0.00  0.00    +0.000 C 
ATOM     10  C   UNL     1       7.075   4.699  14.091  0.00  0.00    +0.000 C 
ATOM     11  O   UNL     1       6.311   3.772  13.848  0.00  0.00    +0.000 OA
ATOM     12  N   UNL     1       7.344   5.165  15.357  0.00  0.00    +0.000 N 
ATOM     13  H   UNL     1       8.059   5.869  15.475  0.00  0.00    +0.000 HD
ENDBRANCH   7  12
ENDBRANCH   1   7
BRANCH   4  14
ATOM     14  O   UNL     1       2.024   7.184  18.251  0.00  0.00    +0.000 OA
BRANCH  14  15
ATOM     15  C   UNL     1       2.059   8.520  18.810  0.00  0.00    +0.000 C 
ATOM     16  C   UNL     1       1.202   9.582  18.104  0.00  0.00    +0.000 C 
ATOM     17  N   UNL     1       0.531   9.829  19.340  0.00  0.00    +0.000 N 
ATOM     18  C   UNL     1       1.200   8.789  20.054  0.00  0.00    +0.000 C 
BRANCH  17  19
ATOM     19  C   UNL     1       0.091  11.059  19.856  0.00  0.00    +0.000 A 
ATOM     20  N   UNL     1       0.960  11.797  20.594  0.00  0.00    +0.000 NA
ATOM     21  C   UNL     1       0.527  12.981  21.094  0.00  0.00    +0.000 A 
ATOM     22  C   UNL     1      -0.753  13.479  20.903  0.00  0.00    +0.000 A 
ATOM     23 BR   UNL     1      -1.265  15.139  21.634  0.00  0.00    +0.000 Br
ATOM     24  C   UNL     1      -1.646  12.727  20.160  0.00  0.00    +0.000 A 
ATOM     25  C   UNL     1      -1.219  11.511  19.633  0.00  0.00    +0.000 A 
ATOM     26  F   UNL     1      -2.090  10.783  18.917  0.00  0.00    +0.000 F 
ENDBRANCH  17  19
ENDBRANCH  14  15
ENDBRANCH   4  14
TORSDOF 5
ENDMDL
MODEL 7
REMARK VINA RESULT:      -7.2      2.995      4.385
REMARK  Name = 
REMARK  7 active torsions:
REMARK  status: ('A' for Active; 'I' for Inactive)
REMARK    1  A    between atoms: C_1  and  C_2
REMARK    2  A    between atoms: N_4  and  C_5
REMARK    3  A    between atoms: C_5  and  C_6
REMARK    4  A    between atoms: C_5  and  C_7
REMARK    5  A    between atoms: C_10  and  O_11
REMARK    6  A    between atoms: O_11  and  C_12
REMARK    7  A    between atoms: N_14  and  C_15
REMARK                            x       y       z     vdW  Elec       q    Type
REMARK                         _______ _______ _______ _____ _____    ______ ____
ROOT
ATOM      1  C   UNL     1       2.810   5.293  18.357  0.00  0.00    +0.000 A 
ATOM      2  C   UNL     1       2.362   4.825  19.601  0.00  0.00    +0.000 A 
ATOM      3  C   UNL     1       1.919   5.720  20.584  0.00  0.00    +0.000 A 
ATOM      4  C   UNL     1       1.921   7.094  20.344  0.00  0.00    +0.000 A 
ATOM      5  C   UNL     1       2.352   7.570  19.108  0.00  0.00    +0.000 A 
ATOM      6  C   UNL     1       2.798   6.679  18.126  0.00  0.00    +0.000 A 
ENDROOT
BRANCH   1   7
ATOM      7  C   UNL     1       3.280   4.318  17.288  0.00  0.00    +0.000 C 
ATOM      8  C   UNL     1       2.597   2.955  17.428  0.00  0.00    +0.000 C 
BRANCH   7  12
ATOM      9  C   UNL     1       7.013   4.504  16.660  0.00  0.00    +0.000 C 
ATOM     10  C   UNL     1       5.560   4.847  16.476  0.00  0.00    +0.000 C 
ATOM     11  O   UNL     1       5.174   5.661  15.646  0.00  0.00    +0.000 OA
ATOM     12  N   UNL     1       4.728   4.174  17.340  0.00  0.00    +0.000 N 
ATOM     13  H   UNL     1       5.118   3.450  17.927  0.00  0.00    +0.000 HD
ENDBRANCH   7  12
ENDBRANCH   1   7
BRANCH   4  14
ATOM     14  O   UNL     1       1.440   7.890  21.356  0.00  0.00    +0.000 OA
BRANCH  14  15
ATOM     15  C   UNL     1       0.452   8.898  21.025  0.00  0.00    +0.000 C 
ATOM     16  C   UNL     1      -0.513   9.306  22.149  0.00  0.00    +0.000 C 
ATOM     17  N   UNL     1      -0.089  10.661  21.989  0.00  0.00    +0.000 N 
ATOM     18  C   UNL     1       0.912  10.363  21.015  0.00  0.00    +0.000 C 
BRANCH  17  19
ATOM     19  C   UNL     1      -0.866  11.827  22.071  0.00  0.00    +0.000 A 
ATOM     20  N   UNL     1      -0.764  12.595  23.187  0.00  0.00    +0.000 NA
ATOM     21  C   UNL     1      -1.521  13.718  23.262  0.00  0.00    +0.000 A 
ATOM     22  C   UNL     1      -2.399  14.124  22.268  0.00  0.00    +0.000 A 
ATOM     23 BR   UNL     1      -3.409  15.704  22.457  0.00  0.00    +0.000 Br
ATOM     24  C   UNL     1      -2.515  13.342  21.132  0.00  0.00    +0.000 A 
ATOM     25  C   UNL     1      -1.742  12.188  21.034  0.00  0.00    +0.000 A 
ATOM     26  F   UNL     1      -1.861  11.430  19.934  0.00  0.00    +0.000 F 
ENDBRANCH  17  19
ENDBRANCH  14  15
ENDBRANCH   4  14
TORSDOF 5
ENDMDL
MODEL 8
REMARK VINA RESULT:      -7.2      3.628      5.294
REMARK  Name = 
REMARK  7 active torsions:
REMARK  status: ('A' for Active; 'I' for Inactive)
REMARK    1  A    between atoms: C_1  and  C_2
REMARK    2  A    between atoms: N_4  and  C_5
REMARK    3  A    between atoms: C_5  and  C_6
REMARK    4  A    between atoms: C_5  and  C_7
REMARK    5  A    between atoms: C_10  and  O_11
REMARK    6  A    between atoms: O_11  and  C_12
REMARK    7  A    between atoms: N_14  and  C_15
REMARK                            x       y       z     vdW  Elec       q    Type
REMARK                         _______ _______ _______ _____ _____    ______ ____
ROOT
ATOM      1  C   UNL     1       3.008   6.319  18.779  0.00  0.00    +0.000 A 
ATOM      2  C   UNL     1       3.058   7.269  17.749  0.00  0.00    +0.000 A 
ATOM      3  C   UNL     1       2.465   8.528  17.907  0.00  0.00    +0.000 A 
ATOM      4  C   UNL     1       1.807   8.857  19.092  0.00  0.00    +0.000 A 
ATOM      5  C   UNL     1       1.761   7.928  20.128  0.00  0.00    +0.000 A 
ATOM      6  C   UNL     1       2.350   6.669  19.971  0.00  0.00    +0.000 A 
ENDROOT
BRANCH   1   7
ATOM      7  C   UNL     1       3.662   4.957  18.608  0.00  0.00    +0.000 C 
ATOM      8  C   UNL     1       3.286   4.003  19.746  0.00  0.00    +0.000 C 
BRANCH   7  12
ATOM      9  C   UNL     1       7.311   4.791  17.600  0.00  0.00    +0.000 C 
ATOM     10  C   UNL     1       5.828   4.586  17.464  0.00  0.00    +0.000 C 
ATOM     11  O   UNL     1       5.324   4.029  16.495  0.00  0.00    +0.000 OA
ATOM     12  N   UNL     1       5.108   5.102  18.516  0.00  0.00    +0.000 N 
ATOM     13  H   UNL     1       5.607   5.458  19.319  0.00  0.00    +0.000 HD
ENDBRANCH   7  12
ENDBRANCH   1   7
BRANCH   4  14
ATOM     14  O   UNL     1       1.284  10.127  19.166  0.00  0.00    +0.000 OA
BRANCH  14  15
ATOM     15  C   UNL     1       0.099  10.427  18.387  0.00  0.00    +0.000 C 
ATOM     16  C   UNL     1      -1.229   9.860  18.914  0.00  0.00    +0.000 C 
ATOM     17  N   UNL     1      -1.756  11.187  18.945  0.00  0.00    +0.000 N 
ATOM     18  C   UNL     1      -0.531  11.816  18.565  0.00  0.00    +0.000 C 
BRANCH  17  19
ATOM     19  C   UNL     1      -3.055  11.611  18.625  0.00  0.00    +0.000 A 
ATOM     20  N   UNL     1      -3.790  12.227  19.588  0.00  0.00    +0.000 NA
ATOM     21  C   UNL     1      -5.046  12.630  19.275  0.00  0.00    +0.000 A 
ATOM     22  C   UNL     1      -5.629  12.441  18.030  0.00  0.00    +0.000 A 
ATOM     23 BR   UNL     1      -7.382  13.038  17.683  0.00  0.00    +0.000 Br
ATOM     24  C   UNL     1      -4.890  11.805  17.047  0.00  0.00    +0.000 A 
ATOM     25  C   UNL     1      -3.596  11.390  17.348  0.00  0.00    +0.000 A 
ATOM     26  F   UNL     1      -2.885  10.770  16.394  0.00  0.00    +0.000 F 
ENDBRANCH  17  19
ENDBRANCH  14  15
ENDBRANCH   4  14
TORSDOF 5
ENDMDL
MODEL 9
REMARK VINA RESULT:      -7.2      2.360      3.341
REMARK  Name = 
REMARK  7 active torsions:
REMARK  status: ('A' for Active; 'I' for Inactive)
REMARK    1  A    between atoms: C_1  and  C_2
REMARK    2  A    between atoms: N_4  and  C_5
REMARK    3  A    between atoms: C_5  and  C_6
REMARK    4  A    between atoms: C_5  and  C_7
REMARK    5  A    between atoms: C_10  and  O_11
REMARK    6  A    between atoms: O_11  and  C_12
REMARK    7  A    between atoms: N_14  and  C_15
REMARK                            x       y       z     vdW  Elec       q    Type
REMARK                         _______ _______ _______ _____ _____    ______ ____
ROOT
ATOM      1  C   UNL     1       5.492   5.543  18.097  0.00  0.00    +0.000 A 
ATOM      2  C   UNL     1       4.978   6.643  17.395  0.00  0.00    +0.000 A 
ATOM      3  C   UNL     1       3.734   7.191  17.734  0.00  0.00    +0.000 A 
ATOM      4  C   UNL     1       2.980   6.646  18.774  0.00  0.00    +0.000 A 
ATOM      5  C   UNL     1       3.485   5.561  19.487  0.00  0.00    +0.000 A 
ATOM      6  C   UNL     1       4.725   5.011  19.148  0.00  0.00    +0.000 A 
ENDROOT
BRANCH   1   7
ATOM      7  C   UNL     1       6.847   4.959  17.733  0.00  0.00    +0.000 C 
ATOM      8  C   UNL     1       7.953   5.478  18.656  0.00  0.00    +0.000 C 
BRANCH   7  12
ATOM      9  C   UNL     1       7.227   4.888  13.963  0.00  0.00    +0.000 C 
ATOM     10  C   UNL     1       6.735   4.442  15.312  0.00  0.00    +0.000 C 
ATOM     11  O   UNL     1       6.009   3.466  15.461  0.00  0.00    +0.000 OA
ATOM     12  N   UNL     1       7.163   5.248  16.341  0.00  0.00    +0.000 N 
ATOM     13  H   UNL     1       7.837   5.974  16.143  0.00  0.00    +0.000 HD
ENDBRANCH   7  12
ENDBRANCH   1   7
BRANCH   4  14
ATOM     14  O   UNL     1       1.787   7.269  19.054  0.00  0.00    +0.000 OA
BRANCH  14  15
ATOM     15  C   UNL     1       1.826   8.606  19.611  0.00  0.00    +0.000 C 
ATOM     16  C   UNL     1       0.655   9.534  19.250  0.00  0.00    +0.000 C 
ATOM     17  N   UNL     1       0.393   9.707  20.642  0.00  0.00    +0.000 N 
ATOM     18  C   UNL     1       1.387   8.777  21.073  0.00  0.00    +0.000 C 
BRANCH  17  19
ATOM     19  C   UNL     1      -0.014  10.874  21.309  0.00  0.00    +0.000 A 
ATOM     20  N   UNL     1       0.397  12.074  20.820  0.00  0.00    +0.000 NA
ATOM     21  C   UNL     1       0.005  13.197  21.471  0.00  0.00    +0.000 A 
ATOM     22  C   UNL     1      -0.785  13.192  22.612  0.00  0.00    +0.000 A 
ATOM     23 BR   UNL     1      -1.284  14.806  23.448  0.00  0.00    +0.000 Br
ATOM     24  C   UNL     1      -1.199  11.974  23.120  0.00  0.00    +0.000 A 
ATOM     25  C   UNL     1      -0.811  10.810  22.462  0.00  0.00    +0.000 A 
ATOM     26  F   UNL     1      -1.211   9.630  22.962  0.00  0.00    +0.000 F 
ENDBRANCH  17  19
ENDBRANCH  14  15
ENDBRANCH   4  14
TORSDOF 5
ENDMDL
