MODEL 1
REMARK VINA RESULT:      -7.1      0.000      0.000
REMARK  Name = 
REMARK  6 active torsions:
REMARK  status: ('A' for Active; 'I' for Inactive)
REMARK    1  A    between atoms: C_1  and  C_2
REMARK    2  A    between atoms: C_2  and  N_3
REMARK    3  A    between atoms: N_3  and  C_4
REMARK    4  A    between atoms: C_4  and  C_5
REMARK    5  A    between atoms: N_9  and  C_10
REMARK    6  A    between atoms: C_10  and  C_11
REMARK                            x       y       z     vdW  Elec       q    Type
REMARK                         _______ _______ _______ _____ _____    ______ ____
ROOT
ATOM      1  C   UNL     1       6.815   5.983  16.943  0.00  0.00    +0.000 C 
ATOM      2  C   UNL     1       7.395   5.080  18.060  0.00  0.00    +0.000 C 
ATOM      3  C   UNL     1       6.699   5.283  19.407  0.00  0.00    +0.000 C 
ATOM      4  N   UNL     1       5.240   5.137  19.334  0.00  0.00    +0.000 NA
ATOM      5  C   UNL     1       4.695   6.104  18.372  0.00  0.00    +0.000 C 
ATOM      6  C   UNL     1       5.270   5.944  16.958  0.00  0.00    +0.000 C 
ENDROOT
BRANCH   1   7
ATOM      7  N   UNL     1       7.355   5.430  15.665  0.00  0.00    +0.000 NA
ATOM      8  H   UNL     1       7.291   6.147  14.942  0.00  0.00    +0.000 HD
BRANCH   7  10
ATOM      9  C   UNL     1       6.561   4.279  13.672  0.00  0.00    +0.000 C 
ATOM     10  C   UNL     1       6.713   4.206  15.186  0.00  0.00    +0.000 C 
ENDBRANCH   7  10
ENDBRANCH   1   7
BRANCH   1  11
ATOM     11  C   UNL     1       7.279   7.379  17.182  0.00  0.00    +0.000 C 
ATOM     12  N   UNL     1       7.630   8.471  17.375  0.00  0.00    +0.000 NA
ENDBRANCH   1  11
BRANCH   4  13
ATOM     13  C   UNL     1       4.787   3.764  19.036  0.00  0.00    +0.000 C 
BRANCH  13  14
ATOM     14  C   UNL     1       3.321   3.514  19.316  0.00  0.00    +0.000 A 
ATOM     15  C   UNL     1       2.764   3.840  20.561  0.00  0.00    +0.000 A 
ATOM     16  C   UNL     1       1.410   3.616  20.810  0.00  0.00    +0.000 A 
ATOM     17  C   UNL     1       0.598   3.063  19.819  0.00  0.00    +0.000 A 
ATOM     18  C   UNL     1       1.139   2.734  18.579  0.00  0.00    +0.000 A 
ATOM     19  C   UNL     1       2.493   2.960  18.327  0.00  0.00    +0.000 A 
ENDBRANCH  13  14
ENDBRANCH   4  13
TORSDOF 5
ENDMDL
MODEL 2
REMARK VINA RESULT:      -7.1      0.116      1.144
REMARK  Name = 
REMARK  6 active torsions:
REMARK  status: ('A' for Active; 'I' for Inactive)
REMARK    1  A    between atoms: C_1  and  C_2
REMARK    2  A    between atoms: C_2  and  N_3
REMARK    3  A    between atoms: N_3  and  C_4
REMARK    4  A    between atoms: C_4  and  C_5
REMARK    5  A    between atoms: N_9  and  C_10
REMARK    6  A    between atoms: C_10  and  C_11
REMARK                            x       y       z     vdW  Elec       q    Type
REMARK                         _______ _______ _______ _____ _____    ______ ____
ROOT
ATOM      1  C   UNL     1       6.796   6.062  16.961  0.00  0.00    +0.000 C 
ATOM      2  C   UNL     1       7.384   5.133  18.051  0.00  0.00    +0.000 C 
ATOM      3  C   UNL     1       6.704   5.310  19.410  0.00  0.00    +0.000 C 
ATOM      4  N   UNL     1       5.244   5.172  19.351  0.00  0.00    +0.000 NA
ATOM      5  C   UNL     1       4.692   6.162  18.416  0.00  0.00    +0.000 C 
ATOM      6  C   UNL     1       5.251   6.030  16.992  0.00  0.00    +0.000 C 
ENDROOT
BRANCH   1   7
ATOM      7  N   UNL     1       7.319   5.535  15.665  0.00  0.00    +0.000 NA
ATOM      8  H   UNL     1       7.071   6.186  14.920  0.00  0.00    +0.000 HD
BRANCH   7  10
ATOM      9  C   UNL     1       6.269   4.230  13.898  0.00  0.00    +0.000 C 
ATOM     10  C   UNL     1       6.864   4.194  15.301  0.00  0.00    +0.000 C 
ENDBRANCH   7  10
ENDBRANCH   1   7
BRANCH   1  11
ATOM     11  C   UNL     1       7.268   7.452  17.224  0.00  0.00    +0.000 C 
ATOM     12  N   UNL     1       7.644   8.535  17.420  0.00  0.00    +0.000 NA
ENDBRANCH   1  11
BRANCH   4  13
ATOM     13  C   UNL     1       4.781   3.808  19.028  0.00  0.00    +0.000 C 
BRANCH  13  14
ATOM     14  C   UNL     1       3.313   3.563  19.302  0.00  0.00    +0.000 A 
ATOM     15  C   UNL     1       2.489   2.987  18.326  0.00  0.00    +0.000 A 
ATOM     16  C   UNL     1       1.138   2.756  18.588  0.00  0.00    +0.000 A 
ATOM     17  C   UNL     1       0.597   3.098  19.828  0.00  0.00    +0.000 A 
ATOM     18  C   UNL     1       1.406   3.671  20.806  0.00  0.00    +0.000 A 
ATOM     19  C   UNL     1       2.758   3.901  20.546  0.00  0.00    +0.000 A 
ENDBRANCH  13  14
ENDBRANCH   4  13
TORSDOF 5
ENDMDL
MODEL 3
REMARK VINA RESULT:      -7.0      0.843      1.255
REMARK  Name = 
REMARK  6 active torsions:
REMARK  status: ('A' for Active; 'I' for Inactive)
REMARK    1  A    between atoms: C_1  and  C_2
REMARK    2  A    between atoms: C_2  and  N_3
REMARK    3  A    between atoms: N_3  and  C_4
REMARK    4  A    between atoms: C_4  and  C_5
REMARK    5  A    between atoms: N_9  and  C_10
REMARK    6  A    between atoms: C_10  and  C_11
REMARK                            x       y       z     vdW  Elec       q    Type
REMARK                         _______ _______ _______ _____ _____    ______ ____
ROOT
ATOM      1  C   UNL     1       6.674   6.057  16.721  0.00  0.00    +0.000 C 
ATOM      2  C   UNL     1       6.824   5.060  17.897  0.00  0.00    +0.000 C 
ATOM      3  C   UNL     1       5.963   5.433  19.105  0.00  0.00    +0.000 C 
ATOM      4  N   UNL     1       4.547   5.624  18.770  0.00  0.00    +0.000 NA
ATOM      5  C   UNL     1       4.417   6.678  17.755  0.00  0.00    +0.000 C 
ATOM      6  C   UNL     1       5.184   6.373  16.461  0.00  0.00    +0.000 C 
ENDROOT
BRANCH   1   7
ATOM      7  N   UNL     1       7.294   5.380  15.543  0.00  0.00    +0.000 NA
ATOM      8  H   UNL     1       7.249   6.007  14.740  0.00  0.00    +0.000 HD
BRANCH   7  10
ATOM      9  C   UNL     1       6.343   4.105  13.700  0.00  0.00    +0.000 C 
ATOM     10  C   UNL     1       6.710   4.089  15.179  0.00  0.00    +0.000 C 
ENDBRANCH   7  10
ENDBRANCH   1   7
BRANCH   1  11
ATOM     11  C   UNL     1       7.393   7.314  17.078  0.00  0.00    +0.000 C 
ATOM     12  N   UNL     1       7.963   8.290  17.352  0.00  0.00    +0.000 NA
ENDBRANCH   1  11
BRANCH   4  13
ATOM     13  C   UNL     1       3.854   4.387  18.357  0.00  0.00    +0.000 C 
BRANCH  13  14
ATOM     14  C   UNL     1       2.937   3.801  19.409  0.00  0.00    +0.000 A 
ATOM     15  C   UNL     1       1.549   3.978  19.327  0.00  0.00    +0.000 A 
ATOM     16  C   UNL     1       0.708   3.427  20.295  0.00  0.00    +0.000 A 
ATOM     17  C   UNL     1       1.246   2.695  21.353  0.00  0.00    +0.000 A 
ATOM     18  C   UNL     1       2.623   2.513  21.446  0.00  0.00    +0.000 A 
ATOM     19  C   UNL     1       3.466   3.061  20.478  0.00  0.00    +0.000 A 
ENDBRANCH  13  14
ENDBRANCH   4  13
TORSDOF 5
ENDMDL
MODEL 4
REMARK VINA RESULT:      -6.9      1.042      1.543
REMARK  Name = 
REMARK  6 active torsions:
REMARK  status: ('A' for Active; 'I' for Inactive)
REMARK    1  A    between atoms: C_1  and  C_2
REMARK    2  A    between atoms: C_2  and  N_3
REMARK    3  A    between atoms: N_3  and  C_4
REMARK    4  A    between atoms: C_4  and  C_5
REMARK    5  A    between atoms: N_9  and  C_10
REMARK    6  A    between atoms: C_10  and  C_11
REMARK                            x       y       z     vdW  Elec       q    Type
REMARK                         _______ _______ _______ _____ _____    ______ ____
ROOT
ATOM      1  C   UNL     1       6.554   6.173  16.728  0.00  0.00    +0.000 C 
ATOM      2  C   UNL     1       6.283   5.109  17.821  0.00  0.00    +0.000 C 
ATOM      3  C   UNL     1       5.263   5.574  18.861  0.00  0.00    +0.000 C 
ATOM      4  N   UNL     1       4.001   6.036  18.269  0.00  0.00    +0.000 NA
ATOM      5  C   UNL     1       4.267   7.144  17.342  0.00  0.00    +0.000 C 
ATOM      6  C   UNL     1       5.227   6.768  16.205  0.00  0.00    +0.000 C 
ENDROOT
BRANCH   1   7
ATOM      7  N   UNL     1       7.286   5.452  15.644  0.00  0.00    +0.000 NA
ATOM      8  H   UNL     1       7.308   6.042  14.812  0.00  0.00    +0.000 HD
BRANCH   7  10
ATOM      9  C   UNL     1       6.369   4.138  13.811  0.00  0.00    +0.000 C 
ATOM     10  C   UNL     1       6.748   4.139  15.287  0.00  0.00    +0.000 C 
ENDBRANCH   7  10
ENDBRANCH   1   7
BRANCH   1  11
ATOM     11  C   UNL     1       7.383   7.258  17.327  0.00  0.00    +0.000 C 
ATOM     12  N   UNL     1       8.020   8.113  17.792  0.00  0.00    +0.000 NA
ENDBRANCH   1  11
BRANCH   4  13
ATOM     13  C   UNL     1       3.213   4.969  17.623  0.00  0.00    +0.000 C 
BRANCH  13  14
ATOM     14  C   UNL     1       2.375   4.144  18.576  0.00  0.00    +0.000 A 
ATOM     15  C   UNL     1       2.098   2.797  18.302  0.00  0.00    +0.000 A 
ATOM     16  C   UNL     1       1.332   2.039  19.189  0.00  0.00    +0.000 A 
ATOM     17  C   UNL     1       0.837   2.619  20.357  0.00  0.00    +0.000 A 
ATOM     18  C   UNL     1       1.105   3.956  20.640  0.00  0.00    +0.000 A 
ATOM     19  C   UNL     1       1.872   4.715  19.755  0.00  0.00    +0.000 A 
ENDBRANCH  13  14
ENDBRANCH   4  13
TORSDOF 5
ENDMDL
MODEL 5
REMARK VINA RESULT:      -6.7      0.981      1.193
REMARK  Name = 
REMARK  6 active torsions:
REMARK  status: ('A' for Active; 'I' for Inactive)
REMARK    1  A    between atoms: C_1  and  C_2
REMARK    2  A    between atoms: C_2  and  N_3
REMARK    3  A    between atoms: N_3  and  C_4
REMARK    4  A    between atoms: C_4  and  C_5
REMARK    5  A    between atoms: N_9  and  C_10
REMARK    6  A    between atoms: C_10  and  C_11
REMARK                            x       y       z     vdW  Elec       q    Type
REMARK                         _______ _______ _______ _____ _____    ______ ____
ROOT
ATOM      1  C   UNL     1       6.714   5.868  16.813  0.00  0.00    +0.000 C 
ATOM      2  C   UNL     1       6.681   5.004  18.097  0.00  0.00    +0.000 C 
ATOM      3  C   UNL     1       5.686   5.523  19.136  0.00  0.00    +0.000 C 
ATOM      4  N   UNL     1       4.330   5.700  18.602  0.00  0.00    +0.000 NA
ATOM      5  C   UNL     1       4.364   6.639  17.472  0.00  0.00    +0.000 C 
ATOM      6  C   UNL     1       5.280   6.180  16.329  0.00  0.00    +0.000 C 
ENDROOT
BRANCH   1   7
ATOM      7  N   UNL     1       7.457   5.054  15.805  0.00  0.00    +0.000 NA
ATOM      8  H   UNL     1       8.433   5.350  15.797  0.00  0.00    +0.000 HD
BRANCH   7  10
ATOM      9  C   UNL     1       6.251   3.779  14.117  0.00  0.00    +0.000 C 
ATOM     10  C   UNL     1       6.929   5.105  14.441  0.00  0.00    +0.000 C 
ENDBRANCH   7  10
ENDBRANCH   1   7
BRANCH   1  11
ATOM     11  C   UNL     1       7.420   7.143  17.124  0.00  0.00    +0.000 C 
ATOM     12  N   UNL     1       7.978   8.137  17.356  0.00  0.00    +0.000 NA
ENDBRANCH   1  11
BRANCH   4  13
ATOM     13  C   UNL     1       3.657   4.438  18.237  0.00  0.00    +0.000 C 
BRANCH  13  14
ATOM     14  C   UNL     1       2.847   3.814  19.353  0.00  0.00    +0.000 A 
ATOM     15  C   UNL     1       3.469   3.030  20.335  0.00  0.00    +0.000 A 
ATOM     16  C   UNL     1       2.718   2.465  21.367  0.00  0.00    +0.000 A 
ATOM     17  C   UNL     1       1.341   2.676  21.427  0.00  0.00    +0.000 A 
ATOM     18  C   UNL     1       0.712   3.452  20.456  0.00  0.00    +0.000 A 
ATOM     19  C   UNL     1       1.461   4.020  19.425  0.00  0.00    +0.000 A 
ENDBRANCH  13  14
ENDBRANCH   4  13
TORSDOF 5
ENDMDL
MODEL 6
REMARK VINA RESULT:      -6.7      1.096      1.187
REMARK  Name = 
REMARK  6 active torsions:
REMARK  status: ('A' for Active; 'I' for Inactive)
REMARK    1  A    between atoms: C_1  and  C_2
REMARK    2  A    between atoms: C_2  and  N_3
REMARK    3  A    between atoms: N_3  and  C_4
REMARK    4  A    between atoms: C_4  and  C_5
REMARK    5  A    between atoms: N_9  and  C_10
REMARK    6  A    between atoms: C_10  and  C_11
REMARK                            x       y       z     vdW  Elec       q    Type
REMARK                         _______ _______ _______ _____ _____    ______ ____
ROOT
ATOM      1  C   UNL     1       6.706   6.097  16.824  0.00  0.00    +0.000 C 
ATOM      2  C   UNL     1       6.366   5.022  17.885  0.00  0.00    +0.000 C 
ATOM      3  C   UNL     1       5.307   5.489  18.885  0.00  0.00    +0.000 C 
ATOM      4  N   UNL     1       4.083   5.984  18.244  0.00  0.00    +0.000 NA
ATOM      5  C   UNL     1       4.411   7.102  17.349  0.00  0.00    +0.000 C 
ATOM      6  C   UNL     1       5.415   6.725  16.251  0.00  0.00    +0.000 C 
ENDROOT
BRANCH   1   7
ATOM      7  N   UNL     1       7.473   5.380  15.762  0.00  0.00    +0.000 NA
ATOM      8  H   UNL     1       8.365   5.854  15.622  0.00  0.00    +0.000 HD
BRANCH   7  10
ATOM      9  C   UNL     1       6.263   3.826  14.331  0.00  0.00    +0.000 C 
ATOM     10  C   UNL     1       6.793   5.248  14.474  0.00  0.00    +0.000 C 
ENDBRANCH   7  10
ENDBRANCH   1   7
BRANCH   1  11
ATOM     11  C   UNL     1       7.525   7.158  17.477  0.00  0.00    +0.000 C 
ATOM     12  N   UNL     1       8.158   7.984  17.998  0.00  0.00    +0.000 NA
ENDBRANCH   1  11
BRANCH   4  13
ATOM     13  C   UNL     1       3.306   4.942  17.545  0.00  0.00    +0.000 C 
BRANCH  13  14
ATOM     14  C   UNL     1       2.350   4.172  18.430  0.00  0.00    +0.000 A 
ATOM     15  C   UNL     1       1.847   4.743  19.607  0.00  0.00    +0.000 A 
ATOM     16  C   UNL     1       0.959   4.032  20.415  0.00  0.00    +0.000 A 
ATOM     17  C   UNL     1       0.565   2.743  20.055  0.00  0.00    +0.000 A 
ATOM     18  C   UNL     1       1.058   2.164  18.888  0.00  0.00    +0.000 A 
ATOM     19  C   UNL     1       1.945   2.875  18.078  0.00  0.00    +0.000 A 
ENDBRANCH  13  14
ENDBRANCH   4  13
TORSDOF 5
ENDMDL
MODEL 7
REMARK VINA RESULT:      -6.4      1.661      2.384
REMARK  Name = 
REMARK  6 active torsions:
REMARK  status: ('A' for Active; 'I' for Inactive)
REMARK    1  A    between atoms: C_1  and  C_2
REMARK    2  A    between atoms: C_2  and  N_3
REMARK    3  A    between atoms: N_3  and  C_4
REMARK    4  A    between atoms: C_4  and  C_5
REMARK    5  A    between atoms: N_9  and  C_10
REMARK    6  A    between atoms: C_10  and  C_11
REMARK                            x       y       z     vdW  Elec       q    Type
REMARK                         _______ _______ _______ _____ _____    ______ ____
ROOT
ATOM      1  C   UNL     1       5.525   4.758  15.860  0.00  0.00    +0.000 C 
ATOM      2  C   UNL     1       4.863   3.879  16.950  0.00  0.00    +0.000 C 
ATOM      3  C   UNL     1       4.874   4.537  18.331  0.00  0.00    +0.000 C 
ATOM      4  N   UNL     1       4.293   5.885  18.335  0.00  0.00    +0.000 NA
ATOM      5  C   UNL     1       5.030   6.744  17.398  0.00  0.00    +0.000 C 
ATOM      6  C   UNL     1       5.022   6.216  15.956  0.00  0.00    +0.000 C 
ENDROOT
BRANCH   1   7
ATOM      7  N   UNL     1       5.135   4.138  14.559  0.00  0.00    +0.000 NA
ATOM      8  H   UNL     1       4.683   3.242  14.742  0.00  0.00    +0.000 HD
BRANCH   7  10
ATOM      9  C   UNL     1       5.672   3.294  12.339  0.00  0.00    +0.000 C 
ATOM     10  C   UNL     1       6.225   3.940  13.604  0.00  0.00    +0.000 C 
ENDBRANCH   7  10
ENDBRANCH   1   7
BRANCH   1  11
ATOM     11  C   UNL     1       7.001   4.728  16.067  0.00  0.00    +0.000 C 
ATOM     12  N   UNL     1       8.153   4.694  16.222  0.00  0.00    +0.000 NA
ENDBRANCH   1  11
BRANCH   4  13
ATOM     13  C   UNL     1       2.841   5.916  18.068  0.00  0.00    +0.000 C 
BRANCH  13  14
ATOM     14  C   UNL     1       2.051   4.835  18.774  0.00  0.00    +0.000 A 
ATOM     15  C   UNL     1       1.455   3.795  18.048  0.00  0.00    +0.000 A 
ATOM     16  C   UNL     1       0.735   2.796  18.706  0.00  0.00    +0.000 A 
ATOM     17  C   UNL     1       0.604   2.827  20.094  0.00  0.00    +0.000 A 
ATOM     18  C   UNL     1       1.192   3.856  20.827  0.00  0.00    +0.000 A 
ATOM     19  C   UNL     1       1.914   4.855  20.171  0.00  0.00    +0.000 A 
ENDBRANCH  13  14
ENDBRANCH   4  13
TORSDOF 5
ENDMDL
MODEL 8
REMARK VINA RESULT:      -6.3      1.419      2.943
REMARK  Name = 
REMARK  6 active torsions:
REMARK  status: ('A' for Active; 'I' for Inactive)
REMARK    1  A    between atoms: C_1  and  C_2
REMARK    2  A    between atoms: C_2  and  N_3
REMARK    3  A    between atoms: N_3  and  C_4
REMARK    4  A    between atoms: C_4  and  C_5
REMARK    5  A    between atoms: N_9  and  C_10
REMARK    6  A    between atoms: C_10  and  C_11
REMARK                            x       y       z     vdW  Elec       q    Type
REMARK                         _______ _______ _______ _____ _____    ______ ____
ROOT
ATOM      1  C   UNL     1       6.753   6.092  17.364  0.00  0.00    +0.000 C 
ATOM      2  C   UNL     1       5.540   7.019  17.105  0.00  0.00    +0.000 C 
ATOM      3  C   UNL     1       4.290   6.253  16.669  0.00  0.00    +0.000 C 
ATOM      4  N   UNL     1       3.922   5.172  17.590  0.00  0.00    +0.000 NA
ATOM      5  C   UNL     1       5.038   4.223  17.709  0.00  0.00    +0.000 C 
ATOM      6  C   UNL     1       6.334   4.872  18.215  0.00  0.00    +0.000 C 
ENDROOT
BRANCH   1   7
ATOM      7  N   UNL     1       7.751   6.935  18.087  0.00  0.00    +0.000 NA
ATOM      8  H   UNL     1       7.570   6.876  19.089  0.00  0.00    +0.000 HD
BRANCH   7  10
ATOM      9  C   UNL     1       8.701   9.107  18.644  0.00  0.00    +0.000 C 
ATOM     10  C   UNL     1       7.793   8.342  17.689  0.00  0.00    +0.000 C 
ENDBRANCH   7  10
ENDBRANCH   1   7
BRANCH   1  11
ATOM     11  C   UNL     1       7.274   5.623  16.048  0.00  0.00    +0.000 C 
ATOM     12  N   UNL     1       7.669   5.258  15.017  0.00  0.00    +0.000 NA
ENDBRANCH   1  11
BRANCH   4  13
ATOM     13  C   UNL     1       3.465   5.638  18.914  0.00  0.00    +0.000 C 
BRANCH  13  14
ATOM     14  C   UNL     1       2.636   4.631  19.681  0.00  0.00    +0.000 A 
ATOM     15  C   UNL     1       2.897   4.370  21.033  0.00  0.00    +0.000 A 
ATOM     16  C   UNL     1       2.123   3.447  21.738  0.00  0.00    +0.000 A 
ATOM     17  C   UNL     1       1.080   2.776  21.098  0.00  0.00    +0.000 A 
ATOM     18  C   UNL     1       0.811   3.026  19.755  0.00  0.00    +0.000 A 
ATOM     19  C   UNL     1       1.583   3.950  19.049  0.00  0.00    +0.000 A 
ENDBRANCH  13  14
ENDBRANCH   4  13
TORSDOF 5
ENDMDL
MODEL 9
REMARK VINA RESULT:      -6.3      1.663      2.088
REMARK  Name = 
REMARK  6 active torsions:
REMARK  status: ('A' for Active; 'I' for Inactive)
REMARK    1  A    between atoms: C_1  and  C_2
REMARK    2  A    between atoms: C_2  and  N_3
REMARK    3  A    between atoms: N_3  and  C_4
REMARK    4  A    between atoms: C_4  and  C_5
REMARK    5  A    between atoms: N_9  and  C_10
REMARK    6  A    between atoms: C_10  and  C_11
REMARK                            x       y       z     vdW  Elec       q    Type
REMARK                         _______ _______ _______ _____ _____    ______ ____
ROOT
ATOM      1  C   UNL     1       5.574   4.716  15.955  0.00  0.00    +0.000 C 
ATOM      2  C   UNL     1       4.907   3.930  17.111  0.00  0.00    +0.000 C 
ATOM      3  C   UNL     1       4.910   4.701  18.432  0.00  0.00    +0.000 C 
ATOM      4  N   UNL     1       4.329   6.045  18.321  0.00  0.00    +0.000 NA
ATOM      5  C   UNL     1       5.071   6.822  17.320  0.00  0.00    +0.000 C 
ATOM      6  C   UNL     1       5.071   6.176  15.927  0.00  0.00    +0.000 C 
ENDROOT
BRANCH   1   7
ATOM      7  N   UNL     1       5.191   3.989  14.708  0.00  0.00    +0.000 NA
ATOM      8  H   UNL     1       4.936   3.031  14.949  0.00  0.00    +0.000 HD
BRANCH   7  10
ATOM      9  C   UNL     1       5.630   3.290  12.418  0.00  0.00    +0.000 C 
ATOM     10  C   UNL     1       6.207   3.966  13.656  0.00  0.00    +0.000 C 
ENDBRANCH   7  10
ENDBRANCH   1   7
BRANCH   1  11
ATOM     11  C   UNL     1       7.049   4.703  16.172  0.00  0.00    +0.000 C 
ATOM     12  N   UNL     1       8.201   4.685  16.332  0.00  0.00    +0.000 NA
ENDBRANCH   1  11
BRANCH   4  13
ATOM     13  C   UNL     1       2.879   6.053  18.045  0.00  0.00    +0.000 C 
BRANCH  13  14
ATOM     14  C   UNL     1       2.104   4.951  18.736  0.00  0.00    +0.000 A 
ATOM     15  C   UNL     1       1.921   4.968  20.125  0.00  0.00    +0.000 A 
ATOM     16  C   UNL     1       1.197   3.955  20.755  0.00  0.00    +0.000 A 
ATOM     17  C   UNL     1       0.649   2.915  20.003  0.00  0.00    +0.000 A 
ATOM     18  C   UNL     1       0.825   2.887  18.621  0.00  0.00    +0.000 A 
ATOM     19  C   UNL     1       1.547   3.901  17.990  0.00  0.00    +0.000 A 
ENDBRANCH  13  14
ENDBRANCH   4  13
TORSDOF 5
ENDMDL
