MODEL 1
REMARK VINA RESULT:      -8.9      0.000      0.000
REMARK  Name = 
REMARK  5 active torsions:
REMARK  status: ('A' for Active; 'I' for Inactive)
REMARK    1  A    between atoms: C_2  and  C_3
REMARK    2  A    between atoms: C_3  and  C_4
REMARK    3  A    between atoms: C_6  and  N_7
REMARK    4  A    between atoms: C_11  and  C_12
REMARK    5  A    between atoms: C_12  and  O_13
REMARK                            x       y       z     vdW  Elec       q    Type
REMARK                         _______ _______ _______ _____ _____    ______ ____
ROOT
ATOM      1  C   UNL     1       3.148   7.126  17.696  0.00  0.00    +0.000 A 
ATOM      2  N   UNL     1       2.786   5.945  18.089  0.00  0.00    +0.000 NA
ATOM      3  C   UNL     1       3.683   4.905  17.965  0.00  0.00    +0.000 A 
ATOM      4  C   UNL     1       4.893   5.096  17.405  0.00  0.00    +0.000 A 
ATOM      5  C   UNL     1       5.287   6.423  16.937  0.00  0.00    +0.000 A 
ATOM      6  O   UNL     1       6.396   6.638  16.466  0.00  0.00    +0.000 OA
ATOM      7  N   UNL     1       4.344   7.383  17.084  0.00  0.00    +0.000 N 
ATOM      8  H   UNL     1       4.650   8.327  16.894  0.00  0.00    +0.000 HD
ENDROOT
BRANCH   3   9
ATOM      9  N   UNL     1       3.348   3.633  18.444  0.00  0.00    +0.000 N 
ATOM     10  C   UNL     1       2.479   2.704  17.701  0.00  0.00    +0.000 C 
ATOM     11  C   UNL     1       1.252   2.294  18.529  0.00  0.00    +0.000 C 
ATOM     12  O   UNL     1       1.579   1.857  19.860  0.00  0.00    +0.000 OA
ATOM     13  C   UNL     1       2.396   2.813  20.574  0.00  0.00    +0.000 C 
ATOM     14  C   UNL     1       3.680   3.144  19.794  0.00  0.00    +0.000 C 
BRANCH  13  15
ATOM     15  C   UNL     1       1.597   4.073  20.946  0.00  0.00    +0.000 C 
BRANCH  15  16
ATOM     16  O   UNL     1       2.491   5.147  21.247  0.00  0.00    +0.000 OA
ATOM     17  H   UNL     1       3.309   4.729  21.576  0.00  0.00    +0.000 HD
ENDBRANCH  15  16
ENDBRANCH  13  15
ENDBRANCH   3   9
BRANCH   1  18
ATOM     18  C   UNL     1       2.248   8.330  17.885  0.00  0.00    +0.000 C 
BRANCH  18  20
ATOM     19  O   UNL     1       2.190   7.683  20.177  0.00  0.00    +0.000 OA
ATOM     20  C   UNL     1       1.768   8.460  19.320  0.00  0.00    +0.000 C 
ATOM     21  N   UNL     1       0.898   9.500  19.591  0.00  0.00    +0.000 N 
ATOM     22  C   UNL     1       0.403  10.508  18.638  0.00  0.00    +0.000 C 
ATOM     23  C   UNL     1      -0.576  11.419  19.392  0.00  0.00    +0.000 C 
ATOM     24  C   UNL     1      -0.517  10.872  20.783  0.00  0.00    +0.000 A 
ATOM     25  C   UNL     1      -1.198  11.309  21.912  0.00  0.00    +0.000 A 
ATOM     26 CL   UNL     1      -2.280  12.642  21.840  0.00  0.00    +0.000 Cl
ATOM     27  C   UNL     1      -1.004  10.644  23.124  0.00  0.00    +0.000 A 
ATOM     28  C   UNL     1      -0.131   9.553  23.198  0.00  0.00    +0.000 A 
ATOM     29  C   UNL     1       0.547   9.112  22.059  0.00  0.00    +0.000 A 
ATOM     30  C   UNL     1       0.342   9.776  20.857  0.00  0.00    +0.000 A 
ENDBRANCH  18  20
ENDBRANCH   1  18
TORSDOF 5
ENDMDL
MODEL 2
REMARK VINA RESULT:      -8.4      0.960      1.232
REMARK  Name = 
REMARK  5 active torsions:
REMARK  status: ('A' for Active; 'I' for Inactive)
REMARK    1  A    between atoms: C_2  and  C_3
REMARK    2  A    between atoms: C_3  and  C_4
REMARK    3  A    between atoms: C_6  and  N_7
REMARK    4  A    between atoms: C_11  and  C_12
REMARK    5  A    between atoms: C_12  and  O_13
REMARK                            x       y       z     vdW  Elec       q    Type
REMARK                         _______ _______ _______ _____ _____    ______ ____
ROOT
ATOM      1  C   UNL     1       3.050   7.281  17.582  0.00  0.00    +0.000 A 
ATOM      2  N   UNL     1       2.446   6.146  17.752  0.00  0.00    +0.000 NA
ATOM      3  C   UNL     1       3.151   4.983  17.523  0.00  0.00    +0.000 A 
ATOM      4  C   UNL     1       4.424   5.018  17.085  0.00  0.00    +0.000 A 
ATOM      5  C   UNL     1       5.092   6.299  16.867  0.00  0.00    +0.000 A 
ATOM      6  O   UNL     1       6.263   6.365  16.514  0.00  0.00    +0.000 OA
ATOM      7  N   UNL     1       4.327   7.390  17.103  0.00  0.00    +0.000 N 
ATOM      8  H   UNL     1       4.813   8.275  17.091  0.00  0.00    +0.000 HD
ENDROOT
BRANCH   3   9
ATOM      9  N   UNL     1       2.549   3.742  17.764  0.00  0.00    +0.000 N 
ATOM     10  C   UNL     1       1.172   3.609  18.270  0.00  0.00    +0.000 C 
ATOM     11  C   UNL     1       1.128   2.814  19.584  0.00  0.00    +0.000 C 
ATOM     12  O   UNL     1       1.858   1.576  19.530  0.00  0.00    +0.000 OA
ATOM     13  C   UNL     1       3.217   1.752  19.070  0.00  0.00    +0.000 C 
ATOM     14  C   UNL     1       3.259   2.453  17.701  0.00  0.00    +0.000 C 
BRANCH  13  15
ATOM     15  C   UNL     1       4.080   2.470  20.121  0.00  0.00    +0.000 C 
BRANCH  15  16
ATOM     16  O   UNL     1       5.347   2.818  19.557  0.00  0.00    +0.000 OA
ATOM     17  H   UNL     1       6.008   2.625  20.247  0.00  0.00    +0.000 HD
ENDBRANCH  15  16
ENDBRANCH  13  15
ENDBRANCH   3   9
BRANCH   1  18
ATOM     18  C   UNL     1       2.365   8.593  17.902  0.00  0.00    +0.000 C 
BRANCH  18  20
ATOM     19  O   UNL     1       2.155   7.742  20.118  0.00  0.00    +0.000 OA
ATOM     20  C   UNL     1       1.821   8.618  19.320  0.00  0.00    +0.000 C 
ATOM     21  N   UNL     1       0.994   9.678  19.648  0.00  0.00    +0.000 N 
ATOM     22  C   UNL     1       0.604  10.796  18.773  0.00  0.00    +0.000 C 
ATOM     23  C   UNL     1      -0.362  11.689  19.565  0.00  0.00    +0.000 C 
ATOM     24  C   UNL     1      -0.404  11.015  20.898  0.00  0.00    +0.000 A 
ATOM     25  C   UNL     1      -1.117  11.384  22.031  0.00  0.00    +0.000 A 
ATOM     26 CL   UNL     1      -2.121  12.779  22.037  0.00  0.00    +0.000 Cl
ATOM     27  C   UNL     1      -1.022  10.600  23.183  0.00  0.00    +0.000 A 
ATOM     28  C   UNL     1      -0.214   9.458  23.193  0.00  0.00    +0.000 A 
ATOM     29  C   UNL     1       0.497   9.086  22.049  0.00  0.00    +0.000 A 
ATOM     30  C   UNL     1       0.390   9.868  20.908  0.00  0.00    +0.000 A 
ENDBRANCH  18  20
ENDBRANCH   1  18
TORSDOF 5
ENDMDL
MODEL 3
REMARK VINA RESULT:      -8.3      4.663      8.008
REMARK  Name = 
REMARK  5 active torsions:
REMARK  status: ('A' for Active; 'I' for Inactive)
REMARK    1  A    between atoms: C_2  and  C_3
REMARK    2  A    between atoms: C_3  and  C_4
REMARK    3  A    between atoms: C_6  and  N_7
REMARK    4  A    between atoms: C_11  and  C_12
REMARK    5  A    between atoms: C_12  and  O_13
REMARK                            x       y       z     vdW  Elec       q    Type
REMARK                         _______ _______ _______ _____ _____    ______ ____
ROOT
ATOM      1  C   UNL     1       5.102   6.054  18.329  0.00  0.00    +0.000 A 
ATOM      2  N   UNL     1       4.324   5.299  19.038  0.00  0.00    +0.000 NA
ATOM      3  C   UNL     1       2.974   5.579  19.059  0.00  0.00    +0.000 A 
ATOM      4  C   UNL     1       2.475   6.640  18.399  0.00  0.00    +0.000 A 
ATOM      5  C   UNL     1       3.359   7.506  17.622  0.00  0.00    +0.000 A 
ATOM      6  O   UNL     1       2.931   8.452  16.973  0.00  0.00    +0.000 OA
ATOM      7  N   UNL     1       4.670   7.170  17.665  0.00  0.00    +0.000 N 
ATOM      8  H   UNL     1       5.270   7.672  17.027  0.00  0.00    +0.000 HD
ENDROOT
BRANCH   3   9
ATOM      9  N   UNL     1       2.098   4.740  19.760  0.00  0.00    +0.000 N 
ATOM     10  C   UNL     1       2.163   4.560  21.220  0.00  0.00    +0.000 C 
ATOM     11  C   UNL     1       2.359   3.084  21.599  0.00  0.00    +0.000 C 
ATOM     12  O   UNL     1       1.443   2.196  20.936  0.00  0.00    +0.000 OA
ATOM     13  C   UNL     1       1.437   2.371  19.501  0.00  0.00    +0.000 C 
ATOM     14  C   UNL     1       1.133   3.830  19.117  0.00  0.00    +0.000 C 
BRANCH  13  15
ATOM     15  C   UNL     1       2.739   1.859  18.864  0.00  0.00    +0.000 C 
BRANCH  15  16
ATOM     16  O   UNL     1       2.809   2.270  17.497  0.00  0.00    +0.000 OA
ATOM     17  H   UNL     1       3.695   2.661  17.380  0.00  0.00    +0.000 HD
ENDBRANCH  15  16
ENDBRANCH  13  15
ENDBRANCH   3   9
BRANCH   1  18
ATOM     18  C   UNL     1       6.580   5.752  18.188  0.00  0.00    +0.000 C 
BRANCH  18  20
ATOM     19  O   UNL     1       7.840   6.763  16.436  0.00  0.00    +0.000 OA
ATOM     20  C   UNL     1       7.049   5.872  16.748  0.00  0.00    +0.000 C 
ATOM     21  N   UNL     1       6.579   4.920  15.862  0.00  0.00    +0.000 N 
ATOM     22  C   UNL     1       5.688   3.789  16.172  0.00  0.00    +0.000 C 
ATOM     23  C   UNL     1       5.407   3.046  14.858  0.00  0.00    +0.000 C 
ATOM     24  C   UNL     1       6.237   3.807  13.874  0.00  0.00    +0.000 A 
ATOM     25  C   UNL     1       6.385   3.583  12.512  0.00  0.00    +0.000 A 
ATOM     26 CL   UNL     1       5.563   2.293  11.727  0.00  0.00    +0.000 Cl
ATOM     27  C   UNL     1       7.209   4.428  11.767  0.00  0.00    +0.000 A 
ATOM     28  C   UNL     1       7.881   5.486  12.389  0.00  0.00    +0.000 A 
ATOM     29  C   UNL     1       7.725   5.713  13.759  0.00  0.00    +0.000 A 
ATOM     30  C   UNL     1       6.897   4.871  14.489  0.00  0.00    +0.000 A 
ENDBRANCH  18  20
ENDBRANCH   1  18
TORSDOF 5
ENDMDL
MODEL 4
REMARK VINA RESULT:      -8.2      1.700      4.124
REMARK  Name = 
REMARK  5 active torsions:
REMARK  status: ('A' for Active; 'I' for Inactive)
REMARK    1  A    between atoms: C_2  and  C_3
REMARK    2  A    between atoms: C_3  and  C_4
REMARK    3  A    between atoms: C_6  and  N_7
REMARK    4  A    between atoms: C_11  and  C_12
REMARK    5  A    between atoms: C_12  and  O_13
REMARK                            x       y       z     vdW  Elec       q    Type
REMARK                         _______ _______ _______ _____ _____    ______ ____
ROOT
ATOM      1  C   UNL     1       2.556   5.894  19.263  0.00  0.00    +0.000 A 
ATOM      2  N   UNL     1       3.553   6.087  18.458  0.00  0.00    +0.000 NA
ATOM      3  C   UNL     1       3.767   5.179  17.442  0.00  0.00    +0.000 A 
ATOM      4  C   UNL     1       2.989   4.087  17.313  0.00  0.00    +0.000 A 
ATOM      5  C   UNL     1       1.883   3.857  18.240  0.00  0.00    +0.000 A 
ATOM      6  O   UNL     1       1.130   2.899  18.121  0.00  0.00    +0.000 OA
ATOM      7  N   UNL     1       1.751   4.788  19.213  0.00  0.00    +0.000 N 
ATOM      8  H   UNL     1       0.913   4.718  19.773  0.00  0.00    +0.000 HD
ENDROOT
BRANCH   3   9
ATOM      9  N   UNL     1       4.793   5.397  16.515  0.00  0.00    +0.000 N 
ATOM     10  C   UNL     1       5.016   4.522  15.351  0.00  0.00    +0.000 C 
ATOM     11  C   UNL     1       6.435   3.935  15.349  0.00  0.00    +0.000 C 
ATOM     12  O   UNL     1       7.463   4.920  15.550  0.00  0.00    +0.000 OA
ATOM     13  C   UNL     1       7.234   5.731  16.726  0.00  0.00    +0.000 C 
ATOM     14  C   UNL     1       5.853   6.407  16.678  0.00  0.00    +0.000 C 
BRANCH  13  15
ATOM     15  C   UNL     1       7.446   4.925  18.018  0.00  0.00    +0.000 C 
BRANCH  15  16
ATOM     16  O   UNL     1       8.516   3.993  17.842  0.00  0.00    +0.000 OA
ATOM     17  H   UNL     1       9.041   4.033  18.663  0.00  0.00    +0.000 HD
ENDBRANCH  15  16
ENDBRANCH  13  15
ENDBRANCH   3   9
BRANCH   1  18
ATOM     18  C   UNL     1       2.209   6.897  20.343  0.00  0.00    +0.000 C 
BRANCH  18  20
ATOM     19  O   UNL     1       1.781   8.438  18.577  0.00  0.00    +0.000 OA
ATOM     20  C   UNL     1       1.609   8.167  19.766  0.00  0.00    +0.000 C 
ATOM     21  N   UNL     1       0.848   8.940  20.625  0.00  0.00    +0.000 N 
ATOM     22  C   UNL     1       0.542   8.649  22.036  0.00  0.00    +0.000 C 
ATOM     23  C   UNL     1      -0.288   9.820  22.581  0.00  0.00    +0.000 C 
ATOM     24  C   UNL     1      -0.442  10.693  21.378  0.00  0.00    +0.000 A 
ATOM     25  C   UNL     1      -1.114  11.903  21.269  0.00  0.00    +0.000 A 
ATOM     26 CL   UNL     1      -1.916  12.602  22.619  0.00  0.00    +0.000 Cl
ATOM     27  C   UNL     1      -1.128  12.568  20.041  0.00  0.00    +0.000 A 
ATOM     28  C   UNL     1      -0.475  12.015  18.933  0.00  0.00    +0.000 A 
ATOM     29  C   UNL     1       0.206  10.800  19.048  0.00  0.00    +0.000 A 
ATOM     30  C   UNL     1       0.219  10.152  20.275  0.00  0.00    +0.000 A 
ENDBRANCH  18  20
ENDBRANCH   1  18
TORSDOF 5
ENDMDL
MODEL 5
REMARK VINA RESULT:      -8.1      1.513      3.732
REMARK  Name = 
REMARK  5 active torsions:
REMARK  status: ('A' for Active; 'I' for Inactive)
REMARK    1  A    between atoms: C_2  and  C_3
REMARK    2  A    between atoms: C_3  and  C_4
REMARK    3  A    between atoms: C_6  and  N_7
REMARK    4  A    between atoms: C_11  and  C_12
REMARK    5  A    between atoms: C_12  and  O_13
REMARK                            x       y       z     vdW  Elec       q    Type
REMARK                         _______ _______ _______ _____ _____    ______ ____
ROOT
ATOM      1  C   UNL     1       2.599   6.368  18.083  0.00  0.00    +0.000 A 
ATOM      2  N   UNL     1       3.809   5.939  17.903  0.00  0.00    +0.000 NA
ATOM      3  C   UNL     1       4.004   4.593  17.674  0.00  0.00    +0.000 A 
ATOM      4  C   UNL     1       2.970   3.731  17.683  0.00  0.00    +0.000 A 
ATOM      5  C   UNL     1       1.610   4.214  17.915  0.00  0.00    +0.000 A 
ATOM      6  O   UNL     1       0.644   3.463  17.884  0.00  0.00    +0.000 OA
ATOM      7  N   UNL     1       1.508   5.544  18.144  0.00  0.00    +0.000 N 
ATOM      8  H   UNL     1       0.568   5.912  18.167  0.00  0.00    +0.000 HD
ENDROOT
BRANCH   3   9
ATOM      9  N   UNL     1       5.291   4.109  17.407  0.00  0.00    +0.000 N 
ATOM     10  C   UNL     1       6.337   4.014  18.438  0.00  0.00    +0.000 C 
ATOM     11  C   UNL     1       7.590   4.812  18.047  0.00  0.00    +0.000 C 
ATOM     12  O   UNL     1       8.052   4.537  16.713  0.00  0.00    +0.000 OA
ATOM     13  C   UNL     1       7.008   4.682  15.722  0.00  0.00    +0.000 C 
ATOM     14  C   UNL     1       5.793   3.799  16.057  0.00  0.00    +0.000 C 
BRANCH  13  15
ATOM     15  C   UNL     1       6.622   6.157  15.522  0.00  0.00    +0.000 C 
BRANCH  15  16
ATOM     16  O   UNL     1       5.300   6.246  14.983  0.00  0.00    +0.000 OA
ATOM     17  H   UNL     1       5.398   6.656  14.104  0.00  0.00    +0.000 HD
ENDBRANCH  15  16
ENDBRANCH  13  15
ENDBRANCH   3   9
BRANCH   1  18
ATOM     18  C   UNL     1       2.303   7.844  18.250  0.00  0.00    +0.000 C 
BRANCH  18  20
ATOM     19  O   UNL     1       1.909   7.390  20.556  0.00  0.00    +0.000 OA
ATOM     20  C   UNL     1       1.701   8.151  19.610  0.00  0.00    +0.000 C 
ATOM     21  N   UNL     1       0.972   9.322  19.716  0.00  0.00    +0.000 N 
ATOM     22  C   UNL     1       0.737  10.313  18.652  0.00  0.00    +0.000 C 
ATOM     23  C   UNL     1      -0.169  11.409  19.232  0.00  0.00    +0.000 C 
ATOM     24  C   UNL     1      -0.339  10.969  20.651  0.00  0.00    +0.000 A 
ATOM     25  C   UNL     1      -1.061  11.583  21.666  0.00  0.00    +0.000 A 
ATOM     26 CL   UNL     1      -1.918  13.047  21.389  0.00  0.00    +0.000 Cl
ATOM     27  C   UNL     1      -1.097  10.993  22.930  0.00  0.00    +0.000 A 
ATOM     28  C   UNL     1      -0.409   9.798  23.171  0.00  0.00    +0.000 A 
ATOM     29  C   UNL     1       0.311   9.180  22.146  0.00  0.00    +0.000 A 
ATOM     30  C   UNL     1       0.335   9.771  20.890  0.00  0.00    +0.000 A 
ENDBRANCH  18  20
ENDBRANCH   1  18
TORSDOF 5
ENDMDL
MODEL 6
REMARK VINA RESULT:      -8.0      1.915      3.559
REMARK  Name = 
REMARK  5 active torsions:
REMARK  status: ('A' for Active; 'I' for Inactive)
REMARK    1  A    between atoms: C_2  and  C_3
REMARK    2  A    between atoms: C_3  and  C_4
REMARK    3  A    between atoms: C_6  and  N_7
REMARK    4  A    between atoms: C_11  and  C_12
REMARK    5  A    between atoms: C_12  and  O_13
REMARK                            x       y       z     vdW  Elec       q    Type
REMARK                         _______ _______ _______ _____ _____    ______ ____
ROOT
ATOM      1  C   UNL     1       2.378   7.774  18.026  0.00  0.00    +0.000 A 
ATOM      2  N   UNL     1       3.552   7.686  17.485  0.00  0.00    +0.000 NA
ATOM      3  C   UNL     1       4.117   6.436  17.336  0.00  0.00    +0.000 A 
ATOM      4  C   UNL     1       3.489   5.333  17.784  0.00  0.00    +0.000 A 
ATOM      5  C   UNL     1       2.178   5.439  18.419  0.00  0.00    +0.000 A 
ATOM      6  O   UNL     1       1.560   4.451  18.796  0.00  0.00    +0.000 OA
ATOM      7  N   UNL     1       1.701   6.700  18.538  0.00  0.00    +0.000 N 
ATOM      8  H   UNL     1       0.742   6.777  18.846  0.00  0.00    +0.000 HD
ENDROOT
BRANCH   3   9
ATOM      9  N   UNL     1       5.354   6.302  16.693  0.00  0.00    +0.000 N 
ATOM     10  C   UNL     1       5.523   5.550  15.438  0.00  0.00    +0.000 C 
ATOM     11  C   UNL     1       6.554   4.422  15.589  0.00  0.00    +0.000 C 
ATOM     12  O   UNL     1       7.789   4.851  16.189  0.00  0.00    +0.000 OA
ATOM     13  C   UNL     1       7.587   5.547  17.440  0.00  0.00    +0.000 C 
ATOM     14  C   UNL     1       6.637   6.744  17.267  0.00  0.00    +0.000 C 
BRANCH  13  15
ATOM     15  C   UNL     1       7.125   4.589  18.550  0.00  0.00    +0.000 C 
BRANCH  15  16
ATOM     16  O   UNL     1       6.802   5.329  19.730  0.00  0.00    +0.000 OA
ATOM     17  H   UNL     1       5.905   5.684  19.586  0.00  0.00    +0.000 HD
ENDBRANCH  15  16
ENDBRANCH  13  15
ENDBRANCH   3   9
BRANCH   1  18
ATOM     18  C   UNL     1       1.660   9.103  18.139  0.00  0.00    +0.000 C 
BRANCH  18  20
ATOM     19  O   UNL     1       1.494   8.633  20.469  0.00  0.00    +0.000 OA
ATOM     20  C   UNL     1       1.099   9.328  19.533  0.00  0.00    +0.000 C 
ATOM     21  N   UNL     1       0.187  10.358  19.675  0.00  0.00    +0.000 N 
ATOM     22  C   UNL     1      -0.282  11.273  18.621  0.00  0.00    +0.000 C 
ATOM     23  C   UNL     1      -1.326  12.208  19.249  0.00  0.00    +0.000 C 
ATOM     24  C   UNL     1      -1.329  11.773  20.679  0.00  0.00    +0.000 A 
ATOM     25  C   UNL     1      -2.081  12.273  21.733  0.00  0.00    +0.000 A 
ATOM     26 CL   UNL     1      -3.194  13.562  21.500  0.00  0.00    +0.000 Cl
ATOM     27  C   UNL     1      -1.937  11.710  23.003  0.00  0.00    +0.000 A 
ATOM     28  C   UNL     1      -1.040  10.656  23.208  0.00  0.00    +0.000 A 
ATOM     29  C   UNL     1      -0.288  10.151  22.144  0.00  0.00    +0.000 A 
ATOM     30  C   UNL     1      -0.444  10.713  20.885  0.00  0.00    +0.000 A 
ENDBRANCH  18  20
ENDBRANCH   1  18
TORSDOF 5
ENDMDL
MODEL 7
REMARK VINA RESULT:      -8.0      1.639      3.875
REMARK  Name = 
REMARK  5 active torsions:
REMARK  status: ('A' for Active; 'I' for Inactive)
REMARK    1  A    between atoms: C_2  and  C_3
REMARK    2  A    between atoms: C_3  and  C_4
REMARK    3  A    between atoms: C_6  and  N_7
REMARK    4  A    between atoms: C_11  and  C_12
REMARK    5  A    between atoms: C_12  and  O_13
REMARK                            x       y       z     vdW  Elec       q    Type
REMARK                         _______ _______ _______ _____ _____    ______ ____
ROOT
ATOM      1  C   UNL     1       2.492   6.806  19.416  0.00  0.00    +0.000 A 
ATOM      2  N   UNL     1       3.695   6.469  19.068  0.00  0.00    +0.000 NA
ATOM      3  C   UNL     1       4.120   5.182  19.324  0.00  0.00    +0.000 A 
ATOM      4  C   UNL     1       3.325   4.305  19.966  0.00  0.00    +0.000 A 
ATOM      5  C   UNL     1       1.981   4.697  20.382  0.00  0.00    +0.000 A 
ATOM      6  O   UNL     1       1.217   3.908  20.925  0.00  0.00    +0.000 OA
ATOM      7  N   UNL     1       1.647   5.978  20.104  0.00  0.00    +0.000 N 
ATOM      8  H   UNL     1       0.679   6.221  20.259  0.00  0.00    +0.000 HD
ENDROOT
BRANCH   3   9
ATOM      9  N   UNL     1       5.388   4.768  18.899  0.00  0.00    +0.000 N 
ATOM     10  C   UNL     1       6.632   5.411  19.352  0.00  0.00    +0.000 C 
ATOM     11  C   UNL     1       7.458   5.941  18.171  0.00  0.00    +0.000 C 
ATOM     12  O   UNL     1       7.643   4.975  17.122  0.00  0.00    +0.000 OA
ATOM     13  C   UNL     1       6.397   4.396  16.672  0.00  0.00    +0.000 C 
ATOM     14  C   UNL     1       5.618   3.768  17.841  0.00  0.00    +0.000 C 
BRANCH  13  15
ATOM     15  C   UNL     1       5.554   5.413  15.886  0.00  0.00    +0.000 C 
BRANCH  15  16
ATOM     16  O   UNL     1       6.303   5.916  14.777  0.00  0.00    +0.000 OA
ATOM     17  H   UNL     1       7.053   6.406  15.162  0.00  0.00    +0.000 HD
ENDBRANCH  15  16
ENDBRANCH  13  15
ENDBRANCH   3   9
BRANCH   1  18
ATOM     18  C   UNL     1       1.930   8.172  19.084  0.00  0.00    +0.000 C 
BRANCH  18  20
ATOM     19  O   UNL     1       1.537   8.440  21.419  0.00  0.00    +0.000 OA
ATOM     20  C   UNL     1       1.245   8.809  20.281  0.00  0.00    +0.000 C 
ATOM     21  N   UNL     1       0.343   9.823  20.013  0.00  0.00    +0.000 N 
ATOM     22  C   UNL     1      -0.007  10.365  18.689  0.00  0.00    +0.000 C 
ATOM     23  C   UNL     1      -1.087  11.436  18.897  0.00  0.00    +0.000 C 
ATOM     24  C   UNL     1      -1.232  11.462  20.385  0.00  0.00    +0.000 A 
ATOM     25  C   UNL     1      -2.071  12.254  21.158  0.00  0.00    +0.000 A 
ATOM     26 CL   UNL     1      -3.132  13.397  20.435  0.00  0.00    +0.000 Cl
ATOM     27  C   UNL     1      -2.057  12.111  22.546  0.00  0.00    +0.000 A 
ATOM     28  C   UNL     1      -1.203  11.180  23.150  0.00  0.00    +0.000 A 
ATOM     29  C   UNL     1      -0.365  10.381  22.369  0.00  0.00    +0.000 A 
ATOM     30  C   UNL     1      -0.392  10.527  20.989  0.00  0.00    +0.000 A 
ENDBRANCH  18  20
ENDBRANCH   1  18
TORSDOF 5
ENDMDL
MODEL 8
REMARK VINA RESULT:      -7.9      3.933      8.517
REMARK  Name = 
REMARK  5 active torsions:
REMARK  status: ('A' for Active; 'I' for Inactive)
REMARK    1  A    between atoms: C_2  and  C_3
REMARK    2  A    between atoms: C_3  and  C_4
REMARK    3  A    between atoms: C_6  and  N_7
REMARK    4  A    between atoms: C_11  and  C_12
REMARK    5  A    between atoms: C_12  and  O_13
REMARK                            x       y       z     vdW  Elec       q    Type
REMARK                         _______ _______ _______ _____ _____    ______ ____
ROOT
ATOM      1  C   UNL     1       1.307   9.959  18.313  0.00  0.00    +0.000 A 
ATOM      2  N   UNL     1       1.541  11.128  18.821  0.00  0.00    +0.000 NA
ATOM      3  C   UNL     1       0.489  12.010  18.958  0.00  0.00    +0.000 A 
ATOM      4  C   UNL     1      -0.746  11.688  18.531  0.00  0.00    +0.000 A 
ATOM      5  C   UNL     1      -1.001  10.379  17.933  0.00  0.00    +0.000 A 
ATOM      6  O   UNL     1      -2.122  10.038  17.578  0.00  0.00    +0.000 OA
ATOM      7  N   UNL     1       0.086   9.580  17.824  0.00  0.00    +0.000 N 
ATOM      8  H   UNL     1      -0.099   8.628  17.543  0.00  0.00    +0.000 HD
ENDROOT
BRANCH   3   9
ATOM      9  N   UNL     1       0.696  13.254  19.566  0.00  0.00    +0.000 N 
ATOM     10  C   UNL     1      -0.313  14.327  19.553  0.00  0.00    +0.000 C 
ATOM     11  C   UNL     1       0.238  15.613  18.921  0.00  0.00    +0.000 C 
ATOM     12  O   UNL     1       1.513  16.012  19.451  0.00  0.00    +0.000 OA
ATOM     13  C   UNL     1       2.491  14.948  19.408  0.00  0.00    +0.000 C 
ATOM     14  C   UNL     1       1.982  13.691  20.137  0.00  0.00    +0.000 C 
BRANCH  13  15
ATOM     15  C   UNL     1       2.937  14.648  17.968  0.00  0.00    +0.000 C 
BRANCH  15  16
ATOM     16  O   UNL     1       3.575  13.370  17.910  0.00  0.00    +0.000 OA
ATOM     17  H   UNL     1       4.086  13.289  18.737  0.00  0.00    +0.000 HD
ENDBRANCH  15  16
ENDBRANCH  13  15
ENDBRANCH   3   9
BRANCH   1  18
ATOM     18  C   UNL     1       2.395   8.910  18.216  0.00  0.00    +0.000 C 
BRANCH  18  20
ATOM     19  O   UNL     1       1.567   7.957  20.237  0.00  0.00    +0.000 OA
ATOM     20  C   UNL     1       2.158   7.756  19.175  0.00  0.00    +0.000 C 
ATOM     21  N   UNL     1       2.594   6.509  18.766  0.00  0.00    +0.000 N 
ATOM     22  C   UNL     1       3.246   6.179  17.487  0.00  0.00    +0.000 C 
ATOM     23  C   UNL     1       3.590   4.682  17.516  0.00  0.00    +0.000 C 
ATOM     24  C   UNL     1       3.036   4.249  18.835  0.00  0.00    +0.000 A 
ATOM     25  C   UNL     1       3.049   2.983  19.404  0.00  0.00    +0.000 A 
ATOM     26 CL   UNL     1       3.763   1.648  18.590  0.00  0.00    +0.000 Cl
ATOM     27  C   UNL     1       2.478   2.795  20.664  0.00  0.00    +0.000 A 
ATOM     28  C   UNL     1       1.899   3.873  21.343  0.00  0.00    +0.000 A 
ATOM     29  C   UNL     1       1.893   5.148  20.771  0.00  0.00    +0.000 A 
ATOM     30  C   UNL     1       2.469   5.325  19.520  0.00  0.00    +0.000 A 
ENDBRANCH  18  20
ENDBRANCH   1  18
TORSDOF 5
ENDMDL
MODEL 9
REMARK VINA RESULT:      -7.8      4.874      8.636
REMARK  Name = 
REMARK  5 active torsions:
REMARK  status: ('A' for Active; 'I' for Inactive)
REMARK    1  A    between atoms: C_2  and  C_3
REMARK    2  A    between atoms: C_3  and  C_4
REMARK    3  A    between atoms: C_6  and  N_7
REMARK    4  A    between atoms: C_11  and  C_12
REMARK    5  A    between atoms: C_12  and  O_13
REMARK                            x       y       z     vdW  Elec       q    Type
REMARK                         _______ _______ _______ _____ _____    ______ ____
ROOT
ATOM      1  C   UNL     1      -1.355  11.150  18.488  0.00  0.00    +0.000 A 
ATOM      2  N   UNL     1      -2.383  11.778  18.969  0.00  0.00    +0.000 NA
ATOM      3  C   UNL     1      -3.593  11.655  18.319  0.00  0.00    +0.000 A 
ATOM      4  C   UNL     1      -3.702  10.940  17.184  0.00  0.00    +0.000 A 
ATOM      5  C   UNL     1      -2.535  10.257  16.629  0.00  0.00    +0.000 A 
ATOM      6  O   UNL     1      -2.611   9.562  15.624  0.00  0.00    +0.000 OA
ATOM      7  N   UNL     1      -1.385  10.439  17.319  0.00  0.00    +0.000 N 
ATOM      8  H   UNL     1      -0.607   9.866  17.029  0.00  0.00    +0.000 HD
ENDROOT
BRANCH   3   9
ATOM      9  N   UNL     1      -4.737  12.263  18.852  0.00  0.00    +0.000 N 
ATOM     10  C   UNL     1      -4.778  12.835  20.209  0.00  0.00    +0.000 C 
ATOM     11  C   UNL     1      -5.886  12.196  21.058  0.00  0.00    +0.000 C 
ATOM     12  O   UNL     1      -7.163  12.155  20.398  0.00  0.00    +0.000 OA
ATOM     13  C   UNL     1      -7.092  11.548  19.087  0.00  0.00    +0.000 C 
ATOM     14  C   UNL     1      -6.057  12.258  18.198  0.00  0.00    +0.000 C 
BRANCH  13  15
ATOM     15  C   UNL     1      -6.844  10.033  19.179  0.00  0.00    +0.000 C 
BRANCH  15  16
ATOM     16  O   UNL     1      -7.854   9.421  19.984  0.00  0.00    +0.000 OA
ATOM     17  H   UNL     1      -7.733   9.780  20.883  0.00  0.00    +0.000 HD
ENDBRANCH  15  16
ENDBRANCH  13  15
ENDBRANCH   3   9
BRANCH   1  18
ATOM     18  C   UNL     1      -0.018  11.168  19.199  0.00  0.00    +0.000 C 
BRANCH  18  20
ATOM     19  O   UNL     1      -0.265   9.428  20.808  0.00  0.00    +0.000 OA
ATOM     20  C   UNL     1       0.324   9.815  19.798  0.00  0.00    +0.000 C 
ATOM     21  N   UNL     1       1.270   9.061  19.127  0.00  0.00    +0.000 N 
ATOM     22  C   UNL     1       1.966   9.424  17.881  0.00  0.00    +0.000 C 
ATOM     23  C   UNL     1       2.956   8.297  17.557  0.00  0.00    +0.000 C 
ATOM     24  C   UNL     1       2.697   7.315  18.654  0.00  0.00    +0.000 A 
ATOM     25  C   UNL     1       3.302   6.085  18.874  0.00  0.00    +0.000 A 
ATOM     26 CL   UNL     1       4.524   5.492  17.821  0.00  0.00    +0.000 Cl
ATOM     27  C   UNL     1       2.915   5.322  19.977  0.00  0.00    +0.000 A 
ATOM     28  C   UNL     1       1.926   5.793  20.848  0.00  0.00    +0.000 A 
ATOM     29  C   UNL     1       1.323   7.034  20.627  0.00  0.00    +0.000 A 
ATOM     30  C   UNL     1       1.720   7.788  19.532  0.00  0.00    +0.000 A 
ENDBRANCH  18  20
ENDBRANCH   1  18
TORSDOF 5
ENDMDL
