MODEL 1
REMARK VINA RESULT:      -6.4      0.000      0.000
REMARK  Name = 
REMARK  3 active torsions:
REMARK  status: ('A' for Active; 'I' for Inactive)
REMARK    1  A    between atoms: C_1  and  O_2
REMARK    2  A    between atoms: O_2  and  C_3
REMARK    3  A    between atoms: C_9  and  C_10
REMARK                            x       y       z     vdW  Elec       q    Type
REMARK                         _______ _______ _______ _____ _____    ______ ____
ROOT
ATOM      1  C   UNL     1       3.796   6.254  17.695  0.00  0.00    +0.000 A 
ATOM      2  C   UNL     1       4.670   6.848  16.774  0.00  0.00    +0.000 A 
ATOM      3  C   UNL     1       5.395   6.065  15.876  0.00  0.00    +0.000 A 
ATOM      4  C   UNL     1       5.265   4.681  15.904  0.00  0.00    +0.000 A 
ATOM      5 CL   UNL     1       6.163   3.718  14.798  0.00  0.00    +0.000 Cl
ATOM      6  C   UNL     1       4.414   4.072  16.825  0.00  0.00    +0.000 A 
ATOM      7  C   UNL     1       3.666   4.846  17.731  0.00  0.00    +0.000 A 
ENDROOT
BRANCH   7   8
ATOM      8  C   UNL     1       2.791   4.138  18.670  0.00  0.00    +0.000 A 
ATOM      9  C   UNL     1       1.550   3.620  18.355  0.00  0.00    +0.000 A 
ATOM     10  S   UNL     1       0.851   2.879  19.733  0.00  0.00    +0.000 S 
ATOM     11  C   UNL     1       2.251   3.276  20.641  0.00  0.00    +0.000 A 
ATOM     12  N   UNL     1       2.347   2.952  21.938  0.00  0.00    +0.000 N 
ATOM     13  N   UNL     1       3.198   3.891  19.977  0.00  0.00    +0.000 NA
ATOM     14  H   UNL     1       1.726   2.245  22.311  0.00  0.00    +0.000 HD
ATOM     15  H   UNL     1       3.276   2.967  22.340  0.00  0.00    +0.000 HD
ENDBRANCH   7   8
BRANCH   1  17
ATOM     16  C   UNL     1       2.255   8.013  18.125  0.00  0.00    +0.000 C 
ATOM     17  O   UNL     1       3.107   6.988  18.629  0.00  0.00    +0.000 OA
ENDBRANCH   1  17
TORSDOF 2
ENDMDL
MODEL 2
REMARK VINA RESULT:      -6.3      2.304      2.813
REMARK  Name = 
REMARK  3 active torsions:
REMARK  status: ('A' for Active; 'I' for Inactive)
REMARK    1  A    between atoms: C_1  and  O_2
REMARK    2  A    between atoms: O_2  and  C_3
REMARK    3  A    between atoms: C_9  and  C_10
REMARK                            x       y       z     vdW  Elec       q    Type
REMARK                         _______ _______ _______ _____ _____    ______ ____
ROOT
ATOM      1  C   UNL     1       6.493   4.658  17.960  0.00  0.00    +0.000 A 
ATOM      2  C   UNL     1       7.437   4.703  16.925  0.00  0.00    +0.000 A 
ATOM      3  C   UNL     1       7.051   4.492  15.601  0.00  0.00    +0.000 A 
ATOM      4  C   UNL     1       5.721   4.217  15.305  0.00  0.00    +0.000 A 
ATOM      5 CL   UNL     1       5.248   3.953  13.672  0.00  0.00    +0.000 Cl
ATOM      6  C   UNL     1       4.771   4.150  16.324  0.00  0.00    +0.000 A 
ATOM      7  C   UNL     1       5.140   4.372  17.663  0.00  0.00    +0.000 A 
ENDROOT
BRANCH   7   8
ATOM      8  C   UNL     1       4.089   4.287  18.682  0.00  0.00    +0.000 A 
ATOM      9  C   UNL     1       3.562   3.110  19.175  0.00  0.00    +0.000 A 
ATOM     10  S   UNL     1       2.354   3.447  20.343  0.00  0.00    +0.000 S 
ATOM     11  C   UNL     1       2.634   5.126  20.129  0.00  0.00    +0.000 A 
ATOM     12  N   UNL     1       1.928   6.036  20.816  0.00  0.00    +0.000 N 
ATOM     13  N   UNL     1       3.577   5.436  19.275  0.00  0.00    +0.000 NA
ATOM     14  H   UNL     1       1.430   5.742  21.646  0.00  0.00    +0.000 HD
ATOM     15  H   UNL     1       2.312   6.973  20.851  0.00  0.00    +0.000 HD
ENDBRANCH   7   8
BRANCH   1  17
ATOM     16  C   UNL     1       7.888   5.739  19.554  0.00  0.00    +0.000 C 
ATOM     17  O   UNL     1       6.845   4.808  19.279  0.00  0.00    +0.000 OA
ENDBRANCH   1  17
TORSDOF 2
ENDMDL
MODEL 3
REMARK VINA RESULT:      -6.3      3.766      5.306
REMARK  Name = 
REMARK  3 active torsions:
REMARK  status: ('A' for Active; 'I' for Inactive)
REMARK    1  A    between atoms: C_1  and  O_2
REMARK    2  A    between atoms: O_2  and  C_3
REMARK    3  A    between atoms: C_9  and  C_10
REMARK                            x       y       z     vdW  Elec       q    Type
REMARK                         _______ _______ _______ _____ _____    ______ ____
ROOT
ATOM      1  C   UNL     1       3.016   3.696  19.529  0.00  0.00    +0.000 A 
ATOM      2  C   UNL     1       1.930   3.856  20.401  0.00  0.00    +0.000 A 
ATOM      3  C   UNL     1       1.470   5.130  20.736  0.00  0.00    +0.000 A 
ATOM      4  C   UNL     1       2.103   6.252  20.216  0.00  0.00    +0.000 A 
ATOM      5 CL   UNL     1       1.535   7.821  20.633  0.00  0.00    +0.000 Cl
ATOM      6  C   UNL     1       3.196   6.112  19.361  0.00  0.00    +0.000 A 
ATOM      7  C   UNL     1       3.667   4.836  19.002  0.00  0.00    +0.000 A 
ENDROOT
BRANCH   7   8
ATOM      8  C   UNL     1       4.818   4.764  18.098  0.00  0.00    +0.000 A 
ATOM      9  C   UNL     1       4.762   4.957  16.732  0.00  0.00    +0.000 A 
ATOM     10  S   UNL     1       6.322   4.780  16.045  0.00  0.00    +0.000 S 
ATOM     11  C   UNL     1       6.963   4.485  17.609  0.00  0.00    +0.000 A 
ATOM     12  N   UNL     1       8.268   4.233  17.783  0.00  0.00    +0.000 N 
ATOM     13  N   UNL     1       6.099   4.540  18.591  0.00  0.00    +0.000 NA
ATOM     14  H   UNL     1       8.915   4.482  17.046  0.00  0.00    +0.000 HD
ATOM     15  H   UNL     1       8.626   4.335  18.725  0.00  0.00    +0.000 HD
ENDBRANCH   7   8
BRANCH   1  17
ATOM     16  C   UNL     1       2.852   1.730  18.202  0.00  0.00    +0.000 C 
ATOM     17  O   UNL     1       3.529   2.461  19.219  0.00  0.00    +0.000 OA
ENDBRANCH   1  17
TORSDOF 2
ENDMDL
MODEL 4
REMARK VINA RESULT:      -6.2      2.205      2.758
REMARK  Name = 
REMARK  3 active torsions:
REMARK  status: ('A' for Active; 'I' for Inactive)
REMARK    1  A    between atoms: C_1  and  O_2
REMARK    2  A    between atoms: O_2  and  C_3
REMARK    3  A    between atoms: C_9  and  C_10
REMARK                            x       y       z     vdW  Elec       q    Type
REMARK                         _______ _______ _______ _____ _____    ______ ____
ROOT
ATOM      1  C   UNL     1       6.220   4.583  17.619  0.00  0.00    +0.000 A 
ATOM      2  C   UNL     1       7.354   4.780  16.819  0.00  0.00    +0.000 A 
ATOM      3  C   UNL     1       7.297   4.566  15.441  0.00  0.00    +0.000 A 
ATOM      4  C   UNL     1       6.111   4.135  14.858  0.00  0.00    +0.000 A 
ATOM      5 CL   UNL     1       6.044   3.869  13.160  0.00  0.00    +0.000 Cl
ATOM      6  C   UNL     1       4.978   3.917  15.641  0.00  0.00    +0.000 A 
ATOM      7  C   UNL     1       5.013   4.139  17.030  0.00  0.00    +0.000 A 
ENDROOT
BRANCH   7   8
ATOM      8  C   UNL     1       3.785   3.890  17.791  0.00  0.00    +0.000 A 
ATOM      9  C   UNL     1       3.036   4.865  18.419  0.00  0.00    +0.000 A 
ATOM     10  S   UNL     1       1.685   4.158  19.202  0.00  0.00    +0.000 S 
ATOM     11  C   UNL     1       2.177   2.617  18.632  0.00  0.00    +0.000 A 
ATOM     12  N   UNL     1       1.478   1.514  18.937  0.00  0.00    +0.000 N 
ATOM     13  N   UNL     1       3.251   2.609  17.885  0.00  0.00    +0.000 NA
ATOM     14  H   UNL     1       0.526   1.615  19.266  0.00  0.00    +0.000 HD
ATOM     15  H   UNL     1       1.653   0.696  18.366  0.00  0.00    +0.000 HD
ENDBRANCH   7   8
BRANCH   1  17
ATOM     16  C   UNL     1       7.265   5.590  19.503  0.00  0.00    +0.000 C 
ATOM     17  O   UNL     1       6.253   4.732  18.984  0.00  0.00    +0.000 OA
ENDBRANCH   1  17
TORSDOF 2
ENDMDL
MODEL 5
REMARK VINA RESULT:      -6.2      3.414      4.708
REMARK  Name = 
REMARK  3 active torsions:
REMARK  status: ('A' for Active; 'I' for Inactive)
REMARK    1  A    between atoms: C_1  and  O_2
REMARK    2  A    between atoms: O_2  and  C_3
REMARK    3  A    between atoms: C_9  and  C_10
REMARK                            x       y       z     vdW  Elec       q    Type
REMARK                         _______ _______ _______ _____ _____    ______ ____
ROOT
ATOM      1  C   UNL     1       2.994   6.114  19.127  0.00  0.00    +0.000 A 
ATOM      2  C   UNL     1       1.991   6.293  20.091  0.00  0.00    +0.000 A 
ATOM      3  C   UNL     1       1.559   5.223  20.874  0.00  0.00    +0.000 A 
ATOM      4  C   UNL     1       2.114   3.962  20.687  0.00  0.00    +0.000 A 
ATOM      5 CL   UNL     1       1.577   2.643  21.651  0.00  0.00    +0.000 Cl
ATOM      6  C   UNL     1       3.099   3.762  19.721  0.00  0.00    +0.000 A 
ATOM      7  C   UNL     1       3.556   4.832  18.930  0.00  0.00    +0.000 A 
ENDROOT
BRANCH   7   8
ATOM      8  C   UNL     1       4.595   4.548  17.936  0.00  0.00    +0.000 A 
ATOM      9  C   UNL     1       4.354   4.181  16.627  0.00  0.00    +0.000 A 
ATOM     10  S   UNL     1       5.835   3.936  15.799  0.00  0.00    +0.000 S 
ATOM     11  C   UNL     1       6.688   4.359  17.227  0.00  0.00    +0.000 A 
ATOM     12  N   UNL     1       8.028   4.353  17.256  0.00  0.00    +0.000 N 
ATOM     13  N   UNL     1       5.942   4.691  18.251  0.00  0.00    +0.000 NA
ATOM     14  H   UNL     1       8.535   4.368  16.381  0.00  0.00    +0.000 HD
ATOM     15  H   UNL     1       8.465   4.859  18.018  0.00  0.00    +0.000 HD
ENDBRANCH   7   8
BRANCH   1  17
ATOM     16  C   UNL     1       2.419   8.091  17.938  0.00  0.00    +0.000 C 
ATOM     17  O   UNL     1       3.407   7.132  18.303  0.00  0.00    +0.000 OA
ENDBRANCH   1  17
TORSDOF 2
ENDMDL
MODEL 6
REMARK VINA RESULT:      -6.1      2.171      2.642
REMARK  Name = 
REMARK  3 active torsions:
REMARK  status: ('A' for Active; 'I' for Inactive)
REMARK    1  A    between atoms: C_1  and  O_2
REMARK    2  A    between atoms: O_2  and  C_3
REMARK    3  A    between atoms: C_9  and  C_10
REMARK                            x       y       z     vdW  Elec       q    Type
REMARK                         _______ _______ _______ _____ _____    ______ ____
ROOT
ATOM      1  C   UNL     1       6.403   4.863  18.193  0.00  0.00    +0.000 A 
ATOM      2  C   UNL     1       7.369   4.861  17.176  0.00  0.00    +0.000 A 
ATOM      3  C   UNL     1       7.008   4.597  15.855  0.00  0.00    +0.000 A 
ATOM      4  C   UNL     1       5.683   4.317  15.543  0.00  0.00    +0.000 A 
ATOM      5 CL   UNL     1       5.242   3.989  13.913  0.00  0.00    +0.000 Cl
ATOM      6  C   UNL     1       4.712   4.297  16.544  0.00  0.00    +0.000 A 
ATOM      7  C   UNL     1       5.055   4.572  17.881  0.00  0.00    +0.000 A 
ENDROOT
BRANCH   7   8
ATOM      8  C   UNL     1       3.983   4.535  18.880  0.00  0.00    +0.000 A 
ATOM      9  C   UNL     1       3.101   5.567  19.129  0.00  0.00    +0.000 A 
ATOM     10  S   UNL     1       2.010   5.126  20.375  0.00  0.00    +0.000 S 
ATOM     11  C   UNL     1       2.769   3.591  20.478  0.00  0.00    +0.000 A 
ATOM     12  N   UNL     1       2.355   2.675  21.365  0.00  0.00    +0.000 N 
ATOM     13  N   UNL     1       3.749   3.389  19.632  0.00  0.00    +0.000 NA
ATOM     14  H   UNL     1       1.438   2.777  21.779  0.00  0.00    +0.000 HD
ATOM     15  H   UNL     1       2.650   1.720  21.199  0.00  0.00    +0.000 HD
ENDBRANCH   7   8
BRANCH   1  17
ATOM     16  C   UNL     1       7.984   5.690  19.765  0.00  0.00    +0.000 C 
ATOM     17  O   UNL     1       6.730   5.065  19.512  0.00  0.00    +0.000 OA
ENDBRANCH   1  17
TORSDOF 2
ENDMDL
MODEL 7
REMARK VINA RESULT:      -6.1      1.217      1.345
REMARK  Name = 
REMARK  3 active torsions:
REMARK  status: ('A' for Active; 'I' for Inactive)
REMARK    1  A    between atoms: C_1  and  O_2
REMARK    2  A    between atoms: O_2  and  C_3
REMARK    3  A    between atoms: C_9  and  C_10
REMARK                            x       y       z     vdW  Elec       q    Type
REMARK                         _______ _______ _______ _____ _____    ______ ____
ROOT
ATOM      1  C   UNL     1       4.111   6.196  17.413  0.00  0.00    +0.000 A 
ATOM      2  C   UNL     1       4.788   6.801  16.345  0.00  0.00    +0.000 A 
ATOM      3  C   UNL     1       5.422   6.024  15.375  0.00  0.00    +0.000 A 
ATOM      4  C   UNL     1       5.398   4.638  15.475  0.00  0.00    +0.000 A 
ATOM      5 CL   UNL     1       6.183   3.683  14.279  0.00  0.00    +0.000 Cl
ATOM      6  C   UNL     1       4.744   4.020  16.541  0.00  0.00    +0.000 A 
ATOM      7  C   UNL     1       4.090   4.786  17.522  0.00  0.00    +0.000 A 
ENDROOT
BRANCH   7   8
ATOM      8  C   UNL     1       3.423   4.069  18.613  0.00  0.00    +0.000 A 
ATOM      9  C   UNL     1       4.073   3.400  19.631  0.00  0.00    +0.000 A 
ATOM     10  S   UNL     1       2.932   2.691  20.696  0.00  0.00    +0.000 S 
ATOM     11  C   UNL     1       1.661   3.343  19.747  0.00  0.00    +0.000 A 
ATOM     12  N   UNL     1       0.378   3.122  20.067  0.00  0.00    +0.000 N 
ATOM     13  N   UNL     1       2.036   4.066  18.721  0.00  0.00    +0.000 NA
ATOM     14  H   UNL     1       0.156   2.809  21.003  0.00  0.00    +0.000 HD
ATOM     15  H   UNL     1      -0.306   3.738  19.644  0.00  0.00    +0.000 HD
ENDBRANCH   7   8
BRANCH   1  17
ATOM     16  C   UNL     1       2.595   7.929  18.006  0.00  0.00    +0.000 C 
ATOM     17  O   UNL     1       3.522   6.928  18.415  0.00  0.00    +0.000 OA
ENDBRANCH   1  17
TORSDOF 2
ENDMDL
MODEL 8
REMARK VINA RESULT:      -6.1      3.850      5.059
REMARK  Name = 
REMARK  3 active torsions:
REMARK  status: ('A' for Active; 'I' for Inactive)
REMARK    1  A    between atoms: C_1  and  O_2
REMARK    2  A    between atoms: O_2  and  C_3
REMARK    3  A    between atoms: C_9  and  C_10
REMARK                            x       y       z     vdW  Elec       q    Type
REMARK                         _______ _______ _______ _____ _____    ______ ____
ROOT
ATOM      1  C   UNL     1       4.097   3.822  17.170  0.00  0.00    +0.000 A 
ATOM      2  C   UNL     1       2.827   3.242  17.041  0.00  0.00    +0.000 A 
ATOM      3  C   UNL     1       1.843   3.465  18.004  0.00  0.00    +0.000 A 
ATOM      4  C   UNL     1       2.127   4.254  19.112  0.00  0.00    +0.000 A 
ATOM      5 CL   UNL     1       0.913   4.525  20.299  0.00  0.00    +0.000 Cl
ATOM      6  C   UNL     1       3.390   4.825  19.266  0.00  0.00    +0.000 A 
ATOM      7  C   UNL     1       4.392   4.621  18.300  0.00  0.00    +0.000 A 
ENDROOT
BRANCH   7   8
ATOM      8  C   UNL     1       5.696   5.251  18.526  0.00  0.00    +0.000 A 
ATOM      9  C   UNL     1       6.187   6.325  17.810  0.00  0.00    +0.000 A 
ATOM     10  S   UNL     1       7.745   6.753  18.381  0.00  0.00    +0.000 S 
ATOM     11  C   UNL     1       7.646   5.502  19.551  0.00  0.00    +0.000 A 
ATOM     12  N   UNL     1       8.656   5.271  20.402  0.00  0.00    +0.000 N 
ATOM     13  N   UNL     1       6.528   4.821  19.554  0.00  0.00    +0.000 NA
ATOM     14  H   UNL     1       9.352   5.993  20.540  0.00  0.00    +0.000 HD
ATOM     15  H   UNL     1       8.438   4.719  21.223  0.00  0.00    +0.000 HD
ENDBRANCH   7   8
BRANCH   1  17
ATOM     16  C   UNL     1       5.092   4.362  15.079  0.00  0.00    +0.000 C 
ATOM     17  O   UNL     1       5.107   3.581  16.270  0.00  0.00    +0.000 OA
ENDBRANCH   1  17
TORSDOF 2
ENDMDL
MODEL 9
REMARK VINA RESULT:      -6.0      3.576      4.904
REMARK  Name = 
REMARK  3 active torsions:
REMARK  status: ('A' for Active; 'I' for Inactive)
REMARK    1  A    between atoms: C_1  and  O_2
REMARK    2  A    between atoms: O_2  and  C_3
REMARK    3  A    between atoms: C_9  and  C_10
REMARK                            x       y       z     vdW  Elec       q    Type
REMARK                         _______ _______ _______ _____ _____    ______ ____
ROOT
ATOM      1  C   UNL     1       3.138   6.090  19.093  0.00  0.00    +0.000 A 
ATOM      2  C   UNL     1       2.036   6.179  19.954  0.00  0.00    +0.000 A 
ATOM      3  C   UNL     1       1.664   5.094  20.748  0.00  0.00    +0.000 A 
ATOM      4  C   UNL     1       2.382   3.905  20.672  0.00  0.00    +0.000 A 
ATOM      5 CL   UNL     1       1.920   2.568  21.650  0.00  0.00    +0.000 Cl
ATOM      6  C   UNL     1       3.470   3.793  19.808  0.00  0.00    +0.000 A 
ATOM      7  C   UNL     1       3.867   4.880  19.009  0.00  0.00    +0.000 A 
ENDROOT
BRANCH   7   8
ATOM      8  C   UNL     1       5.021   4.691  18.125  0.00  0.00    +0.000 A 
ATOM      9  C   UNL     1       6.323   5.015  18.448  0.00  0.00    +0.000 A 
ATOM     10  S   UNL     1       7.367   4.646  17.140  0.00  0.00    +0.000 S 
ATOM     11  C   UNL     1       6.022   4.060  16.250  0.00  0.00    +0.000 A 
ATOM     12  N   UNL     1       6.173   3.585  15.005  0.00  0.00    +0.000 N 
ATOM     13  N   UNL     1       4.872   4.100  16.875  0.00  0.00    +0.000 NA
ATOM     14  H   UNL     1       7.098   3.320  14.693  0.00  0.00    +0.000 HD
ATOM     15  H   UNL     1       5.416   3.019  14.643  0.00  0.00    +0.000 HD
ENDBRANCH   7   8
BRANCH   1  17
ATOM     16  C   UNL     1       2.489   8.076  17.958  0.00  0.00    +0.000 C 
ATOM     17  O   UNL     1       3.500   7.119  18.259  0.00  0.00    +0.000 OA
ENDBRANCH   1  17
TORSDOF 2
ENDMDL
