MODEL 1
REMARK VINA RESULT:      -6.2      0.000      0.000
REMARK  Name = 
REMARK  14 active torsions:
REMARK  status: ('A' for Active; 'I' for Inactive)
REMARK    1  A    between atoms: C_1  and  C_2
REMARK    2  A    between atoms: C_2  and  C_3
REMARK    3  A    between atoms: C_3  and  C_4
REMARK    4  A    between atoms: C_4  and  C_5
REMARK    5  A    between atoms: C_5  and  C_6
REMARK    6  A    between atoms: C_6  and  C_7
REMARK    7  A    between atoms: C_7  and  C_8
REMARK    8  A    between atoms: C_7  and  N_11
REMARK    9  A    between atoms: C_8  and  C_9
REMARK   10  A    between atoms: C_8  and  O_10
REMARK   11  A    between atoms: C_14  and  C_15
REMARK   12  A    between atoms: N_17  and  CA_18
REMARK   13  A    between atoms: CA_18  and  C_19
REMARK   14  A    between atoms: C_19  and  O_20
REMARK                            x       y       z     vdW  Elec       q    Type
REMARK                         _______ _______ _______ _____ _____    ______ ____
ROOT
ATOM      1  N   UNK A   1       3.716   5.658  18.752  0.00  0.00    +0.000 N 
ATOM      2  C   UNK A   1       4.656   4.888  19.377  0.00  0.00    +0.000 A 
ATOM      3  N   UNK A   1       5.702   4.668  18.614  0.00  0.00    +0.000 NA
ATOM      4  C   UNK A   1       5.396   5.270  17.404  0.00  0.00    +0.000 A 
ATOM      5  C   UNK A   1       4.162   5.885  17.481  0.00  0.00    +0.000 A 
ENDROOT
BRANCH   4   6
ATOM      6  C   UNK A   1       6.288   5.222  16.238  0.00  0.00    +0.000 C 
ATOM      7  O   UNK A   1       7.276   5.941  16.126  0.00  0.00    +0.000 OA
ATOM      8  N   GLY A   2       5.906   4.295  15.293  0.00  0.00    +0.000 N 
ATOM      9  H   GLY A   2       5.096   3.726  15.508  0.00  0.00    +0.000 HD
BRANCH   8  10
ATOM     10  CA  GLY A   2       6.650   4.111  14.062  0.00  0.00    +0.000 C 
BRANCH  10  11
ATOM     11  C   GLY A   2       5.759   3.594  12.934  0.00  0.00    +0.000 C 
BRANCH  11  12
ATOM     12  O   GLY A   2       6.431   2.566  12.206  0.00  0.00    +0.000 OA
ATOM     13  H   GLY A   2       7.238   2.360  12.711  0.00  0.00    +0.000 HD
ENDBRANCH  11  12
ENDBRANCH  10  11
ENDBRANCH   8  10
ENDBRANCH   4   6
BRANCH   1  14
ATOM     14  C   UNK A   1       2.442   6.126  19.320  0.00  0.00    +0.000 C 
BRANCH  14  15
ATOM     15  C   UNK A   1       2.404   7.668  19.513  0.00  0.00    +0.000 C 
ATOM     16  C   UNK A   1       1.744   8.462  18.391  0.00  0.00    +0.000 C 
BRANCH  15  17
ATOM     17  O   UNK A   1       1.775   8.012  20.752  0.00  0.00    +0.000 OA
ATOM     18  H   UNK A   1       2.134   7.437  21.452  0.00  0.00    +0.000 HD
ENDBRANCH  15  17
ENDBRANCH  14  15
BRANCH  14  19
ATOM     19  C   UNK A   1       2.097   5.305  20.584  0.00  0.00    +0.000 C 
BRANCH  19  20
ATOM     20  C   UNK A   1       0.981   4.283  20.367  0.00  0.00    +0.000 C 
BRANCH  20  21
ATOM     21  C   UNK A   1       1.346   2.910  20.937  0.00  0.00    +0.000 C 
BRANCH  21  22
ATOM     22  C   UNK A   1       1.816   1.988  19.811  0.00  0.00    +0.000 C 
BRANCH  22  24
ATOM     23  C   UNK A   1       2.588   2.505  17.482  0.00  0.00    +0.000 C 
ATOM     24  C   UNK A   1       1.404   2.502  18.435  0.00  0.00    +0.000 C 
ENDBRANCH  22  24
ENDBRANCH  21  22
ENDBRANCH  20  21
ENDBRANCH  19  20
ENDBRANCH  14  19
ENDBRANCH   1  14
TORSDOF 12
ENDMDL
MODEL 2
REMARK VINA RESULT:      -6.2      2.419      4.373
REMARK  Name = 
REMARK  14 active torsions:
REMARK  status: ('A' for Active; 'I' for Inactive)
REMARK    1  A    between atoms: C_1  and  C_2
REMARK    2  A    between atoms: C_2  and  C_3
REMARK    3  A    between atoms: C_3  and  C_4
REMARK    4  A    between atoms: C_4  and  C_5
REMARK    5  A    between atoms: C_5  and  C_6
REMARK    6  A    between atoms: C_6  and  C_7
REMARK    7  A    between atoms: C_7  and  C_8
REMARK    8  A    between atoms: C_7  and  N_11
REMARK    9  A    between atoms: C_8  and  C_9
REMARK   10  A    between atoms: C_8  and  O_10
REMARK   11  A    between atoms: C_14  and  C_15
REMARK   12  A    between atoms: N_17  and  CA_18
REMARK   13  A    between atoms: CA_18  and  C_19
REMARK   14  A    between atoms: C_19  and  O_20
REMARK                            x       y       z     vdW  Elec       q    Type
REMARK                         _______ _______ _______ _____ _____    ______ ____
ROOT
ATOM      1  N   UNK A   1       5.585   4.642  17.402  0.00  0.00    +0.000 N 
ATOM      2  C   UNK A   1       6.920   4.519  17.664  0.00  0.00    +0.000 A 
ATOM      3  N   UNK A   1       7.645   4.570  16.569  0.00  0.00    +0.000 NA
ATOM      4  C   UNK A   1       6.727   4.664  15.536  0.00  0.00    +0.000 A 
ATOM      5  C   UNK A   1       5.444   4.707  16.045  0.00  0.00    +0.000 A 
ENDROOT
BRANCH   4   6
ATOM      6  C   UNK A   1       7.117   4.700  14.121  0.00  0.00    +0.000 C 
ATOM      7  O   UNK A   1       7.923   5.511  13.672  0.00  0.00    +0.000 OA
ATOM      8  N   GLY A   2       6.493   3.739  13.354  0.00  0.00    +0.000 N 
ATOM      9  H   GLY A   2       5.877   3.095  13.837  0.00  0.00    +0.000 HD
BRANCH   8  10
ATOM     10  CA  GLY A   2       6.735   3.626  11.929  0.00  0.00    +0.000 C 
BRANCH  10  11
ATOM     11  C   GLY A   2       6.995   2.179  11.513  0.00  0.00    +0.000 C 
BRANCH  11  12
ATOM     12  O   GLY A   2       5.780   1.430  11.545  0.00  0.00    +0.000 OA
ATOM     13  H   GLY A   2       5.183   1.856  10.905  0.00  0.00    +0.000 HD
ENDBRANCH  11  12
ENDBRANCH  10  11
ENDBRANCH   8  10
ENDBRANCH   4   6
BRANCH   1  14
ATOM     14  C   UNK A   1       4.493   4.664  18.389  0.00  0.00    +0.000 C 
BRANCH  14  15
ATOM     15  C   UNK A   1       4.112   3.242  18.890  0.00  0.00    +0.000 C 
ATOM     16  C   UNK A   1       3.593   2.280  17.828  0.00  0.00    +0.000 C 
BRANCH  15  17
ATOM     17  O   UNK A   1       5.213   2.629  19.569  0.00  0.00    +0.000 OA
ATOM     18  H   UNK A   1       4.866   2.120  20.324  0.00  0.00    +0.000 HD
ENDBRANCH  15  17
ENDBRANCH  14  15
BRANCH  14  19
ATOM     19  C   UNK A   1       3.311   5.499  17.847  0.00  0.00    +0.000 C 
BRANCH  19  20
ATOM     20  C   UNK A   1       3.524   7.009  17.957  0.00  0.00    +0.000 C 
BRANCH  20  21
ATOM     21  C   UNK A   1       2.340   7.706  18.632  0.00  0.00    +0.000 C 
BRANCH  21  22
ATOM     22  C   UNK A   1       1.802   8.813  17.724  0.00  0.00    +0.000 C 
BRANCH  22  24
ATOM     23  C   UNK A   1       0.778   9.616  19.869  0.00  0.00    +0.000 C 
ATOM     24  C   UNK A   1       1.335  10.031  18.517  0.00  0.00    +0.000 C 
ENDBRANCH  22  24
ENDBRANCH  21  22
ENDBRANCH  20  21
ENDBRANCH  19  20
ENDBRANCH  14  19
ENDBRANCH   1  14
TORSDOF 12
ENDMDL
MODEL 3
REMARK VINA RESULT:      -6.1      2.425      3.681
REMARK  Name = 
REMARK  14 active torsions:
REMARK  status: ('A' for Active; 'I' for Inactive)
REMARK    1  A    between atoms: C_1  and  C_2
REMARK    2  A    between atoms: C_2  and  C_3
REMARK    3  A    between atoms: C_3  and  C_4
REMARK    4  A    between atoms: C_4  and  C_5
REMARK    5  A    between atoms: C_5  and  C_6
REMARK    6  A    between atoms: C_6  and  C_7
REMARK    7  A    between atoms: C_7  and  C_8
REMARK    8  A    between atoms: C_7  and  N_11
REMARK    9  A    between atoms: C_8  and  C_9
REMARK   10  A    between atoms: C_8  and  O_10
REMARK   11  A    between atoms: C_14  and  C_15
REMARK   12  A    between atoms: N_17  and  CA_18
REMARK   13  A    between atoms: CA_18  and  C_19
REMARK   14  A    between atoms: C_19  and  O_20
REMARK                            x       y       z     vdW  Elec       q    Type
REMARK                         _______ _______ _______ _____ _____    ______ ____
ROOT
ATOM      1  N   UNK A   1       6.081   5.638  17.143  0.00  0.00    +0.000 N 
ATOM      2  C   UNK A   1       5.257   6.442  16.405  0.00  0.00    +0.000 A 
ATOM      3  N   UNK A   1       5.382   6.225  15.115  0.00  0.00    +0.000 NA
ATOM      4  C   UNK A   1       6.388   5.278  15.007  0.00  0.00    +0.000 A 
ATOM      5  C   UNK A   1       6.829   4.911  16.262  0.00  0.00    +0.000 A 
ENDROOT
BRANCH   4   6
ATOM      6  C   UNK A   1       6.881   4.780  13.716  0.00  0.00    +0.000 C 
ATOM      7  O   UNK A   1       7.773   5.338  13.083  0.00  0.00    +0.000 OA
ATOM      8  N   GLY A   2       6.248   3.632  13.292  0.00  0.00    +0.000 N 
ATOM      9  H   GLY A   2       5.554   3.233  13.915  0.00  0.00    +0.000 HD
BRANCH   8  10
ATOM     10  CA  GLY A   2       6.584   2.997  12.033  0.00  0.00    +0.000 C 
BRANCH  10  11
ATOM     11  C   GLY A   2       5.410   2.192  11.475  0.00  0.00    +0.000 C 
BRANCH  11  12
ATOM     12  O   GLY A   2       4.248   3.015  11.380  0.00  0.00    +0.000 OA
ATOM     13  H   GLY A   2       4.566   3.909  11.158  0.00  0.00    +0.000 HD
ENDBRANCH  11  12
ENDBRANCH  10  11
ENDBRANCH   8  10
ENDBRANCH   4   6
BRANCH   1  14
ATOM     14  C   UNK A   1       6.176   5.588  18.611  0.00  0.00    +0.000 C 
BRANCH  14  15
ATOM     15  C   UNK A   1       7.640   5.723  19.120  0.00  0.00    +0.000 C 
ATOM     16  C   UNK A   1       8.319   7.059  18.838  0.00  0.00    +0.000 C 
BRANCH  15  17
ATOM     17  O   UNK A   1       7.718   5.454  20.523  0.00  0.00    +0.000 OA
ATOM     18  H   UNK A   1       7.209   6.134  20.999  0.00  0.00    +0.000 HD
ENDBRANCH  15  17
ENDBRANCH  14  15
BRANCH  14  19
ATOM     19  C   UNK A   1       5.416   4.353  19.145  0.00  0.00    +0.000 C 
BRANCH  19  20
ATOM     20  C   UNK A   1       4.103   4.076  18.413  0.00  0.00    +0.000 C 
BRANCH  20  21
ATOM     21  C   UNK A   1       2.909   4.729  19.114  0.00  0.00    +0.000 C 
BRANCH  21  22
ATOM     22  C   UNK A   1       1.743   3.742  19.184  0.00  0.00    +0.000 C 
BRANCH  22  24
ATOM     23  C   UNK A   1       1.816   2.945  21.561  0.00  0.00    +0.000 C 
ATOM     24  C   UNK A   1       1.047   3.769  20.542  0.00  0.00    +0.000 C 
ENDBRANCH  22  24
ENDBRANCH  21  22
ENDBRANCH  20  21
ENDBRANCH  19  20
ENDBRANCH  14  19
ENDBRANCH   1  14
TORSDOF 12
ENDMDL
MODEL 4
REMARK VINA RESULT:      -6.1      2.326      3.975
REMARK  Name = 
REMARK  14 active torsions:
REMARK  status: ('A' for Active; 'I' for Inactive)
REMARK    1  A    between atoms: C_1  and  C_2
REMARK    2  A    between atoms: C_2  and  C_3
REMARK    3  A    between atoms: C_3  and  C_4
REMARK    4  A    between atoms: C_4  and  C_5
REMARK    5  A    between atoms: C_5  and  C_6
REMARK    6  A    between atoms: C_6  and  C_7
REMARK    7  A    between atoms: C_7  and  C_8
REMARK    8  A    between atoms: C_7  and  N_11
REMARK    9  A    between atoms: C_8  and  C_9
REMARK   10  A    between atoms: C_8  and  O_10
REMARK   11  A    between atoms: C_14  and  C_15
REMARK   12  A    between atoms: N_17  and  CA_18
REMARK   13  A    between atoms: CA_18  and  C_19
REMARK   14  A    between atoms: C_19  and  O_20
REMARK                            x       y       z     vdW  Elec       q    Type
REMARK                         _______ _______ _______ _____ _____    ______ ____
ROOT
ATOM      1  N   UNK A   1       5.294   4.101  17.688  0.00  0.00    +0.000 N 
ATOM      2  C   UNK A   1       6.577   4.460  17.994  0.00  0.00    +0.000 A 
ATOM      3  N   UNK A   1       7.294   4.696  16.918  0.00  0.00    +0.000 NA
ATOM      4  C   UNK A   1       6.451   4.411  15.856  0.00  0.00    +0.000 A 
ATOM      5  C   UNK A   1       5.208   4.037  16.326  0.00  0.00    +0.000 A 
ENDROOT
BRANCH   4   6
ATOM      6  C   UNK A   1       6.875   4.500  14.453  0.00  0.00    +0.000 C 
ATOM      7  O   UNK A   1       7.688   5.328  14.054  0.00  0.00    +0.000 OA
ATOM      8  N   GLY A   2       6.273   3.566  13.637  0.00  0.00    +0.000 N 
ATOM      9  H   GLY A   2       5.648   2.902  14.081  0.00  0.00    +0.000 HD
BRANCH   8  10
ATOM     10  CA  GLY A   2       6.550   3.505  12.215  0.00  0.00    +0.000 C 
BRANCH  10  11
ATOM     11  C   GLY A   2       5.988   2.232  11.584  0.00  0.00    +0.000 C 
BRANCH  11  12
ATOM     12  O   GLY A   2       7.053   1.371  11.179  0.00  0.00    +0.000 OA
ATOM     13  H   GLY A   2       7.870   1.894  11.261  0.00  0.00    +0.000 HD
ENDBRANCH  11  12
ENDBRANCH  10  11
ENDBRANCH   8  10
ENDBRANCH   4   6
BRANCH   1  14
ATOM     14  C   UNK A   1       4.213   3.800  18.640  0.00  0.00    +0.000 C 
BRANCH  14  15
ATOM     15  C   UNK A   1       4.523   2.558  19.523  0.00  0.00    +0.000 C 
ATOM     16  C   UNK A   1       3.748   2.464  20.833  0.00  0.00    +0.000 C 
BRANCH  15  17
ATOM     17  O   UNK A   1       4.328   1.347  18.785  0.00  0.00    +0.000 OA
ATOM     18  H   UNK A   1       3.396   1.299  18.508  0.00  0.00    +0.000 HD
ENDBRANCH  15  17
ENDBRANCH  14  15
BRANCH  14  19
ATOM     19  C   UNK A   1       2.858   3.748  17.899  0.00  0.00    +0.000 C 
BRANCH  19  20
ATOM     20  C   UNK A   1       1.781   4.633  18.525  0.00  0.00    +0.000 C 
BRANCH  20  21
ATOM     21  C   UNK A   1       1.726   6.016  17.871  0.00  0.00    +0.000 C 
BRANCH  21  22
ATOM     22  C   UNK A   1       2.672   6.973  18.598  0.00  0.00    +0.000 C 
BRANCH  22  24
ATOM     23  C   UNK A   1       1.497   9.087  17.933  0.00  0.00    +0.000 C 
ATOM     24  C   UNK A   1       2.803   8.311  17.877  0.00  0.00    +0.000 C 
ENDBRANCH  22  24
ENDBRANCH  21  22
ENDBRANCH  20  21
ENDBRANCH  19  20
ENDBRANCH  14  19
ENDBRANCH   1  14
TORSDOF 12
ENDMDL
MODEL 5
REMARK VINA RESULT:      -6.0      2.129      3.450
REMARK  Name = 
REMARK  14 active torsions:
REMARK  status: ('A' for Active; 'I' for Inactive)
REMARK    1  A    between atoms: C_1  and  C_2
REMARK    2  A    between atoms: C_2  and  C_3
REMARK    3  A    between atoms: C_3  and  C_4
REMARK    4  A    between atoms: C_4  and  C_5
REMARK    5  A    between atoms: C_5  and  C_6
REMARK    6  A    between atoms: C_6  and  C_7
REMARK    7  A    between atoms: C_7  and  C_8
REMARK    8  A    between atoms: C_7  and  N_11
REMARK    9  A    between atoms: C_8  and  C_9
REMARK   10  A    between atoms: C_8  and  O_10
REMARK   11  A    between atoms: C_14  and  C_15
REMARK   12  A    between atoms: N_17  and  CA_18
REMARK   13  A    between atoms: CA_18  and  C_19
REMARK   14  A    between atoms: C_19  and  O_20
REMARK                            x       y       z     vdW  Elec       q    Type
REMARK                         _______ _______ _______ _____ _____    ______ ____
ROOT
ATOM      1  N   UNK A   1       5.248   4.467  17.584  0.00  0.00    +0.000 N 
ATOM      2  C   UNK A   1       6.305   5.309  17.788  0.00  0.00    +0.000 A 
ATOM      3  N   UNK A   1       6.982   5.529  16.684  0.00  0.00    +0.000 NA
ATOM      4  C   UNK A   1       6.373   4.734  15.726  0.00  0.00    +0.000 A 
ATOM      5  C   UNK A   1       5.297   4.069  16.278  0.00  0.00    +0.000 A 
ENDROOT
BRANCH   4   6
ATOM      6  C   UNK A   1       6.851   4.644  14.341  0.00  0.00    +0.000 C 
ATOM      7  O   UNK A   1       7.739   5.365  13.894  0.00  0.00    +0.000 OA
ATOM      8  N   GLY A   2       6.209   3.675  13.600  0.00  0.00    +0.000 N 
ATOM      9  H   GLY A   2       5.520   3.109  14.082  0.00  0.00    +0.000 HD
BRANCH   8  10
ATOM     10  CA  GLY A   2       6.530   3.444  12.205  0.00  0.00    +0.000 C 
BRANCH  10  11
ATOM     11  C   GLY A   2       5.727   2.281  11.625  0.00  0.00    +0.000 C 
BRANCH  11  12
ATOM     12  O   GLY A   2       6.590   1.184  11.329  0.00  0.00    +0.000 OA
ATOM     13  H   GLY A   2       6.461   0.984  10.385  0.00  0.00    +0.000 HD
ENDBRANCH  11  12
ENDBRANCH  10  11
ENDBRANCH   8  10
ENDBRANCH   4   6
BRANCH   1  14
ATOM     14  C   UNK A   1       4.261   4.034  18.586  0.00  0.00    +0.000 C 
BRANCH  14  15
ATOM     15  C   UNK A   1       4.277   2.496  18.816  0.00  0.00    +0.000 C 
ATOM     16  C   UNK A   1       4.646   2.039  20.223  0.00  0.00    +0.000 C 
BRANCH  15  17
ATOM     17  O   UNK A   1       3.020   1.914  18.458  0.00  0.00    +0.000 OA
ATOM     18  H   UNK A   1       2.443   1.914  19.242  0.00  0.00    +0.000 HD
ENDBRANCH  15  17
ENDBRANCH  14  15
BRANCH  14  19
ATOM     19  C   UNK A   1       2.874   4.625  18.247  0.00  0.00    +0.000 C 
BRANCH  19  20
ATOM     20  C   UNK A   1       2.719   6.094  18.641  0.00  0.00    +0.000 C 
BRANCH  20  21
ATOM     21  C   UNK A   1       2.030   6.251  19.999  0.00  0.00    +0.000 C 
BRANCH  21  22
ATOM     22  C   UNK A   1       2.225   4.984  20.832  0.00  0.00    +0.000 C 
BRANCH  22  24
ATOM     23  C   UNK A   1       1.304   2.739  21.469  0.00  0.00    +0.000 C 
ATOM     24  C   UNK A   1       1.023   4.048  20.747  0.00  0.00    +0.000 C 
ENDBRANCH  22  24
ENDBRANCH  21  22
ENDBRANCH  20  21
ENDBRANCH  19  20
ENDBRANCH  14  19
ENDBRANCH   1  14
TORSDOF 12
ENDMDL
MODEL 6
REMARK VINA RESULT:      -6.0      2.841      7.241
REMARK  Name = 
REMARK  14 active torsions:
REMARK  status: ('A' for Active; 'I' for Inactive)
REMARK    1  A    between atoms: C_1  and  C_2
REMARK    2  A    between atoms: C_2  and  C_3
REMARK    3  A    between atoms: C_3  and  C_4
REMARK    4  A    between atoms: C_4  and  C_5
REMARK    5  A    between atoms: C_5  and  C_6
REMARK    6  A    between atoms: C_6  and  C_7
REMARK    7  A    between atoms: C_7  and  C_8
REMARK    8  A    between atoms: C_7  and  N_11
REMARK    9  A    between atoms: C_8  and  C_9
REMARK   10  A    between atoms: C_8  and  O_10
REMARK   11  A    between atoms: C_14  and  C_15
REMARK   12  A    between atoms: N_17  and  CA_18
REMARK   13  A    between atoms: CA_18  and  C_19
REMARK   14  A    between atoms: C_19  and  O_20
REMARK                            x       y       z     vdW  Elec       q    Type
REMARK                         _______ _______ _______ _____ _____    ______ ____
ROOT
ATOM      1  N   UNK A   1       3.230   4.741  19.520  0.00  0.00    +0.000 N 
ATOM      2  C   UNK A   1       2.185   4.404  20.334  0.00  0.00    +0.000 A 
ATOM      3  N   UNK A   1       1.479   5.453  20.690  0.00  0.00    +0.000 NA
ATOM      4  C   UNK A   1       2.139   6.536  20.133  0.00  0.00    +0.000 A 
ATOM      5  C   UNK A   1       3.230   6.102  19.406  0.00  0.00    +0.000 A 
ENDROOT
BRANCH   4   6
ATOM      6  C   UNK A   1       1.703   7.925  20.327  0.00  0.00    +0.000 C 
ATOM      7  O   UNK A   1       1.438   8.677  19.393  0.00  0.00    +0.000 OA
ATOM      8  N   GLY A   2       1.622   8.294  21.652  0.00  0.00    +0.000 N 
ATOM      9  H   GLY A   2       1.824   7.580  22.342  0.00  0.00    +0.000 HD
BRANCH   8  10
ATOM     10  CA  GLY A   2       1.226   9.632  22.047  0.00  0.00    +0.000 C 
BRANCH  10  11
ATOM     11  C   GLY A   2      -0.242   9.687  22.467  0.00  0.00    +0.000 C 
BRANCH  11  12
ATOM     12  O   GLY A   2      -0.348   9.703  23.891  0.00  0.00    +0.000 OA
ATOM     13  H   GLY A   2      -1.177  10.171  24.096  0.00  0.00    +0.000 HD
ENDBRANCH  11  12
ENDBRANCH  10  11
ENDBRANCH   8  10
ENDBRANCH   4   6
BRANCH   1  14
ATOM     14  C   UNK A   1       4.200   3.819  18.907  0.00  0.00    +0.000 C 
BRANCH  14  15
ATOM     15  C   UNK A   1       4.042   2.358  19.416  0.00  0.00    +0.000 C 
ATOM     16  C   UNK A   1       3.599   1.336  18.375  0.00  0.00    +0.000 C 
BRANCH  15  17
ATOM     17  O   UNK A   1       5.251   1.898  20.029  0.00  0.00    +0.000 OA
ATOM     18  H   UNK A   1       5.032   1.512  20.896  0.00  0.00    +0.000 HD
ENDBRANCH  15  17
ENDBRANCH  14  15
BRANCH  14  19
ATOM     19  C   UNK A   1       5.627   4.399  19.033  0.00  0.00    +0.000 C 
BRANCH  19  20
ATOM     20  C   UNK A   1       6.277   4.729  17.690  0.00  0.00    +0.000 C 
BRANCH  20  21
ATOM     21  C   UNK A   1       5.305   4.540  16.523  0.00  0.00    +0.000 C 
BRANCH  21  22
ATOM     22  C   UNK A   1       5.940   3.648  15.455  0.00  0.00    +0.000 C 
BRANCH  22  24
ATOM     23  C   UNK A   1       6.147   3.652  12.955  0.00  0.00    +0.000 C 
ATOM     24  C   UNK A   1       6.385   4.444  14.231  0.00  0.00    +0.000 C 
ENDBRANCH  22  24
ENDBRANCH  21  22
ENDBRANCH  20  21
ENDBRANCH  19  20
ENDBRANCH  14  19
ENDBRANCH   1  14
TORSDOF 12
ENDMDL
MODEL 7
REMARK VINA RESULT:      -6.0      2.315      4.236
REMARK  Name = 
REMARK  14 active torsions:
REMARK  status: ('A' for Active; 'I' for Inactive)
REMARK    1  A    between atoms: C_1  and  C_2
REMARK    2  A    between atoms: C_2  and  C_3
REMARK    3  A    between atoms: C_3  and  C_4
REMARK    4  A    between atoms: C_4  and  C_5
REMARK    5  A    between atoms: C_5  and  C_6
REMARK    6  A    between atoms: C_6  and  C_7
REMARK    7  A    between atoms: C_7  and  C_8
REMARK    8  A    between atoms: C_7  and  N_11
REMARK    9  A    between atoms: C_8  and  C_9
REMARK   10  A    between atoms: C_8  and  O_10
REMARK   11  A    between atoms: C_14  and  C_15
REMARK   12  A    between atoms: N_17  and  CA_18
REMARK   13  A    between atoms: CA_18  and  C_19
REMARK   14  A    between atoms: C_19  and  O_20
REMARK                            x       y       z     vdW  Elec       q    Type
REMARK                         _______ _______ _______ _____ _____    ______ ____
ROOT
ATOM      1  N   UNK A   1       5.630   5.378  17.393  0.00  0.00    +0.000 N 
ATOM      2  C   UNK A   1       6.821   6.043  17.466  0.00  0.00    +0.000 A 
ATOM      3  N   UNK A   1       7.476   6.009  16.327  0.00  0.00    +0.000 NA
ATOM      4  C   UNK A   1       6.699   5.224  15.490  0.00  0.00    +0.000 A 
ATOM      5  C   UNK A   1       5.552   4.826  16.146  0.00  0.00    +0.000 A 
ENDROOT
BRANCH   4   6
ATOM      6  C   UNK A   1       7.093   4.888  14.116  0.00  0.00    +0.000 C 
ATOM      7  O   UNK A   1       7.972   5.493  13.508  0.00  0.00    +0.000 OA
ATOM      8  N   GLY A   2       6.384   3.834  13.583  0.00  0.00    +0.000 N 
ATOM      9  H   GLY A   2       5.709   3.381  14.189  0.00  0.00    +0.000 HD
BRANCH   8  10
ATOM     10  CA  GLY A   2       6.616   3.364  12.231  0.00  0.00    +0.000 C 
BRANCH  10  11
ATOM     11  C   GLY A   2       5.439   2.541  11.709  0.00  0.00    +0.000 C 
BRANCH  11  12
ATOM     12  O   GLY A   2       4.252   3.333  11.691  0.00  0.00    +0.000 OA
ATOM     13  H   GLY A   2       3.799   3.124  10.854  0.00  0.00    +0.000 HD
ENDBRANCH  11  12
ENDBRANCH  10  11
ENDBRANCH   8  10
ENDBRANCH   4   6
BRANCH   1  14
ATOM     14  C   UNK A   1       4.629   5.245  18.464  0.00  0.00    +0.000 C 
BRANCH  14  15
ATOM     15  C   UNK A   1       4.343   3.762  18.834  0.00  0.00    +0.000 C 
ATOM     16  C   UNK A   1       3.614   2.942  17.776  0.00  0.00    +0.000 C 
BRANCH  15  17
ATOM     17  O   UNK A   1       5.552   3.083  19.191  0.00  0.00    +0.000 OA
ATOM     18  H   UNK A   1       6.240   3.313  18.541  0.00  0.00    +0.000 HD
ENDBRANCH  15  17
ENDBRANCH  14  15
BRANCH  14  19
ATOM     19  C   UNK A   1       3.376   6.081  18.120  0.00  0.00    +0.000 C 
BRANCH  19  20
ATOM     20  C   UNK A   1       2.500   6.401  19.331  0.00  0.00    +0.000 C 
BRANCH  20  21
ATOM     21  C   UNK A   1       1.957   7.832  19.281  0.00  0.00    +0.000 C 
BRANCH  21  22
ATOM     22  C   UNK A   1       2.339   8.487  17.953  0.00  0.00    +0.000 C 
BRANCH  22  24
ATOM     23  C   UNK A   1       1.036  10.318  19.068  0.00  0.00    +0.000 C 
ATOM     24  C   UNK A   1       1.951   9.962  17.906  0.00  0.00    +0.000 C 
ENDBRANCH  22  24
ENDBRANCH  21  22
ENDBRANCH  20  21
ENDBRANCH  19  20
ENDBRANCH  14  19
ENDBRANCH   1  14
TORSDOF 12
ENDMDL
MODEL 8
REMARK VINA RESULT:      -5.9      2.426      7.131
REMARK  Name = 
REMARK  14 active torsions:
REMARK  status: ('A' for Active; 'I' for Inactive)
REMARK    1  A    between atoms: C_1  and  C_2
REMARK    2  A    between atoms: C_2  and  C_3
REMARK    3  A    between atoms: C_3  and  C_4
REMARK    4  A    between atoms: C_4  and  C_5
REMARK    5  A    between atoms: C_5  and  C_6
REMARK    6  A    between atoms: C_6  and  C_7
REMARK    7  A    between atoms: C_7  and  C_8
REMARK    8  A    between atoms: C_7  and  N_11
REMARK    9  A    between atoms: C_8  and  C_9
REMARK   10  A    between atoms: C_8  and  O_10
REMARK   11  A    between atoms: C_14  and  C_15
REMARK   12  A    between atoms: N_17  and  CA_18
REMARK   13  A    between atoms: CA_18  and  C_19
REMARK   14  A    between atoms: C_19  and  O_20
REMARK                            x       y       z     vdW  Elec       q    Type
REMARK                         _______ _______ _______ _____ _____    ______ ____
ROOT
ATOM      1  N   UNK A   1       4.947   4.980  18.167  0.00  0.00    +0.000 N 
ATOM      2  C   UNK A   1       4.595   3.779  18.715  0.00  0.00    +0.000 A 
ATOM      3  N   UNK A   1       3.528   3.877  19.476  0.00  0.00    +0.000 NA
ATOM      4  C   UNK A   1       3.210   5.226  19.475  0.00  0.00    +0.000 A 
ATOM      5  C   UNK A   1       4.089   5.918  18.666  0.00  0.00    +0.000 A 
ENDROOT
BRANCH   4   6
ATOM      6  C   UNK A   1       2.094   5.785  20.248  0.00  0.00    +0.000 C 
ATOM      7  O   UNK A   1       1.206   5.090  20.734  0.00  0.00    +0.000 OA
ATOM      8  N   GLY A   2       2.146   7.156  20.375  0.00  0.00    +0.000 N 
ATOM      9  H   GLY A   2       2.948   7.625  19.969  0.00  0.00    +0.000 HD
BRANCH   8  10
ATOM     10  CA  GLY A   2       1.123   7.895  21.089  0.00  0.00    +0.000 C 
BRANCH  10  11
ATOM     11  C   GLY A   2       1.730   8.901  22.066  0.00  0.00    +0.000 C 
BRANCH  11  12
ATOM     12  O   GLY A   2       1.089  10.169  21.931  0.00  0.00    +0.000 OA
ATOM     13  H   GLY A   2       0.222   9.992  21.523  0.00  0.00    +0.000 HD
ENDBRANCH  11  12
ENDBRANCH  10  11
ENDBRANCH   8  10
ENDBRANCH   4   6
BRANCH   1  14
ATOM     14  C   UNK A   1       6.064   5.231  17.241  0.00  0.00    +0.000 C 
BRANCH  14  15
ATOM     15  C   UNK A   1       6.953   6.426  17.688  0.00  0.00    +0.000 C 
ATOM     16  C   UNK A   1       7.834   6.179  18.908  0.00  0.00    +0.000 C 
BRANCH  15  17
ATOM     17  O   UNK A   1       7.777   6.880  16.609  0.00  0.00    +0.000 OA
ATOM     18  H   UNK A   1       7.235   7.428  16.014  0.00  0.00    +0.000 HD
ENDBRANCH  15  17
ENDBRANCH  14  15
BRANCH  14  19
ATOM     19  C   UNK A   1       5.535   5.323  15.792  0.00  0.00    +0.000 C 
BRANCH  19  20
ATOM     20  C   UNK A   1       6.308   4.454  14.800  0.00  0.00    +0.000 C 
BRANCH  20  21
ATOM     21  C   UNK A   1       5.453   4.068  13.591  0.00  0.00    +0.000 C 
BRANCH  21  22
ATOM     22  C   UNK A   1       6.330   3.422  12.518  0.00  0.00    +0.000 C 
BRANCH  22  24
ATOM     23  C   UNK A   1       6.497   1.375  11.078  0.00  0.00    +0.000 C 
ATOM     24  C   UNK A   1       5.558   2.411  11.674  0.00  0.00    +0.000 C 
ENDBRANCH  22  24
ENDBRANCH  21  22
ENDBRANCH  20  21
ENDBRANCH  19  20
ENDBRANCH  14  19
ENDBRANCH   1  14
TORSDOF 12
ENDMDL
MODEL 9
REMARK VINA RESULT:      -5.8      2.240      4.169
REMARK  Name = 
REMARK  14 active torsions:
REMARK  status: ('A' for Active; 'I' for Inactive)
REMARK    1  A    between atoms: C_1  and  C_2
REMARK    2  A    between atoms: C_2  and  C_3
REMARK    3  A    between atoms: C_3  and  C_4
REMARK    4  A    between atoms: C_4  and  C_5
REMARK    5  A    between atoms: C_5  and  C_6
REMARK    6  A    between atoms: C_6  and  C_7
REMARK    7  A    between atoms: C_7  and  C_8
REMARK    8  A    between atoms: C_7  and  N_11
REMARK    9  A    between atoms: C_8  and  C_9
REMARK   10  A    between atoms: C_8  and  O_10
REMARK   11  A    between atoms: C_14  and  C_15
REMARK   12  A    between atoms: N_17  and  CA_18
REMARK   13  A    between atoms: CA_18  and  C_19
REMARK   14  A    between atoms: C_19  and  O_20
REMARK                            x       y       z     vdW  Elec       q    Type
REMARK                         _______ _______ _______ _____ _____    ______ ____
ROOT
ATOM      1  N   UNK A   1       4.257   5.432  17.126  0.00  0.00    +0.000 N 
ATOM      2  C   UNK A   1       4.775   6.667  16.858  0.00  0.00    +0.000 A 
ATOM      3  N   UNK A   1       5.569   6.654  15.811  0.00  0.00    +0.000 NA
ATOM      4  C   UNK A   1       5.621   5.326  15.418  0.00  0.00    +0.000 A 
ATOM      5  C   UNK A   1       4.811   4.560  16.232  0.00  0.00    +0.000 A 
ENDROOT
BRANCH   4   6
ATOM      6  C   UNK A   1       6.445   4.855  14.297  0.00  0.00    +0.000 C 
ATOM      7  O   UNK A   1       7.599   5.232  14.114  0.00  0.00    +0.000 OA
ATOM      8  N   GLY A   2       5.796   3.955  13.479  0.00  0.00    +0.000 N 
ATOM      9  H   GLY A   2       4.858   3.683  13.748  0.00  0.00    +0.000 HD
BRANCH   8  10
ATOM     10  CA  GLY A   2       6.438   3.390  12.308  0.00  0.00    +0.000 C 
BRANCH  10  11
ATOM     11  C   GLY A   2       5.527   2.395  11.589  0.00  0.00    +0.000 C 
BRANCH  11  12
ATOM     12  O   GLY A   2       6.180   1.133  11.460  0.00  0.00    +0.000 OA
ATOM     13  H   GLY A   2       5.955   0.628  12.262  0.00  0.00    +0.000 HD
ENDBRANCH  11  12
ENDBRANCH  10  11
ENDBRANCH   8  10
ENDBRANCH   4   6
BRANCH   1  14
ATOM     14  C   UNK A   1       3.308   5.089  18.198  0.00  0.00    +0.000 C 
BRANCH  14  15
ATOM     15  C   UNK A   1       2.561   3.751  17.930  0.00  0.00    +0.000 C 
ATOM     16  C   UNK A   1       2.854   2.620  18.909  0.00  0.00    +0.000 C 
BRANCH  15  17
ATOM     17  O   UNK A   1       1.146   3.960  17.877  0.00  0.00    +0.000 OA
ATOM     18  H   UNK A   1       0.957   4.874  18.155  0.00  0.00    +0.000 HD
ENDBRANCH  15  17
ENDBRANCH  14  15
BRANCH  14  19
ATOM     19  C   UNK A   1       2.390   6.297  18.494  0.00  0.00    +0.000 C 
BRANCH  19  20
ATOM     20  C   UNK A   1       2.188   6.563  19.985  0.00  0.00    +0.000 C 
BRANCH  20  21
ATOM     21  C   UNK A   1       1.741   8.003  20.252  0.00  0.00    +0.000 C 
BRANCH  21  22
ATOM     22  C   UNK A   1       0.758   8.033  21.423  0.00  0.00    +0.000 C 
BRANCH  22  24
ATOM     23  C   UNK A   1      -0.617   9.613  22.803  0.00  0.00    +0.000 C 
ATOM     24  C   UNK A   1       0.716   9.398  22.105  0.00  0.00    +0.000 C 
ENDBRANCH  22  24
ENDBRANCH  21  22
ENDBRANCH  20  21
ENDBRANCH  19  20
ENDBRANCH  14  19
ENDBRANCH   1  14
TORSDOF 12
ENDMDL
