MODEL 1
REMARK VINA RESULT:      -7.3      0.000      0.000
REMARK  Name = 
REMARK  12 active torsions:
REMARK  status: ('A' for Active; 'I' for Inactive)
REMARK    1  A    between atoms: C_1  and  C_2
REMARK    2  A    between atoms: C_2  and  O_3
REMARK    3  A    between atoms: O_3  and  C_4
REMARK    4  A    between atoms: C_7  and  O_8
REMARK    5  A    between atoms: O_8  and  C_9
REMARK    6  A    between atoms: C_9  and  C_10
REMARK    7  A    between atoms: C_11  and  N_12
REMARK    8  A    between atoms: C_13  and  C_15
REMARK    9  A    between atoms: N_19  and  S_20
REMARK   10  A    between atoms: S_20  and  C_23
REMARK   11  A    between atoms: C_24  and  C_25
REMARK   12  A    between atoms: C_28  and  C_29
REMARK                            x       y       z     vdW  Elec       q    Type
REMARK                         _______ _______ _______ _____ _____    ______ ____
ROOT
ATOM      1  N   UNL     1       2.462   7.220  19.718  0.00  0.00    +0.000 N 
ATOM      2  C   UNL     1       1.860   8.427  19.365  0.00  0.00    +0.000 C 
ATOM      3  O   UNL     1       1.431   8.741  18.269  0.00  0.00    +0.000 OA
ATOM      4  H   UNL     1       2.771   7.164  20.681  0.00  0.00    +0.000 HD
ENDROOT
BRANCH   1   9
ATOM      5  C   UNL     1       4.173   5.145  17.174  0.00  0.00    +0.000 A 
ATOM      6  C   UNL     1       3.466   3.956  17.185  0.00  0.00    +0.000 A 
ATOM      7  C   UNL     1       2.425   3.788  18.088  0.00  0.00    +0.000 A 
ATOM      8  C   UNL     1       2.086   4.784  19.030  0.00  0.00    +0.000 A 
ATOM      9  C   UNL     1       2.721   6.041  18.957  0.00  0.00    +0.000 A 
ATOM     10  C   UNL     1       3.775   6.185  18.017  0.00  0.00    +0.000 A 
BRANCH   5  11
ATOM     11  O   UNL     1       5.189   5.207  16.258  0.00  0.00    +0.000 OA
BRANCH  11  13
ATOM     12  C   UNL     1       6.039   3.976  14.400  0.00  0.00    +0.000 C 
ATOM     13  C   UNL     1       5.759   3.951  15.892  0.00  0.00    +0.000 C 
ENDBRANCH  11  13
ENDBRANCH   5  11
BRANCH   8  14
ATOM     14  O   UNL     1       1.167   4.513  20.014  0.00  0.00    +0.000 OA
BRANCH  14  15
ATOM     15  C   UNL     1       1.052   3.134  20.385  0.00  0.00    +0.000 C 
ATOM     16  C   UNL     1       1.800   2.842  21.669  0.00  0.00    +0.000 C 
ENDBRANCH  14  15
ENDBRANCH   8  14
ENDBRANCH   1   9
BRANCH   2  17
ATOM     17  C   UNL     1       1.767   9.408  20.554  0.00  0.00    +0.000 C 
ATOM     18  C   UNL     1       1.129   8.779  21.799  0.00  0.00    +0.000 C 
ATOM     19  C   UNL     1      -0.394   8.707  21.730  0.00  0.00    +0.000 C 
ATOM     20  C   UNL     1      -1.061   9.994  21.255  0.00  0.00    +0.000 C 
ATOM     21  N   UNL     1      -0.414  10.558  20.032  0.00  0.00    +0.000 NA
ATOM     22  C   UNL     1       1.064  10.720  20.191  0.00  0.00    +0.000 C 
BRANCH  21  23
ATOM     23  S   UNL     1      -1.195  12.001  19.466  0.00  0.00    +0.000 S 
ATOM     24  O   UNL     1      -1.532  12.806  20.616  0.00  0.00    +0.000 OA
ATOM     25  O   UNL     1      -0.401  12.543  18.382  0.00  0.00    +0.000 OA
BRANCH  23  26
ATOM     26  C   UNL     1      -2.681  11.638  18.706  0.00  0.00    +0.000 A 
ATOM     27  C   UNL     1      -3.970  12.030  19.145  0.00  0.00    +0.000 A 
ATOM     28  C   UNL     1      -4.393  12.838  20.313  0.00  0.00    +0.000 C 
ATOM     29  N   UNL     1      -4.922  11.511  18.356  0.00  0.00    +0.000 NA
ATOM     30  O   UNL     1      -4.266  10.741  17.425  0.00  0.00    +0.000 OA
ATOM     31  C   UNL     1      -2.924  10.788  17.650  0.00  0.00    +0.000 A 
ATOM     32  C   UNL     1      -2.123   9.926  16.757  0.00  0.00    +0.000 C 
ENDBRANCH  23  26
ENDBRANCH  21  23
ENDBRANCH   2  17
TORSDOF 8
ENDMDL
MODEL 2
REMARK VINA RESULT:      -7.3      3.487      8.945
REMARK  Name = 
REMARK  12 active torsions:
REMARK  status: ('A' for Active; 'I' for Inactive)
REMARK    1  A    between atoms: C_1  and  C_2
REMARK    2  A    between atoms: C_2  and  O_3
REMARK    3  A    between atoms: O_3  and  C_4
REMARK    4  A    between atoms: C_7  and  O_8
REMARK    5  A    between atoms: O_8  and  C_9
REMARK    6  A    between atoms: C_9  and  C_10
REMARK    7  A    between atoms: C_11  and  N_12
REMARK    8  A    between atoms: C_13  and  C_15
REMARK    9  A    between atoms: N_19  and  S_20
REMARK   10  A    between atoms: S_20  and  C_23
REMARK   11  A    between atoms: C_24  and  C_25
REMARK   12  A    between atoms: C_28  and  C_29
REMARK                            x       y       z     vdW  Elec       q    Type
REMARK                         _______ _______ _______ _____ _____    ______ ____
ROOT
ATOM      1  N   UNL     1       1.740   8.816  18.338  0.00  0.00    +0.000 N 
ATOM      2  C   UNL     1       2.174   7.651  18.967  0.00  0.00    +0.000 C 
ATOM      3  O   UNL     1       2.436   7.506  20.147  0.00  0.00    +0.000 OA
ATOM      4  H   UNL     1       1.597   8.734  17.338  0.00  0.00    +0.000 HD
ENDROOT
BRANCH   1   9
ATOM      5  C   UNL     1       1.915  12.512  18.482  0.00  0.00    +0.000 A 
ATOM      6  C   UNL     1       1.224  12.832  19.637  0.00  0.00    +0.000 A 
ATOM      7  C   UNL     1       0.626  11.822  20.378  0.00  0.00    +0.000 A 
ATOM      8  C   UNL     1       0.666  10.471  19.969  0.00  0.00    +0.000 A 
ATOM      9  C   UNL     1       1.459  10.116  18.858  0.00  0.00    +0.000 A 
ATOM     10  C   UNL     1       2.066  11.170  18.126  0.00  0.00    +0.000 A 
BRANCH   5  11
ATOM     11  O   UNL     1       2.456  13.579  17.816  0.00  0.00    +0.000 OA
BRANCH  11  13
ATOM     12  C   UNL     1       3.509  15.715  17.942  0.00  0.00    +0.000 C 
ATOM     13  C   UNL     1       2.430  14.818  18.522  0.00  0.00    +0.000 C 
ENDBRANCH  11  13
ENDBRANCH   5  11
BRANCH   8  14
ATOM     14  O   UNL     1      -0.080   9.530  20.634  0.00  0.00    +0.000 OA
BRANCH  14  15
ATOM     15  C   UNL     1       0.335   9.254  21.977  0.00  0.00    +0.000 C 
ATOM     16  C   UNL     1      -0.660   9.791  22.985  0.00  0.00    +0.000 C 
ENDBRANCH  14  15
ENDBRANCH   8  14
ENDBRANCH   1   9
BRANCH   2  17
ATOM     17  C   UNL     1       2.306   6.466  17.984  0.00  0.00    +0.000 C 
ATOM     18  C   UNL     1       1.387   5.290  18.340  0.00  0.00    +0.000 C 
ATOM     19  C   UNL     1       1.926   4.420  19.473  0.00  0.00    +0.000 C 
ATOM     20  C   UNL     1       3.401   4.057  19.337  0.00  0.00    +0.000 C 
ATOM     21  N   UNL     1       4.255   5.238  19.006  0.00  0.00    +0.000 NA
ATOM     22  C   UNL     1       3.752   5.990  17.816  0.00  0.00    +0.000 C 
BRANCH  21  23
ATOM     23  S   UNL     1       5.939   4.834  18.888  0.00  0.00    +0.000 S 
ATOM     24  O   UNL     1       6.627   5.467  19.988  0.00  0.00    +0.000 OA
ATOM     25  O   UNL     1       6.041   3.406  18.665  0.00  0.00    +0.000 OA
BRANCH  23  26
ATOM     26  C   UNL     1       6.631   5.493  17.472  0.00  0.00    +0.000 A 
ATOM     27  C   UNL     1       6.587   4.929  16.172  0.00  0.00    +0.000 A 
ATOM     28  C   UNL     1       5.954   3.685  15.675  0.00  0.00    +0.000 C 
ATOM     29  N   UNL     1       7.296   5.668  15.306  0.00  0.00    +0.000 NA
ATOM     30  O   UNL     1       7.844   6.693  16.041  0.00  0.00    +0.000 OA
ATOM     31  C   UNL     1       7.473   6.574  17.346  0.00  0.00    +0.000 A 
ATOM     32  C   UNL     1       8.075   7.578  18.247  0.00  0.00    +0.000 C 
ENDBRANCH  23  26
ENDBRANCH  21  23
ENDBRANCH   2  17
TORSDOF 8
ENDMDL
MODEL 3
REMARK VINA RESULT:      -7.3      3.359      8.995
REMARK  Name = 
REMARK  12 active torsions:
REMARK  status: ('A' for Active; 'I' for Inactive)
REMARK    1  A    between atoms: C_1  and  C_2
REMARK    2  A    between atoms: C_2  and  O_3
REMARK    3  A    between atoms: O_3  and  C_4
REMARK    4  A    between atoms: C_7  and  O_8
REMARK    5  A    between atoms: O_8  and  C_9
REMARK    6  A    between atoms: C_9  and  C_10
REMARK    7  A    between atoms: C_11  and  N_12
REMARK    8  A    between atoms: C_13  and  C_15
REMARK    9  A    between atoms: N_19  and  S_20
REMARK   10  A    between atoms: S_20  and  C_23
REMARK   11  A    between atoms: C_24  and  C_25
REMARK   12  A    between atoms: C_28  and  C_29
REMARK                            x       y       z     vdW  Elec       q    Type
REMARK                         _______ _______ _______ _____ _____    ______ ____
ROOT
ATOM      1  N   UNL     1       1.566   8.626  17.898  0.00  0.00    +0.000 N 
ATOM      2  C   UNL     1       2.102   7.604  18.679  0.00  0.00    +0.000 C 
ATOM      3  O   UNL     1       2.453   7.675  19.843  0.00  0.00    +0.000 OA
ATOM      4  H   UNL     1       1.358   8.367  16.940  0.00  0.00    +0.000 HD
ENDROOT
BRANCH   1   9
ATOM      5  C   UNL     1       2.229  12.249  18.271  0.00  0.00    +0.000 A 
ATOM      6  C   UNL     1       1.061  12.746  18.822  0.00  0.00    +0.000 A 
ATOM      7  C   UNL     1      -0.012  11.891  19.034  0.00  0.00    +0.000 A 
ATOM      8  C   UNL     1       0.036  10.527  18.668  0.00  0.00    +0.000 A 
ATOM      9  C   UNL     1       1.254   9.984  18.211  0.00  0.00    +0.000 A 
ATOM     10  C   UNL     1       2.336  10.881  18.013  0.00  0.00    +0.000 A 
BRANCH   5  11
ATOM     11  O   UNL     1       3.222  13.174  18.088  0.00  0.00    +0.000 OA
BRANCH  11  13
ATOM     12  C   UNL     1       3.919  15.154  19.222  0.00  0.00    +0.000 C 
ATOM     13  C   UNL     1       2.851  14.528  18.343  0.00  0.00    +0.000 C 
ENDBRANCH  11  13
ENDBRANCH   5  11
BRANCH   8  14
ATOM     14  O   UNL     1      -1.100   9.759  18.736  0.00  0.00    +0.000 OA
BRANCH  14  15
ATOM     15  C   UNL     1      -2.252  10.306  18.084  0.00  0.00    +0.000 C 
ATOM     16  C   UNL     1      -2.259   9.979  16.606  0.00  0.00    +0.000 C 
ENDBRANCH  14  15
ENDBRANCH   8  14
ENDBRANCH   1   9
BRANCH   2  17
ATOM     17  C   UNL     1       2.228   6.274  17.902  0.00  0.00    +0.000 C 
ATOM     18  C   UNL     1       1.350   5.158  18.484  0.00  0.00    +0.000 C 
ATOM     19  C   UNL     1       1.949   4.500  19.724  0.00  0.00    +0.000 C 
ATOM     20  C   UNL     1       3.427   4.145  19.593  0.00  0.00    +0.000 C 
ATOM     21  N   UNL     1       4.240   5.268  19.037  0.00  0.00    +0.000 NA
ATOM     22  C   UNL     1       3.678   5.803  17.759  0.00  0.00    +0.000 C 
BRANCH  21  23
ATOM     23  S   UNL     1       5.928   4.880  18.923  0.00  0.00    +0.000 S 
ATOM     24  O   UNL     1       6.613   5.546  20.006  0.00  0.00    +0.000 OA
ATOM     25  O   UNL     1       6.046   3.449  18.734  0.00  0.00    +0.000 OA
BRANCH  23  26
ATOM     26  C   UNL     1       6.608   5.513  17.490  0.00  0.00    +0.000 A 
ATOM     27  C   UNL     1       6.572   4.916  16.205  0.00  0.00    +0.000 A 
ATOM     28  C   UNL     1       5.957   3.650  15.740  0.00  0.00    +0.000 C 
ATOM     29  N   UNL     1       7.268   5.643  15.320  0.00  0.00    +0.000 NA
ATOM     30  O   UNL     1       7.801   6.695  16.027  0.00  0.00    +0.000 OA
ATOM     31  C   UNL     1       7.434   6.604  17.336  0.00  0.00    +0.000 A 
ATOM     32  C   UNL     1       8.021   7.640  18.209  0.00  0.00    +0.000 C 
ENDBRANCH  23  26
ENDBRANCH  21  23
ENDBRANCH   2  17
TORSDOF 8
ENDMDL
MODEL 4
REMARK VINA RESULT:      -7.3      0.609      1.604
REMARK  Name = 
REMARK  12 active torsions:
REMARK  status: ('A' for Active; 'I' for Inactive)
REMARK    1  A    between atoms: C_1  and  C_2
REMARK    2  A    between atoms: C_2  and  O_3
REMARK    3  A    between atoms: O_3  and  C_4
REMARK    4  A    between atoms: C_7  and  O_8
REMARK    5  A    between atoms: O_8  and  C_9
REMARK    6  A    between atoms: C_9  and  C_10
REMARK    7  A    between atoms: C_11  and  N_12
REMARK    8  A    between atoms: C_13  and  C_15
REMARK    9  A    between atoms: N_19  and  S_20
REMARK   10  A    between atoms: S_20  and  C_23
REMARK   11  A    between atoms: C_24  and  C_25
REMARK   12  A    between atoms: C_28  and  C_29
REMARK                            x       y       z     vdW  Elec       q    Type
REMARK                         _______ _______ _______ _____ _____    ______ ____
ROOT
ATOM      1  N   UNL     1       2.539   7.226  19.665  0.00  0.00    +0.000 N 
ATOM      2  C   UNL     1       1.889   8.413  19.335  0.00  0.00    +0.000 C 
ATOM      3  O   UNL     1       1.424   8.720  18.252  0.00  0.00    +0.000 OA
ATOM      4  H   UNL     1       2.873   7.174  20.620  0.00  0.00    +0.000 HD
ENDROOT
BRANCH   1   9
ATOM      5  C   UNL     1       4.271   5.218  17.081  0.00  0.00    +0.000 A 
ATOM      6  C   UNL     1       3.596   4.011  17.090  0.00  0.00    +0.000 A 
ATOM      7  C   UNL     1       2.571   3.809  18.005  0.00  0.00    +0.000 A 
ATOM      8  C   UNL     1       2.217   4.787  18.960  0.00  0.00    +0.000 A 
ATOM      9  C   UNL     1       2.819   6.060  18.890  0.00  0.00    +0.000 A 
ATOM     10  C   UNL     1       3.857   6.240  17.939  0.00  0.00    +0.000 A 
BRANCH   5  11
ATOM     11  O   UNL     1       5.273   5.315  16.153  0.00  0.00    +0.000 OA
BRANCH  11  13
ATOM     12  C   UNL     1       7.266   4.699  17.310  0.00  0.00    +0.000 C 
ATOM     13  C   UNL     1       6.277   4.303  16.229  0.00  0.00    +0.000 C 
ENDBRANCH  11  13
ENDBRANCH   5  11
BRANCH   8  14
ATOM     14  O   UNL     1       1.319   4.483  19.952  0.00  0.00    +0.000 OA
BRANCH  14  15
ATOM     15  C   UNL     1       1.894   4.073  21.198  0.00  0.00    +0.000 C 
ATOM     16  C   UNL     1       1.503   2.653  21.548  0.00  0.00    +0.000 C 
ENDBRANCH  14  15
ENDBRANCH   8  14
ENDBRANCH   1   9
BRANCH   2  17
ATOM     17  C   UNL     1       1.792   9.384  20.533  0.00  0.00    +0.000 C 
ATOM     18  C   UNL     1       1.185   8.732  21.782  0.00  0.00    +0.000 C 
ATOM     19  C   UNL     1      -0.337   8.628  21.734  0.00  0.00    +0.000 C 
ATOM     20  C   UNL     1      -1.038   9.903  21.277  0.00  0.00    +0.000 C 
ATOM     21  N   UNL     1      -0.421  10.490  20.049  0.00  0.00    +0.000 NA
ATOM     22  C   UNL     1       1.055  10.683  20.189  0.00  0.00    +0.000 C 
BRANCH  21  23
ATOM     23  S   UNL     1      -1.241  11.920  19.506  0.00  0.00    +0.000 S 
ATOM     24  O   UNL     1      -1.516  12.743  20.660  0.00  0.00    +0.000 OA
ATOM     25  O   UNL     1      -0.514  12.447  18.369  0.00  0.00    +0.000 OA
BRANCH  23  26
ATOM     26  C   UNL     1      -2.766  11.537  18.839  0.00  0.00    +0.000 A 
ATOM     27  C   UNL     1      -3.012  10.696  17.725  0.00  0.00    +0.000 A 
ATOM     28  C   UNL     1      -2.081   9.930  16.864  0.00  0.00    +0.000 C 
ATOM     29  N   UNL     1      -4.318  10.673  17.422  0.00  0.00    +0.000 NA
ATOM     30  O   UNL     1      -4.929  11.531  18.307  0.00  0.00    +0.000 OA
ATOM     31  C   UNL     1      -3.998  12.076  19.138  0.00  0.00    +0.000 A 
ATOM     32  C   UNL     1      -4.531  13.081  20.079  0.00  0.00    +0.000 C 
ENDBRANCH  23  26
ENDBRANCH  21  23
ENDBRANCH   2  17
TORSDOF 8
ENDMDL
MODEL 5
REMARK VINA RESULT:      -7.2      3.370      8.934
REMARK  Name = 
REMARK  12 active torsions:
REMARK  status: ('A' for Active; 'I' for Inactive)
REMARK    1  A    between atoms: C_1  and  C_2
REMARK    2  A    between atoms: C_2  and  O_3
REMARK    3  A    between atoms: O_3  and  C_4
REMARK    4  A    between atoms: C_7  and  O_8
REMARK    5  A    between atoms: O_8  and  C_9
REMARK    6  A    between atoms: C_9  and  C_10
REMARK    7  A    between atoms: C_11  and  N_12
REMARK    8  A    between atoms: C_13  and  C_15
REMARK    9  A    between atoms: N_19  and  S_20
REMARK   10  A    between atoms: S_20  and  C_23
REMARK   11  A    between atoms: C_24  and  C_25
REMARK   12  A    between atoms: C_28  and  C_29
REMARK                            x       y       z     vdW  Elec       q    Type
REMARK                         _______ _______ _______ _____ _____    ______ ____
ROOT
ATOM      1  N   UNL     1       1.734   8.869  17.872  0.00  0.00    +0.000 N 
ATOM      2  C   UNL     1       2.143   7.750  18.595  0.00  0.00    +0.000 C 
ATOM      3  O   UNL     1       2.356   7.685  19.792  0.00  0.00    +0.000 OA
ATOM      4  H   UNL     1       1.633   8.720  16.875  0.00  0.00    +0.000 HD
ENDROOT
BRANCH   1   9
ATOM      5  C   UNL     1       2.341  12.491  18.340  0.00  0.00    +0.000 A 
ATOM      6  C   UNL     1       1.242  12.922  19.062  0.00  0.00    +0.000 A 
ATOM      7  C   UNL     1       0.230  12.022  19.368  0.00  0.00    +0.000 A 
ATOM      8  C   UNL     1       0.267  10.680  18.930  0.00  0.00    +0.000 A 
ATOM      9  C   UNL     1       1.429  10.199  18.292  0.00  0.00    +0.000 A 
ATOM     10  C   UNL     1       2.450  11.141  18.001  0.00  0.00    +0.000 A 
BRANCH   5  11
ATOM     11  O   UNL     1       3.276  13.457  18.078  0.00  0.00    +0.000 OA
BRANCH  11  13
ATOM     12  C   UNL     1       3.546  15.728  17.403  0.00  0.00    +0.000 C 
ATOM     13  C   UNL     1       2.884  14.791  18.396  0.00  0.00    +0.000 C 
ENDBRANCH  11  13
ENDBRANCH   5  11
BRANCH   8  14
ATOM     14  O   UNL     1      -0.829   9.871  19.106  0.00  0.00    +0.000 OA
BRANCH  14  15
ATOM     15  C   UNL     1      -2.021  10.297  18.435  0.00  0.00    +0.000 C 
ATOM     16  C   UNL     1      -1.996   9.920  16.969  0.00  0.00    +0.000 C 
ENDBRANCH  14  15
ENDBRANCH   8  14
ENDBRANCH   1   9
BRANCH   2  17
ATOM     17  C   UNL     1       2.318   6.503  17.699  0.00  0.00    +0.000 C 
ATOM     18  C   UNL     1       1.368   5.359  18.076  0.00  0.00    +0.000 C 
ATOM     19  C   UNL     1       1.830   4.561  19.291  0.00  0.00    +0.000 C 
ATOM     20  C   UNL     1       3.307   4.179  19.265  0.00  0.00    +0.000 C 
ATOM     21  N   UNL     1       4.192   5.329  18.909  0.00  0.00    +0.000 NA
ATOM     22  C   UNL     1       3.767   6.007  17.646  0.00  0.00    +0.000 C 
BRANCH  21  23
ATOM     23  S   UNL     1       5.875   4.907  18.916  0.00  0.00    +0.000 S 
ATOM     24  O   UNL     1       6.529   5.694  19.934  0.00  0.00    +0.000 OA
ATOM     25  O   UNL     1       5.973   3.461  18.912  0.00  0.00    +0.000 OA
BRANCH  23  26
ATOM     26  C   UNL     1       6.624   5.343  17.444  0.00  0.00    +0.000 A 
ATOM     27  C   UNL     1       7.415   6.496  17.210  0.00  0.00    +0.000 A 
ATOM     28  C   UNL     1       7.822   7.594  18.118  0.00  0.00    +0.000 C 
ATOM     29  N   UNL     1       7.784   6.569  15.923  0.00  0.00    +0.000 NA
ATOM     30  O   UNL     1       7.201   5.492  15.298  0.00  0.00    +0.000 OA
ATOM     31  C   UNL     1       6.478   4.771  16.199  0.00  0.00    +0.000 A 
ATOM     32  C   UNL     1       5.737   3.634  15.619  0.00  0.00    +0.000 C 
ENDBRANCH  23  26
ENDBRANCH  21  23
ENDBRANCH   2  17
TORSDOF 8
ENDMDL
MODEL 6
REMARK VINA RESULT:      -7.2      2.644      4.156
REMARK  Name = 
REMARK  12 active torsions:
REMARK  status: ('A' for Active; 'I' for Inactive)
REMARK    1  A    between atoms: C_1  and  C_2
REMARK    2  A    between atoms: C_2  and  O_3
REMARK    3  A    between atoms: O_3  and  C_4
REMARK    4  A    between atoms: C_7  and  O_8
REMARK    5  A    between atoms: O_8  and  C_9
REMARK    6  A    between atoms: C_9  and  C_10
REMARK    7  A    between atoms: C_11  and  N_12
REMARK    8  A    between atoms: C_13  and  C_15
REMARK    9  A    between atoms: N_19  and  S_20
REMARK   10  A    between atoms: S_20  and  C_23
REMARK   11  A    between atoms: C_24  and  C_25
REMARK   12  A    between atoms: C_28  and  C_29
REMARK                            x       y       z     vdW  Elec       q    Type
REMARK                         _______ _______ _______ _____ _____    ______ ____
ROOT
ATOM      1  N   UNL     1       2.038   7.854  19.090  0.00  0.00    +0.000 N 
ATOM      2  C   UNL     1       1.611   9.114  18.675  0.00  0.00    +0.000 C 
ATOM      3  O   UNL     1       1.821   9.644  17.598  0.00  0.00    +0.000 OA
ATOM      4  H   UNL     1       1.776   7.606  20.037  0.00  0.00    +0.000 HD
ENDROOT
BRANCH   1   9
ATOM      5  C   UNL     1       4.778   6.504  16.998  0.00  0.00    +0.000 A 
ATOM      6  C   UNL     1       4.461   5.164  16.860  0.00  0.00    +0.000 A 
ATOM      7  C   UNL     1       3.347   4.655  17.512  0.00  0.00    +0.000 A 
ATOM      8  C   UNL     1       2.541   5.456  18.350  0.00  0.00    +0.000 A 
ATOM      9  C   UNL     1       2.784   6.844  18.411  0.00  0.00    +0.000 A 
ATOM     10  C   UNL     1       3.926   7.337  17.726  0.00  0.00    +0.000 A 
BRANCH   5  11
ATOM     11  O   UNL     1       5.903   6.906  16.328  0.00  0.00    +0.000 OA
BRANCH  11  13
ATOM     12  C   UNL     1       7.692   7.568  17.759  0.00  0.00    +0.000 C 
ATOM     13  C   UNL     1       7.138   6.458  16.884  0.00  0.00    +0.000 C 
ENDBRANCH  11  13
ENDBRANCH   5  11
BRANCH   8  14
ATOM     14  O   UNL     1       1.553   4.878  19.109  0.00  0.00    +0.000 OA
BRANCH  14  15
ATOM     15  C   UNL     1       1.688   3.468  19.322  0.00  0.00    +0.000 C 
ATOM     16  C   UNL     1       1.233   3.073  20.712  0.00  0.00    +0.000 C 
ENDBRANCH  14  15
ENDBRANCH   8  14
ENDBRANCH   1   9
BRANCH   2  17
ATOM     17  C   UNL     1       0.790   9.845  19.760  0.00  0.00    +0.000 C 
ATOM     18  C   UNL     1      -0.724   9.667  19.584  0.00  0.00    +0.000 C 
ATOM     19  C   UNL     1      -1.321  10.574  18.512  0.00  0.00    +0.000 C 
ATOM     20  C   UNL     1      -0.855  12.025  18.588  0.00  0.00    +0.000 C 
ATOM     21  N   UNL     1       0.627  12.144  18.743  0.00  0.00    +0.000 NA
ATOM     22  C   UNL     1       1.149  11.329  19.882  0.00  0.00    +0.000 C 
BRANCH  21  23
ATOM     23  S   UNL     1       1.163  13.794  18.791  0.00  0.00    +0.000 S 
ATOM     24  O   UNL     1       2.427  13.873  18.097  0.00  0.00    +0.000 OA
ATOM     25  O   UNL     1       0.049  14.638  18.411  0.00  0.00    +0.000 OA
BRANCH  23  26
ATOM     26  C   UNL     1       1.487  14.288  20.394  0.00  0.00    +0.000 A 
ATOM     27  C   UNL     1       2.763  14.544  20.956  0.00  0.00    +0.000 A 
ATOM     28  C   UNL     1       4.117  14.481  20.357  0.00  0.00    +0.000 C 
ATOM     29  N   UNL     1       2.661  14.840  22.259  0.00  0.00    +0.000 NA
ATOM     30  O   UNL     1       1.325  14.735  22.570  0.00  0.00    +0.000 OA
ATOM     31  C   UNL     1       0.621  14.374  21.461  0.00  0.00    +0.000 A 
ATOM     32  C   UNL     1      -0.819  14.150  21.698  0.00  0.00    +0.000 C 
ENDBRANCH  23  26
ENDBRANCH  21  23
ENDBRANCH   2  17
TORSDOF 8
ENDMDL
MODEL 7
REMARK VINA RESULT:      -7.1      2.715      4.084
REMARK  Name = 
REMARK  12 active torsions:
REMARK  status: ('A' for Active; 'I' for Inactive)
REMARK    1  A    between atoms: C_1  and  C_2
REMARK    2  A    between atoms: C_2  and  O_3
REMARK    3  A    between atoms: O_3  and  C_4
REMARK    4  A    between atoms: C_7  and  O_8
REMARK    5  A    between atoms: O_8  and  C_9
REMARK    6  A    between atoms: C_9  and  C_10
REMARK    7  A    between atoms: C_11  and  N_12
REMARK    8  A    between atoms: C_13  and  C_15
REMARK    9  A    between atoms: N_19  and  S_20
REMARK   10  A    between atoms: S_20  and  C_23
REMARK   11  A    between atoms: C_24  and  C_25
REMARK   12  A    between atoms: C_28  and  C_29
REMARK                            x       y       z     vdW  Elec       q    Type
REMARK                         _______ _______ _______ _____ _____    ______ ____
ROOT
ATOM      1  N   UNL     1       2.183   7.734  19.002  0.00  0.00    +0.000 N 
ATOM      2  C   UNL     1       1.670   8.952  18.559  0.00  0.00    +0.000 C 
ATOM      3  O   UNL     1       1.791   9.441  17.450  0.00  0.00    +0.000 OA
ATOM      4  H   UNL     1       1.988   7.517  19.972  0.00  0.00    +0.000 HD
ENDROOT
BRANCH   1   9
ATOM      5  C   UNL     1       5.020   6.379  17.046  0.00  0.00    +0.000 A 
ATOM      6  C   UNL     1       4.661   5.065  16.807  0.00  0.00    +0.000 A 
ATOM      7  C   UNL     1       3.480   4.571  17.344  0.00  0.00    +0.000 A 
ATOM      8  C   UNL     1       2.644   5.360  18.164  0.00  0.00    +0.000 A 
ATOM      9  C   UNL     1       2.938   6.730  18.323  0.00  0.00    +0.000 A 
ATOM     10  C   UNL     1       4.147   7.208  17.755  0.00  0.00    +0.000 A 
BRANCH   5  11
ATOM     11  O   UNL     1       6.208   6.767  16.487  0.00  0.00    +0.000 OA
BRANCH  11  13
ATOM     12  C   UNL     1       7.709   6.514  18.323  0.00  0.00    +0.000 C 
ATOM     13  C   UNL     1       7.081   7.495  17.349  0.00  0.00    +0.000 C 
ENDBRANCH  11  13
ENDBRANCH   5  11
BRANCH   8  14
ATOM     14  O   UNL     1       1.578   4.786  18.811  0.00  0.00    +0.000 OA
BRANCH  14  15
ATOM     15  C   UNL     1       1.765   3.424  19.214  0.00  0.00    +0.000 C 
ATOM     16  C   UNL     1       1.168   3.164  20.581  0.00  0.00    +0.000 C 
ENDBRANCH  14  15
ENDBRANCH   8  14
ENDBRANCH   1   9
BRANCH   2  17
ATOM     17  C   UNL     1       0.877   9.692  19.660  0.00  0.00    +0.000 C 
ATOM     18  C   UNL     1      -0.642   9.608  19.459  0.00  0.00    +0.000 C 
ATOM     19  C   UNL     1      -1.170  10.584  18.412  0.00  0.00    +0.000 C 
ATOM     20  C   UNL     1      -0.623  12.002  18.544  0.00  0.00    +0.000 C 
ATOM     21  N   UNL     1       0.861  12.030  18.721  0.00  0.00    +0.000 NA
ATOM     22  C   UNL     1       1.320  11.147  19.836  0.00  0.00    +0.000 C 
BRANCH  21  23
ATOM     23  S   UNL     1       1.491  13.643  18.832  0.00  0.00    +0.000 S 
ATOM     24  O   UNL     1       2.810  13.650  18.244  0.00  0.00    +0.000 OA
ATOM     25  O   UNL     1       0.465  14.557  18.373  0.00  0.00    +0.000 OA
BRANCH  23  26
ATOM     26  C   UNL     1       1.713  14.105  20.462  0.00  0.00    +0.000 A 
ATOM     27  C   UNL     1       0.693  14.318  21.424  0.00  0.00    +0.000 A 
ATOM     28  C   UNL     1      -0.780  14.197  21.319  0.00  0.00    +0.000 C 
ATOM     29  N   UNL     1       1.212  14.745  22.584  0.00  0.00    +0.000 NA
ATOM     30  O   UNL     1       2.567  14.857  22.376  0.00  0.00    +0.000 OA
ATOM     31  C   UNL     1       2.868  14.504  21.096  0.00  0.00    +0.000 A 
ATOM     32  C   UNL     1       4.291  14.667  20.735  0.00  0.00    +0.000 C 
ENDBRANCH  23  26
ENDBRANCH  21  23
ENDBRANCH   2  17
TORSDOF 8
ENDMDL
MODEL 8
REMARK VINA RESULT:      -7.1      1.161      3.350
REMARK  Name = 
REMARK  12 active torsions:
REMARK  status: ('A' for Active; 'I' for Inactive)
REMARK    1  A    between atoms: C_1  and  C_2
REMARK    2  A    between atoms: C_2  and  O_3
REMARK    3  A    between atoms: O_3  and  C_4
REMARK    4  A    between atoms: C_7  and  O_8
REMARK    5  A    between atoms: O_8  and  C_9
REMARK    6  A    between atoms: C_9  and  C_10
REMARK    7  A    between atoms: C_11  and  N_12
REMARK    8  A    between atoms: C_13  and  C_15
REMARK    9  A    between atoms: N_19  and  S_20
REMARK   10  A    between atoms: S_20  and  C_23
REMARK   11  A    between atoms: C_24  and  C_25
REMARK   12  A    between atoms: C_28  and  C_29
REMARK                            x       y       z     vdW  Elec       q    Type
REMARK                         _______ _______ _______ _____ _____    ______ ____
ROOT
ATOM      1  N   UNL     1       2.520   7.545  19.262  0.00  0.00    +0.000 N 
ATOM      2  C   UNL     1       1.813   8.701  18.936  0.00  0.00    +0.000 C 
ATOM      3  O   UNL     1       1.287   8.965  17.871  0.00  0.00    +0.000 OA
ATOM      4  H   UNL     1       2.902   7.528  20.201  0.00  0.00    +0.000 HD
ENDROOT
BRANCH   1   9
ATOM      5  C   UNL     1       1.929   4.122  17.980  0.00  0.00    +0.000 A 
ATOM      6  C   UNL     1       3.060   3.847  17.232  0.00  0.00    +0.000 A 
ATOM      7  C   UNL     1       4.035   4.824  17.085  0.00  0.00    +0.000 A 
ATOM      8  C   UNL     1       3.893   6.112  17.645  0.00  0.00    +0.000 A 
ATOM      9  C   UNL     1       2.802   6.370  18.501  0.00  0.00    +0.000 A 
ATOM     10  C   UNL     1       1.826   5.349  18.640  0.00  0.00    +0.000 A 
BRANCH   5  11
ATOM     11  O   UNL     1       1.020   3.100  18.054  0.00  0.00    +0.000 OA
BRANCH  11  13
ATOM     12  C   UNL     1       1.332   2.497  20.340  0.00  0.00    +0.000 C 
ATOM     13  C   UNL     1       1.389   2.014  18.902  0.00  0.00    +0.000 C 
ENDBRANCH  11  13
ENDBRANCH   5  11
BRANCH   8  14
ATOM     14  O   UNL     1       4.796   7.099  17.334  0.00  0.00    +0.000 OA
BRANCH  14  15
ATOM     15  C   UNL     1       6.015   6.649  16.732  0.00  0.00    +0.000 C 
ATOM     16  C   UNL     1       7.190   6.812  17.673  0.00  0.00    +0.000 C 
ENDBRANCH  14  15
ENDBRANCH   8  14
ENDBRANCH   1   9
BRANCH   2  17
ATOM     17  C   UNL     1       1.742   9.698  20.115  0.00  0.00    +0.000 C 
ATOM     18  C   UNL     1       1.263   9.047  21.419  0.00  0.00    +0.000 C 
ATOM     19  C   UNL     1      -0.249   8.853  21.481  0.00  0.00    +0.000 C 
ATOM     20  C   UNL     1      -1.056  10.072  21.045  0.00  0.00    +0.000 C 
ATOM     21  N   UNL     1      -0.561  10.659  19.763  0.00  0.00    +0.000 NA
ATOM     22  C   UNL     1       0.907  10.941  19.793  0.00  0.00    +0.000 C 
BRANCH  21  23
ATOM     23  S   UNL     1      -1.501  12.023  19.244  0.00  0.00    +0.000 S 
ATOM     24  O   UNL     1      -1.821  12.814  20.409  0.00  0.00    +0.000 OA
ATOM     25  O   UNL     1      -0.838  12.613  18.100  0.00  0.00    +0.000 OA
BRANCH  23  26
ATOM     26  C   UNL     1      -3.003  11.524  18.600  0.00  0.00    +0.000 A 
ATOM     27  C   UNL     1      -3.201  10.661  17.493  0.00  0.00    +0.000 A 
ATOM     28  C   UNL     1      -2.227   9.960  16.624  0.00  0.00    +0.000 C 
ATOM     29  N   UNL     1      -4.505  10.540  17.209  0.00  0.00    +0.000 NA
ATOM     30  O   UNL     1      -5.166  11.356  18.097  0.00  0.00    +0.000 OA
ATOM     31  C   UNL     1      -4.267  11.973  18.913  0.00  0.00    +0.000 A 
ATOM     32  C   UNL     1      -4.861  12.942  19.856  0.00  0.00    +0.000 C 
ENDBRANCH  23  26
ENDBRANCH  21  23
ENDBRANCH   2  17
TORSDOF 8
ENDMDL
MODEL 9
REMARK VINA RESULT:      -7.0      1.248      3.052
REMARK  Name = 
REMARK  12 active torsions:
REMARK  status: ('A' for Active; 'I' for Inactive)
REMARK    1  A    between atoms: C_1  and  C_2
REMARK    2  A    between atoms: C_2  and  O_3
REMARK    3  A    between atoms: O_3  and  C_4
REMARK    4  A    between atoms: C_7  and  O_8
REMARK    5  A    between atoms: O_8  and  C_9
REMARK    6  A    between atoms: C_9  and  C_10
REMARK    7  A    between atoms: C_11  and  N_12
REMARK    8  A    between atoms: C_13  and  C_15
REMARK    9  A    between atoms: N_19  and  S_20
REMARK   10  A    between atoms: S_20  and  C_23
REMARK   11  A    between atoms: C_24  and  C_25
REMARK   12  A    between atoms: C_28  and  C_29
REMARK                            x       y       z     vdW  Elec       q    Type
REMARK                         _______ _______ _______ _____ _____    ______ ____
ROOT
ATOM      1  N   UNL     1       2.685   7.506  19.105  0.00  0.00    +0.000 N 
ATOM      2  C   UNL     1       1.888   8.611  18.810  0.00  0.00    +0.000 C 
ATOM      3  O   UNL     1       1.297   8.834  17.770  0.00  0.00    +0.000 OA
ATOM      4  H   UNL     1       3.110   7.519  20.025  0.00  0.00    +0.000 HD
ENDROOT
BRANCH   1   9
ATOM      5  C   UNL     1       2.137   4.143  17.657  0.00  0.00    +0.000 A 
ATOM      6  C   UNL     1       3.327   3.862  17.009  0.00  0.00    +0.000 A 
ATOM      7  C   UNL     1       4.335   4.816  16.988  0.00  0.00    +0.000 A 
ATOM      8  C   UNL     1       4.171   6.090  17.577  0.00  0.00    +0.000 A 
ATOM      9  C   UNL     1       3.010   6.349  18.334  0.00  0.00    +0.000 A 
ATOM     10  C   UNL     1       2.001   5.351  18.346  0.00  0.00    +0.000 A 
BRANCH   5  11
ATOM     11  O   UNL     1       1.201   3.144  17.609  0.00  0.00    +0.000 OA
BRANCH  11  13
ATOM     12  C   UNL     1       1.797   1.981  19.604  0.00  0.00    +0.000 C 
ATOM     13  C   UNL     1       0.692   2.723  18.873  0.00  0.00    +0.000 C 
ENDBRANCH  11  13
ENDBRANCH   5  11
BRANCH   8  14
ATOM     14  O   UNL     1       5.122   7.061  17.386  0.00  0.00    +0.000 OA
BRANCH  14  15
ATOM     15  C   UNL     1       6.472   6.659  17.643  0.00  0.00    +0.000 C 
ATOM     16  C   UNL     1       7.448   7.781  17.358  0.00  0.00    +0.000 C 
ENDBRANCH  14  15
ENDBRANCH   8  14
ENDBRANCH   1   9
BRANCH   2  17
ATOM     17  C   UNL     1       1.804   9.607  19.988  0.00  0.00    +0.000 C 
ATOM     18  C   UNL     1       1.265   8.966  21.274  0.00  0.00    +0.000 C 
ATOM     19  C   UNL     1      -0.253   8.812  21.285  0.00  0.00    +0.000 C 
ATOM     20  C   UNL     1      -1.012  10.053  20.826  0.00  0.00    +0.000 C 
ATOM     21  N   UNL     1      -0.459  10.630  19.563  0.00  0.00    +0.000 NA
ATOM     22  C   UNL     1       1.014  10.873  19.643  0.00  0.00    +0.000 C 
BRANCH  21  23
ATOM     23  S   UNL     1      -1.345  12.020  19.018  0.00  0.00    +0.000 S 
ATOM     24  O   UNL     1      -1.632  12.845  20.167  0.00  0.00    +0.000 OA
ATOM     25  O   UNL     1      -0.659  12.561  17.863  0.00  0.00    +0.000 OA
BRANCH  23  26
ATOM     26  C   UNL     1      -2.865  11.569  18.383  0.00  0.00    +0.000 A 
ATOM     27  C   UNL     1      -4.135  11.899  18.921  0.00  0.00    +0.000 A 
ATOM     28  C   UNL     1      -4.505  12.700  20.111  0.00  0.00    +0.000 C 
ATOM     29  N   UNL     1      -5.117  11.321  18.216  0.00  0.00    +0.000 NA
ATOM     30  O   UNL     1      -4.498  10.573  17.243  0.00  0.00    +0.000 OA
ATOM     31  C   UNL     1      -3.146  10.693  17.358  0.00  0.00    +0.000 A 
ATOM     32  C   UNL     1      -2.375   9.863  16.412  0.00  0.00    +0.000 C 
ENDBRANCH  23  26
ENDBRANCH  21  23
ENDBRANCH   2  17
TORSDOF 8
ENDMDL
