MODEL 1
REMARK VINA RESULT:      -8.0      0.000      0.000
REMARK  Name = 
REMARK  4 active torsions:
REMARK  status: ('A' for Active; 'I' for Inactive)
REMARK    1  A    between atoms: C_1  and  C_2
REMARK    2  A    between atoms: C_2  and  C_3
REMARK    3  A    between atoms: C_11  and  N_12
REMARK    4  A    between atoms: N_15  and  C_16
REMARK                            x       y       z     vdW  Elec       q    Type
REMARK                         _______ _______ _______ _____ _____    ______ ____
ROOT
ATOM      1  C   UNL     1       6.684   4.659  14.195  0.00  0.00    +0.000 C 
ATOM      2  O   UNL     1       7.314   5.605  14.651  0.00  0.00    +0.000 OA
ATOM      3  N   UNL     1       5.507   4.146  14.695  0.00  0.00    +0.000 N 
ATOM      4  C   UNL     1       4.835   4.613  15.797  0.00  0.00    +0.000 A 
ATOM      5  N   UNL     1       3.920   3.883  16.379  0.00  0.00    +0.000 NA
ATOM      6  C   UNL     1       3.440   4.548  17.493  0.00  0.00    +0.000 A 
ATOM      7  C   UNL     1       2.509   4.038  18.406  0.00  0.00    +0.000 A 
ATOM      8  C   UNL     1       2.110   4.818  19.496  0.00  0.00    +0.000 A 
ATOM      9  C   UNL     1       2.610   6.104  19.707  0.00  0.00    +0.000 A 
ATOM     10  C   UNL     1       3.537   6.633  18.794  0.00  0.00    +0.000 A 
ATOM     11  C   UNL     1       3.946   5.832  17.702  0.00  0.00    +0.000 A 
ATOM     12  S   UNL     1       5.079   6.169  16.449  0.00  0.00    +0.000 S 
ATOM     13  H   UNL     1       5.180   3.242  14.379  0.00  0.00    +0.000 HD
ENDROOT
BRANCH   9  14
ATOM     14  N   UNL     1       2.202   6.911  20.802  0.00  0.00    +0.000 N 
ATOM     15  C   UNL     1       1.388   8.032  20.724  0.00  0.00    +0.000 C 
ATOM     16  O   UNL     1       0.815   8.417  19.713  0.00  0.00    +0.000 OA
ATOM     17  N   UNL     1       1.326   8.718  21.931  0.00  0.00    +0.000 N 
ATOM     18  H   UNL     1       2.400   6.564  21.731  0.00  0.00    +0.000 HD
ATOM     19  H   UNL     1       2.183   8.701  22.463  0.00  0.00    +0.000 HD
BRANCH  17  20
ATOM     20  C   UNL     1       0.544   9.896  22.038  0.00  0.00    +0.000 A 
ATOM     21  C   UNL     1      -0.514   9.925  22.951  0.00  0.00    +0.000 A 
ATOM     22  C   UNL     1      -1.253  11.099  23.133  0.00  0.00    +0.000 A 
ATOM     23  C   UNL     1      -0.971  12.230  22.367  0.00  0.00    +0.000 A 
ATOM     24  C   UNL     1       0.059  12.188  21.430  0.00  0.00    +0.000 A 
ATOM     25 CL   UNL     1       0.388  13.575  20.465  0.00  0.00    +0.000 Cl
ATOM     26  C   UNL     1       0.822  11.032  21.269  0.00  0.00    +0.000 A 
ENDBRANCH  17  20
ENDBRANCH   9  14
BRANCH   1  28
ATOM     27  C   UNL     1       5.994   3.312  12.191  0.00  0.00    +0.000 C 
ATOM     28  C   UNL     1       7.162   3.903  12.965  0.00  0.00    +0.000 C 
ENDBRANCH   1  28
TORSDOF 3
ENDMDL
MODEL 2
REMARK VINA RESULT:      -7.9      6.269      6.956
REMARK  Name = 
REMARK  4 active torsions:
REMARK  status: ('A' for Active; 'I' for Inactive)
REMARK    1  A    between atoms: C_1  and  C_2
REMARK    2  A    between atoms: C_2  and  C_3
REMARK    3  A    between atoms: C_11  and  N_12
REMARK    4  A    between atoms: N_15  and  C_16
REMARK                            x       y       z     vdW  Elec       q    Type
REMARK                         _______ _______ _______ _____ _____    ______ ____
ROOT
ATOM      1  C   UNL     1       6.015   3.275  12.417  0.00  0.00    +0.000 C 
ATOM      2  O   UNL     1       6.959   3.927  11.989  0.00  0.00    +0.000 OA
ATOM      3  N   UNL     1       5.513   3.310  13.699  0.00  0.00    +0.000 N 
ATOM      4  C   UNL     1       5.989   4.090  14.724  0.00  0.00    +0.000 A 
ATOM      5  N   UNL     1       5.670   3.828  15.964  0.00  0.00    +0.000 NA
ATOM      6  C   UNL     1       6.321   4.714  16.804  0.00  0.00    +0.000 A 
ATOM      7  C   UNL     1       6.282   4.687  18.203  0.00  0.00    +0.000 A 
ATOM      8  C   UNL     1       6.993   5.644  18.935  0.00  0.00    +0.000 A 
ATOM      9  C   UNL     1       7.747   6.640  18.311  0.00  0.00    +0.000 A 
ATOM     10  C   UNL     1       7.789   6.685  16.908  0.00  0.00    +0.000 A 
ATOM     11  C   UNL     1       7.078   5.705  16.176  0.00  0.00    +0.000 A 
ATOM     12  S   UNL     1       6.961   5.468  14.474  0.00  0.00    +0.000 S 
ATOM     13  H   UNL     1       4.876   2.588  14.008  0.00  0.00    +0.000 HD
ENDROOT
BRANCH   9  14
ATOM     14  N   UNL     1       8.462   7.624  19.042  0.00  0.00    +0.000 N 
ATOM     15  C   UNL     1       8.543   8.973  18.722  0.00  0.00    +0.000 C 
ATOM     16  O   UNL     1       7.915   9.521  17.827  0.00  0.00    +0.000 OA
ATOM     17  N   UNL     1       9.469   9.643  19.512  0.00  0.00    +0.000 N 
ATOM     18  H   UNL     1       8.826   7.356  19.947  0.00  0.00    +0.000 HD
ATOM     19  H   UNL     1      10.275   9.093  19.765  0.00  0.00    +0.000 HD
BRANCH  17  20
ATOM     20  C   UNL     1       9.690  11.031  19.323  0.00  0.00    +0.000 A 
ATOM     21  C   UNL     1       9.213  11.929  20.282  0.00  0.00    +0.000 A 
ATOM     22  C   UNL     1       9.485  13.296  20.159  0.00  0.00    +0.000 A 
ATOM     23  C   UNL     1      10.188  13.775  19.054  0.00  0.00    +0.000 A 
ATOM     24  C   UNL     1      10.629  12.883  18.079  0.00  0.00    +0.000 A 
ATOM     25 CL   UNL     1      11.470  13.478  16.699  0.00  0.00    +0.000 Cl
ATOM     26  C   UNL     1      10.391  11.516  18.212  0.00  0.00    +0.000 A 
ENDBRANCH  17  20
ENDBRANCH   9  14
BRANCH   1  28
ATOM     27  C   UNL     1       3.899   2.854  11.131  0.00  0.00    +0.000 C 
ATOM     28  C   UNL     1       5.256   2.298  11.531  0.00  0.00    +0.000 C 
ENDBRANCH   1  28
TORSDOF 3
ENDMDL
MODEL 3
REMARK VINA RESULT:      -7.8      8.248     10.701
REMARK  Name = 
REMARK  4 active torsions:
REMARK  status: ('A' for Active; 'I' for Inactive)
REMARK    1  A    between atoms: C_1  and  C_2
REMARK    2  A    between atoms: C_2  and  C_3
REMARK    3  A    between atoms: C_11  and  N_12
REMARK    4  A    between atoms: N_15  and  C_16
REMARK                            x       y       z     vdW  Elec       q    Type
REMARK                         _______ _______ _______ _____ _____    ______ ____
ROOT
ATOM      1  C   UNL     1      10.936  16.617  17.266  0.00  0.00    +0.000 C 
ATOM      2  O   UNL     1      10.737  16.124  16.163  0.00  0.00    +0.000 OA
ATOM      3  N   UNL     1      10.856  15.964  18.477  0.00  0.00    +0.000 N 
ATOM      4  C   UNL     1      10.539  14.640  18.653  0.00  0.00    +0.000 A 
ATOM      5  N   UNL     1      10.177  14.192  19.827  0.00  0.00    +0.000 NA
ATOM      6  C   UNL     1       9.854  12.851  19.728  0.00  0.00    +0.000 A 
ATOM      7  C   UNL     1       9.349  12.057  20.764  0.00  0.00    +0.000 A 
ATOM      8  C   UNL     1       9.060  10.709  20.528  0.00  0.00    +0.000 A 
ATOM      9  C   UNL     1       9.264  10.119  19.279  0.00  0.00    +0.000 A 
ATOM     10  C   UNL     1       9.779  10.900  18.232  0.00  0.00    +0.000 A 
ATOM     11  C   UNL     1      10.055  12.266  18.477  0.00  0.00    +0.000 A 
ATOM     12  S   UNL     1      10.648  13.480  17.409  0.00  0.00    +0.000 S 
ATOM     13  H   UNL     1      10.830  16.500  19.335  0.00  0.00    +0.000 HD
ENDROOT
BRANCH   9  14
ATOM     14  N   UNL     1       8.987   8.749  19.030  0.00  0.00    +0.000 N 
ATOM     15  C   UNL     1       8.035   8.262  18.145  0.00  0.00    +0.000 C 
ATOM     16  O   UNL     1       7.378   8.946  17.371  0.00  0.00    +0.000 OA
ATOM     17  N   UNL     1       7.865   6.888  18.263  0.00  0.00    +0.000 N 
ATOM     18  H   UNL     1       9.627   8.069  19.418  0.00  0.00    +0.000 HD
ATOM     19  H   UNL     1       7.968   6.536  19.202  0.00  0.00    +0.000 HD
BRANCH  17  20
ATOM     20  C   UNL     1       6.927   6.216  17.440  0.00  0.00    +0.000 A 
ATOM     21  C   UNL     1       7.313   5.823  16.155  0.00  0.00    +0.000 A 
ATOM     22  C   UNL     1       6.433   5.090  15.351  0.00  0.00    +0.000 A 
ATOM     23  C   UNL     1       5.149   4.793  15.807  0.00  0.00    +0.000 A 
ATOM     24  C   UNL     1       4.752   5.219  17.073  0.00  0.00    +0.000 A 
ATOM     25 CL   UNL     1       3.156   4.878  17.623  0.00  0.00    +0.000 Cl
ATOM     26  C   UNL     1       5.635   5.919  17.892  0.00  0.00    +0.000 A 
ENDBRANCH  17  20
ENDBRANCH   9  14
BRANCH   1  28
ATOM     27  C   UNL     1      11.820  18.371  18.830  0.00  0.00    +0.000 C 
ATOM     28  C   UNL     1      11.307  18.082  17.428  0.00  0.00    +0.000 C 
ENDBRANCH   1  28
TORSDOF 3
ENDMDL
MODEL 4
REMARK VINA RESULT:      -7.8      1.391      1.736
REMARK  Name = 
REMARK  4 active torsions:
REMARK  status: ('A' for Active; 'I' for Inactive)
REMARK    1  A    between atoms: C_1  and  C_2
REMARK    2  A    between atoms: C_2  and  C_3
REMARK    3  A    between atoms: C_11  and  N_12
REMARK    4  A    between atoms: N_15  and  C_16
REMARK                            x       y       z     vdW  Elec       q    Type
REMARK                         _______ _______ _______ _____ _____    ______ ____
ROOT
ATOM      1  C   UNL     1       6.253   4.859  15.114  0.00  0.00    +0.000 C 
ATOM      2  O   UNL     1       6.801   5.897  15.465  0.00  0.00    +0.000 OA
ATOM      3  N   UNL     1       5.112   4.314  15.662  0.00  0.00    +0.000 N 
ATOM      4  C   UNL     1       4.390   4.846  16.701  0.00  0.00    +0.000 A 
ATOM      5  N   UNL     1       3.526   4.115  17.356  0.00  0.00    +0.000 NA
ATOM      6  C   UNL     1       2.981   4.860  18.386  0.00  0.00    +0.000 A 
ATOM      7  C   UNL     1       2.080   4.384  19.345  0.00  0.00    +0.000 A 
ATOM      8  C   UNL     1       1.605   5.246  20.340  0.00  0.00    +0.000 A 
ATOM      9  C   UNL     1       2.001   6.582  20.407  0.00  0.00    +0.000 A 
ATOM     10  C   UNL     1       2.898   7.078  19.447  0.00  0.00    +0.000 A 
ATOM     11  C   UNL     1       3.382   6.195  18.453  0.00  0.00    +0.000 A 
ATOM     12  S   UNL     1       4.503   6.479  17.176  0.00  0.00    +0.000 S 
ATOM     13  H   UNL     1       4.861   3.358  15.447  0.00  0.00    +0.000 HD
ENDROOT
BRANCH   9  14
ATOM     14  N   UNL     1       1.517   7.471  21.403  0.00  0.00    +0.000 N 
ATOM     15  C   UNL     1       0.782   8.626  21.172  0.00  0.00    +0.000 C 
ATOM     16  O   UNL     1       0.353   8.979  20.082  0.00  0.00    +0.000 OA
ATOM     17  N   UNL     1       0.621   9.383  22.326  0.00  0.00    +0.000 N 
ATOM     18  H   UNL     1       1.586   7.169  22.366  0.00  0.00    +0.000 HD
ATOM     19  H   UNL     1       1.408   9.354  22.955  0.00  0.00    +0.000 HD
BRANCH  17  20
ATOM     20  C   UNL     1      -0.100  10.603  22.278  0.00  0.00    +0.000 A 
ATOM     21  C   UNL     1       0.349  11.622  21.433  0.00  0.00    +0.000 A 
ATOM     22  C   UNL     1      -0.386  12.805  21.307  0.00  0.00    +0.000 A 
ATOM     23  C   UNL     1      -1.542  12.996  22.064  0.00  0.00    +0.000 A 
ATOM     24  C   UNL     1      -1.968  11.995  22.935  0.00  0.00    +0.000 A 
ATOM     25 CL   UNL     1      -3.378  12.244  23.891  0.00  0.00    +0.000 Cl
ATOM     26  C   UNL     1      -1.259  10.800  23.039  0.00  0.00    +0.000 A 
ENDBRANCH  17  20
ENDBRANCH   9  14
BRANCH   1  28
ATOM     27  C   UNL     1       5.701   3.571  13.031  0.00  0.00    +0.000 C 
ATOM     28  C   UNL     1       6.805   4.011  13.978  0.00  0.00    +0.000 C 
ENDBRANCH   1  28
TORSDOF 3
ENDMDL
MODEL 5
REMARK VINA RESULT:      -7.7      6.237      7.967
REMARK  Name = 
REMARK  4 active torsions:
REMARK  status: ('A' for Active; 'I' for Inactive)
REMARK    1  A    between atoms: C_1  and  C_2
REMARK    2  A    between atoms: C_2  and  C_3
REMARK    3  A    between atoms: C_11  and  N_12
REMARK    4  A    between atoms: N_15  and  C_16
REMARK                            x       y       z     vdW  Elec       q    Type
REMARK                         _______ _______ _______ _____ _____    ______ ____
ROOT
ATOM      1  C   UNL     1       2.048   3.421  18.099  0.00  0.00    +0.000 C 
ATOM      2  O   UNL     1       1.712   4.143  17.168  0.00  0.00    +0.000 OA
ATOM      3  N   UNL     1       3.197   3.539  18.849  0.00  0.00    +0.000 N 
ATOM      4  C   UNL     1       4.168   4.495  18.681  0.00  0.00    +0.000 A 
ATOM      5  N   UNL     1       5.353   4.341  19.212  0.00  0.00    +0.000 NA
ATOM      6  C   UNL     1       6.161   5.403  18.847  0.00  0.00    +0.000 A 
ATOM      7  C   UNL     1       7.518   5.539  19.164  0.00  0.00    +0.000 A 
ATOM      8  C   UNL     1       8.223   6.666  18.728  0.00  0.00    +0.000 A 
ATOM      9  C   UNL     1       7.612   7.675  17.982  0.00  0.00    +0.000 A 
ATOM     10  C   UNL     1       6.249   7.558  17.664  0.00  0.00    +0.000 A 
ATOM     11  C   UNL     1       5.548   6.408  18.098  0.00  0.00    +0.000 A 
ATOM     12  S   UNL     1       3.906   5.955  17.842  0.00  0.00    +0.000 S 
ATOM     13  H   UNL     1       3.484   2.777  19.450  0.00  0.00    +0.000 HD
ENDROOT
BRANCH   9  14
ATOM     14  N   UNL     1       8.312   8.830  17.546  0.00  0.00    +0.000 N 
ATOM     15  C   UNL     1       8.941   9.756  18.367  0.00  0.00    +0.000 C 
ATOM     16  O   UNL     1       9.076   9.644  19.578  0.00  0.00    +0.000 OA
ATOM     17  N   UNL     1       9.371  10.874  17.662  0.00  0.00    +0.000 N 
ATOM     18  H   UNL     1       8.493   8.915  16.554  0.00  0.00    +0.000 HD
ATOM     19  H   UNL     1       8.768  11.141  16.900  0.00  0.00    +0.000 HD
BRANCH  17  20
ATOM     20  C   UNL     1      10.032  11.929  18.341  0.00  0.00    +0.000 A 
ATOM     21  C   UNL     1      11.289  11.690  18.903  0.00  0.00    +0.000 A 
ATOM     22  C   UNL     1      11.997  12.733  19.510  0.00  0.00    +0.000 A 
ATOM     23  C   UNL     1      11.429  14.004  19.602  0.00  0.00    +0.000 A 
ATOM     24  C   UNL     1      10.160  14.231  19.076  0.00  0.00    +0.000 A 
ATOM     25 CL   UNL     1       9.448  15.793  19.218  0.00  0.00    +0.000 Cl
ATOM     26  C   UNL     1       9.464  13.205  18.439  0.00  0.00    +0.000 A 
ENDBRANCH  17  20
ENDBRANCH   9  14
BRANCH   1  28
ATOM     27  C   UNL     1       1.183   2.116  20.062  0.00  0.00    +0.000 C 
ATOM     28  C   UNL     1       1.188   2.250  18.548  0.00  0.00    +0.000 C 
ENDBRANCH   1  28
TORSDOF 3
ENDMDL
MODEL 6
REMARK VINA RESULT:      -7.7      6.084      6.827
REMARK  Name = 
REMARK  4 active torsions:
REMARK  status: ('A' for Active; 'I' for Inactive)
REMARK    1  A    between atoms: C_1  and  C_2
REMARK    2  A    between atoms: C_2  and  C_3
REMARK    3  A    between atoms: C_11  and  N_12
REMARK    4  A    between atoms: N_15  and  C_16
REMARK                            x       y       z     vdW  Elec       q    Type
REMARK                         _______ _______ _______ _____ _____    ______ ____
ROOT
ATOM      1  C   UNL     1       6.181   3.230  12.347  0.00  0.00    +0.000 C 
ATOM      2  O   UNL     1       7.067   3.958  11.918  0.00  0.00    +0.000 OA
ATOM      3  N   UNL     1       5.698   3.206  13.637  0.00  0.00    +0.000 N 
ATOM      4  C   UNL     1       6.132   4.001  14.669  0.00  0.00    +0.000 A 
ATOM      5  N   UNL     1       5.852   3.695  15.909  0.00  0.00    +0.000 NA
ATOM      6  C   UNL     1       6.450   4.612  16.755  0.00  0.00    +0.000 A 
ATOM      7  C   UNL     1       6.435   4.558  18.154  0.00  0.00    +0.000 A 
ATOM      8  C   UNL     1       7.085   5.552  18.893  0.00  0.00    +0.000 A 
ATOM      9  C   UNL     1       7.753   6.612  18.277  0.00  0.00    +0.000 A 
ATOM     10  C   UNL     1       7.769   6.685  16.874  0.00  0.00    +0.000 A 
ATOM     11  C   UNL     1       7.121   5.668  16.135  0.00  0.00    +0.000 A 
ATOM     12  S   UNL     1       6.994   5.452  14.431  0.00  0.00    +0.000 S 
ATOM     13  H   UNL     1       5.121   2.433  13.942  0.00  0.00    +0.000 HD
ENDROOT
BRANCH   9  14
ATOM     14  N   UNL     1       8.405   7.634  19.016  0.00  0.00    +0.000 N 
ATOM     15  C   UNL     1       8.527   8.962  18.629  0.00  0.00    +0.000 C 
ATOM     16  O   UNL     1       7.991   9.461  17.649  0.00  0.00    +0.000 OA
ATOM     17  N   UNL     1       9.380   9.673  19.464  0.00  0.00    +0.000 N 
ATOM     18  H   UNL     1       8.680   7.416  19.964  0.00  0.00    +0.000 HD
ATOM     19  H   UNL     1      10.155   9.135  19.822  0.00  0.00    +0.000 HD
BRANCH  17  20
ATOM     20  C   UNL     1       9.631  11.047  19.218  0.00  0.00    +0.000 A 
ATOM     21  C   UNL     1      10.475  11.402  18.162  0.00  0.00    +0.000 A 
ATOM     22  C   UNL     1      10.677  12.750  17.848  0.00  0.00    +0.000 A 
ATOM     23  C   UNL     1      10.079  13.747  18.619  0.00  0.00    +0.000 A 
ATOM     24  C   UNL     1       9.268  13.392  19.695  0.00  0.00    +0.000 A 
ATOM     25 CL   UNL     1       8.553  14.623  20.663  0.00  0.00    +0.000 Cl
ATOM     26  C   UNL     1       9.035  12.050  19.991  0.00  0.00    +0.000 A 
ENDBRANCH  17  20
ENDBRANCH   9  14
BRANCH   1  28
ATOM     27  C   UNL     1       6.408   1.065  11.096  0.00  0.00    +0.000 C 
ATOM     28  C   UNL     1       5.482   2.216  11.455  0.00  0.00    +0.000 C 
ENDBRANCH   1  28
TORSDOF 3
ENDMDL
MODEL 7
REMARK VINA RESULT:      -7.3      1.154      1.461
REMARK  Name = 
REMARK  4 active torsions:
REMARK  status: ('A' for Active; 'I' for Inactive)
REMARK    1  A    between atoms: C_1  and  C_2
REMARK    2  A    between atoms: C_2  and  C_3
REMARK    3  A    between atoms: C_11  and  N_12
REMARK    4  A    between atoms: N_15  and  C_16
REMARK                            x       y       z     vdW  Elec       q    Type
REMARK                         _______ _______ _______ _____ _____    ______ ____
ROOT
ATOM      1  C   UNL     1       5.822   4.937  15.249  0.00  0.00    +0.000 C 
ATOM      2  O   UNL     1       6.323   6.033  15.470  0.00  0.00    +0.000 OA
ATOM      3  N   UNL     1       4.756   4.377  15.918  0.00  0.00    +0.000 N 
ATOM      4  C   UNL     1       4.068   4.958  16.955  0.00  0.00    +0.000 A 
ATOM      5  N   UNL     1       3.297   4.239  17.728  0.00  0.00    +0.000 NA
ATOM      6  C   UNL     1       2.770   5.041  18.725  0.00  0.00    +0.000 A 
ATOM      7  C   UNL     1       1.964   4.600  19.782  0.00  0.00    +0.000 A 
ATOM      8  C   UNL     1       1.499   5.519  20.728  0.00  0.00    +0.000 A 
ATOM      9  C   UNL     1       1.811   6.878  20.653  0.00  0.00    +0.000 A 
ATOM     10  C   UNL     1       2.611   7.336  19.594  0.00  0.00    +0.000 A 
ATOM     11  C   UNL     1       3.088   6.398  18.650  0.00  0.00    +0.000 A 
ATOM     12  S   UNL     1       4.105   6.631  17.279  0.00  0.00    +0.000 S 
ATOM     13  H   UNL     1       4.554   3.393  15.805  0.00  0.00    +0.000 HD
ENDROOT
BRANCH   9  14
ATOM     14  N   UNL     1       1.334   7.822  21.600  0.00  0.00    +0.000 N 
ATOM     15  C   UNL     1       0.543   8.927  21.316  0.00  0.00    +0.000 C 
ATOM     16  O   UNL     1       0.052   9.178  20.223  0.00  0.00    +0.000 OA
ATOM     17  N   UNL     1       0.401   9.765  22.414  0.00  0.00    +0.000 N 
ATOM     18  H   UNL     1       1.458   7.600  22.579  0.00  0.00    +0.000 HD
ATOM     19  H   UNL     1       1.215   9.815  23.007  0.00  0.00    +0.000 HD
BRANCH  17  20
ATOM     20  C   UNL     1      -0.371  10.950  22.307  0.00  0.00    +0.000 A 
ATOM     21  C   UNL     1      -1.496  11.100  23.123  0.00  0.00    +0.000 A 
ATOM     22  C   UNL     1      -2.231  12.291  23.094  0.00  0.00    +0.000 A 
ATOM     23  C   UNL     1      -1.875  13.312  22.214  0.00  0.00    +0.000 A 
ATOM     24  C   UNL     1      -0.776  13.146  21.373  0.00  0.00    +0.000 A 
ATOM     25 CL   UNL     1      -0.355  14.395  20.266  0.00  0.00    +0.000 Cl
ATOM     26  C   UNL     1      -0.020  11.976  21.423  0.00  0.00    +0.000 A 
ENDBRANCH  17  20
ENDBRANCH   9  14
BRANCH   1  28
ATOM     27  C   UNL     1       7.324   4.761  13.244  0.00  0.00    +0.000 C 
ATOM     28  C   UNL     1       6.355   4.025  14.155  0.00  0.00    +0.000 C 
ENDBRANCH   1  28
TORSDOF 3
ENDMDL
MODEL 8
REMARK VINA RESULT:      -7.2      4.207     10.615
REMARK  Name = 
REMARK  4 active torsions:
REMARK  status: ('A' for Active; 'I' for Inactive)
REMARK    1  A    between atoms: C_1  and  C_2
REMARK    2  A    between atoms: C_2  and  C_3
REMARK    3  A    between atoms: C_11  and  N_12
REMARK    4  A    between atoms: N_15  and  C_16
REMARK                            x       y       z     vdW  Elec       q    Type
REMARK                         _______ _______ _______ _____ _____    ______ ____
ROOT
ATOM      1  C   UNL     1      -3.506  13.803  23.073  0.00  0.00    +0.000 C 
ATOM      2  O   UNL     1      -3.765  13.999  21.892  0.00  0.00    +0.000 OA
ATOM      3  N   UNL     1      -2.554  12.938  23.567  0.00  0.00    +0.000 N 
ATOM      4  C   UNL     1      -1.727  12.143  22.813  0.00  0.00    +0.000 A 
ATOM      5  N   UNL     1      -1.093  11.136  23.355  0.00  0.00    +0.000 NA
ATOM      6  C   UNL     1      -0.381  10.462  22.380  0.00  0.00    +0.000 A 
ATOM      7  C   UNL     1       0.354   9.286  22.576  0.00  0.00    +0.000 A 
ATOM      8  C   UNL     1       1.028   8.702  21.499  0.00  0.00    +0.000 A 
ATOM      9  C   UNL     1       0.998   9.260  20.220  0.00  0.00    +0.000 A 
ATOM     10  C   UNL     1       0.273  10.444  20.009  0.00  0.00    +0.000 A 
ATOM     11  C   UNL     1      -0.418  11.020  21.101  0.00  0.00    +0.000 A 
ATOM     12  S   UNL     1      -1.411  12.425  21.162  0.00  0.00    +0.000 S 
ATOM     13  H   UNL     1      -2.561  12.692  24.548  0.00  0.00    +0.000 HD
ENDROOT
BRANCH   9  14
ATOM     14  N   UNL     1       1.689   8.684  19.121  0.00  0.00    +0.000 N 
ATOM     15  C   UNL     1       2.280   7.429  19.103  0.00  0.00    +0.000 C 
ATOM     16  O   UNL     1       2.189   6.596  19.995  0.00  0.00    +0.000 OA
ATOM     17  N   UNL     1       3.044   7.226  17.960  0.00  0.00    +0.000 N 
ATOM     18  H   UNL     1       1.627   9.164  18.233  0.00  0.00    +0.000 HD
ATOM     19  H   UNL     1       3.510   8.054  17.620  0.00  0.00    +0.000 HD
BRANCH  17  20
ATOM     20  C   UNL     1       3.728   5.999  17.773  0.00  0.00    +0.000 A 
ATOM     21  C   UNL     1       2.986   4.844  17.509  0.00  0.00    +0.000 A 
ATOM     22  C   UNL     1       3.639   3.635  17.243  0.00  0.00    +0.000 A 
ATOM     23  C   UNL     1       5.031   3.566  17.290  0.00  0.00    +0.000 A 
ATOM     24  C   UNL     1       5.769   4.709  17.591  0.00  0.00    +0.000 A 
ATOM     25 CL   UNL     1       7.485   4.615  17.678  0.00  0.00    +0.000 Cl
ATOM     26  C   UNL     1       5.126   5.924  17.823  0.00  0.00    +0.000 A 
ENDBRANCH  17  20
ENDBRANCH   9  14
BRANCH   1  28
ATOM     27  C   UNL     1      -3.421  15.671  24.749  0.00  0.00    +0.000 C 
ATOM     28  C   UNL     1      -4.250  14.530  24.183  0.00  0.00    +0.000 C 
ENDBRANCH   1  28
TORSDOF 3
ENDMDL
MODEL 9
REMARK VINA RESULT:      -7.2      4.125      9.697
REMARK  Name = 
REMARK  4 active torsions:
REMARK  status: ('A' for Active; 'I' for Inactive)
REMARK    1  A    between atoms: C_1  and  C_2
REMARK    2  A    between atoms: C_2  and  C_3
REMARK    3  A    between atoms: C_11  and  N_12
REMARK    4  A    between atoms: N_15  and  C_16
REMARK                            x       y       z     vdW  Elec       q    Type
REMARK                         _______ _______ _______ _____ _____    ______ ____
ROOT
ATOM      1  C   UNL     1      -0.498  15.644  19.595  0.00  0.00    +0.000 C 
ATOM      2  O   UNL     1       0.118  15.246  18.614  0.00  0.00    +0.000 OA
ATOM      3  N   UNL     1      -0.767  14.922  20.737  0.00  0.00    +0.000 N 
ATOM      4  C   UNL     1      -0.387  13.624  20.972  0.00  0.00    +0.000 A 
ATOM      5  N   UNL     1      -0.950  12.926  21.923  0.00  0.00    +0.000 NA
ATOM      6  C   UNL     1      -0.439  11.641  21.915  0.00  0.00    +0.000 A 
ATOM      7  C   UNL     1      -0.862  10.592  22.740  0.00  0.00    +0.000 A 
ATOM      8  C   UNL     1      -0.261   9.334  22.626  0.00  0.00    +0.000 A 
ATOM      9  C   UNL     1       0.763   9.086  21.710  0.00  0.00    +0.000 A 
ATOM     10  C   UNL     1       1.205  10.131  20.882  0.00  0.00    +0.000 A 
ATOM     11  C   UNL     1       0.581  11.395  20.995  0.00  0.00    +0.000 A 
ATOM     12  S   UNL     1       0.863  12.847  20.111  0.00  0.00    +0.000 S 
ATOM     13  H   UNL     1      -1.457  15.263  21.394  0.00  0.00    +0.000 HD
ENDROOT
BRANCH   9  14
ATOM     14  N   UNL     1       1.391   7.818  21.594  0.00  0.00    +0.000 N 
ATOM     15  C   UNL     1       1.941   7.288  20.435  0.00  0.00    +0.000 C 
ATOM     16  O   UNL     1       2.062   7.889  19.376  0.00  0.00    +0.000 OA
ATOM     17  N   UNL     1       2.306   5.957  20.590  0.00  0.00    +0.000 N 
ATOM     18  H   UNL     1       1.582   7.316  22.451  0.00  0.00    +0.000 HD
ATOM     19  H   UNL     1       1.699   5.428  21.198  0.00  0.00    +0.000 HD
BRANCH  17  20
ATOM     20  C   UNL     1       2.881   5.248  19.506  0.00  0.00    +0.000 A 
ATOM     21  C   UNL     1       2.044   4.538  18.641  0.00  0.00    +0.000 A 
ATOM     22  C   UNL     1       2.576   3.894  17.519  0.00  0.00    +0.000 A 
ATOM     23  C   UNL     1       3.951   3.915  17.285  0.00  0.00    +0.000 A 
ATOM     24  C   UNL     1       4.790   4.591  18.169  0.00  0.00    +0.000 A 
ATOM     25 CL   UNL     1       6.490   4.591  17.897  0.00  0.00    +0.000 Cl
ATOM     26  C   UNL     1       4.262   5.263  19.270  0.00  0.00    +0.000 A 
ENDBRANCH  17  20
ENDBRANCH   9  14
BRANCH   1  28
ATOM     27  C   UNL     1      -1.132  17.686  18.279  0.00  0.00    +0.000 C 
ATOM     28  C   UNL     1      -1.068  17.052  19.659  0.00  0.00    +0.000 C 
ENDBRANCH   1  28
TORSDOF 3
ENDMDL
