MODEL 1
REMARK VINA RESULT:      -8.2      0.000      0.000
REMARK  Name = 
REMARK  4 active torsions:
REMARK  status: ('A' for Active; 'I' for Inactive)
REMARK    1  A    between atoms: C_2  and  C_3
REMARK    2  A    between atoms: C_3  and  S_4
REMARK    3  A    between atoms: S_4  and  C_7
REMARK    4  A    between atoms: N_16  and  C_17
REMARK                            x       y       z     vdW  Elec       q    Type
REMARK                         _______ _______ _______ _____ _____    ______ ____
ROOT
ATOM      1  C   UNL     1       3.141   3.718  20.710  0.00  0.00    +0.000 C 
ENDROOT
BRANCH   1   3
ATOM      2  O   UNL     1       1.297   4.561  19.513  0.00  0.00    +0.000 OA
ATOM      3  C   UNL     1       2.385   4.815  20.027  0.00  0.00    +0.000 C 
ATOM      4  N   UNL     1       2.937   6.084  20.123  0.00  0.00    +0.000 N 
ATOM      5  H   UNL     1       3.927   6.145  20.358  0.00  0.00    +0.000 HD
BRANCH   4   6
ATOM      6  C   UNL     1       2.327   7.284  19.689  0.00  0.00    +0.000 A 
ATOM      7  C   UNL     1       1.560   8.109  20.523  0.00  0.00    +0.000 A 
ATOM      8  C   UNL     1       0.933   9.253  20.016  0.00  0.00    +0.000 A 
ATOM      9  C   UNL     1       1.083   9.579  18.676  0.00  0.00    +0.000 A 
ATOM     10  F   UNL     1       0.459  10.655  18.181  0.00  0.00    +0.000 F 
ATOM     11  C   UNL     1       1.875   8.800  17.842  0.00  0.00    +0.000 A 
ATOM     12  C   UNL     1       2.508   7.661  18.351  0.00  0.00    +0.000 A 
ENDBRANCH   4   6
ENDBRANCH   1   3
BRANCH   1  13
ATOM     13  S   UNL     1       3.975   2.678  19.570  0.00  0.00    +0.000 S 
ATOM     14  O   UNL     1       5.082   2.028  20.242  0.00  0.00    +0.000 OA
ATOM     15  O   UNL     1       2.951   1.887  18.903  0.00  0.00    +0.000 OA
BRANCH  13  16
ATOM     16  C   UNL     1       4.706   3.684  18.317  0.00  0.00    +0.000 A 
ATOM     17  C   UNL     1       4.177   3.617  17.005  0.00  0.00    +0.000 A 
ATOM     18  C   UNL     1       4.687   4.373  15.921  0.00  0.00    +0.000 A 
ATOM     19  C   UNL     1       5.773   5.255  16.047  0.00  0.00    +0.000 A 
ATOM     20  C   UNL     1       6.350   5.353  17.336  0.00  0.00    +0.000 A 
ATOM     21  N   UNL     1       7.393   6.129  17.660  0.00  0.00    +0.000 NA
ATOM     22  S   UNL     1       7.687   5.880  19.270  0.00  0.00    +0.000 S 
ATOM     23  N   UNL     1       6.483   4.798  19.635  0.00  0.00    +0.000 NA
ATOM     24  C   UNL     1       5.805   4.553  18.502  0.00  0.00    +0.000 A 
ENDBRANCH  13  16
ENDBRANCH   1  13
TORSDOF 4
ENDMDL
MODEL 2
REMARK VINA RESULT:      -8.1      1.776      2.246
REMARK  Name = 
REMARK  4 active torsions:
REMARK  status: ('A' for Active; 'I' for Inactive)
REMARK    1  A    between atoms: C_2  and  C_3
REMARK    2  A    between atoms: C_3  and  S_4
REMARK    3  A    between atoms: S_4  and  C_7
REMARK    4  A    between atoms: N_16  and  C_17
REMARK                            x       y       z     vdW  Elec       q    Type
REMARK                         _______ _______ _______ _____ _____    ______ ____
ROOT
ATOM      1  C   UNL     1       3.073   4.044  20.183  0.00  0.00    +0.000 C 
ENDROOT
BRANCH   1   3
ATOM      2  O   UNL     1       0.932   4.957  20.538  0.00  0.00    +0.000 OA
ATOM      3  C   UNL     1       2.093   5.175  20.197  0.00  0.00    +0.000 C 
ATOM      4  N   UNL     1       2.612   6.431  19.919  0.00  0.00    +0.000 N 
ATOM      5  H   UNL     1       3.508   6.468  19.433  0.00  0.00    +0.000 HD
BRANCH   4   6
ATOM      6  C   UNL     1       1.911   7.655  20.022  0.00  0.00    +0.000 A 
ATOM      7  C   UNL     1       1.314   8.110  21.206  0.00  0.00    +0.000 A 
ATOM      8  C   UNL     1       0.583   9.303  21.225  0.00  0.00    +0.000 A 
ATOM      9  C   UNL     1       0.457  10.048  20.062  0.00  0.00    +0.000 A 
ATOM     10  F   UNL     1      -0.268  11.173  20.071  0.00  0.00    +0.000 F 
ATOM     11  C   UNL     1       1.077   9.639  18.889  0.00  0.00    +0.000 A 
ATOM     12  C   UNL     1       1.815   8.450  18.871  0.00  0.00    +0.000 A 
ENDBRANCH   4   6
ENDBRANCH   1   3
BRANCH   1  13
ATOM     13  S   UNL     1       3.568   3.614  18.557  0.00  0.00    +0.000 S 
ATOM     14  O   UNL     1       3.862   2.196  18.508  0.00  0.00    +0.000 OA
ATOM     15  O   UNL     1       2.582   4.193  17.656  0.00  0.00    +0.000 OA
BRANCH  13  16
ATOM     16  C   UNL     1       5.093   4.428  18.197  0.00  0.00    +0.000 A 
ATOM     17  C   UNL     1       5.801   5.034  19.264  0.00  0.00    +0.000 A 
ATOM     18  C   UNL     1       7.029   5.718  19.092  0.00  0.00    +0.000 A 
ATOM     19  C   UNL     1       7.655   5.866  17.844  0.00  0.00    +0.000 A 
ATOM     20  C   UNL     1       6.985   5.290  16.739  0.00  0.00    +0.000 A 
ATOM     21  N   UNL     1       7.411   5.328  15.469  0.00  0.00    +0.000 NA
ATOM     22  S   UNL     1       6.278   4.529  14.564  0.00  0.00    +0.000 S 
ATOM     23  N   UNL     1       5.211   4.072  15.749  0.00  0.00    +0.000 NA
ATOM     24  C   UNL     1       5.674   4.550  16.915  0.00  0.00    +0.000 A 
ENDBRANCH  13  16
ENDBRANCH   1  13
TORSDOF 4
ENDMDL
MODEL 3
REMARK VINA RESULT:      -7.8      1.813      2.469
REMARK  Name = 
REMARK  4 active torsions:
REMARK  status: ('A' for Active; 'I' for Inactive)
REMARK    1  A    between atoms: C_2  and  C_3
REMARK    2  A    between atoms: C_3  and  S_4
REMARK    3  A    between atoms: S_4  and  C_7
REMARK    4  A    between atoms: N_16  and  C_17
REMARK                            x       y       z     vdW  Elec       q    Type
REMARK                         _______ _______ _______ _____ _____    ______ ____
ROOT
ATOM      1  C   UNL     1       3.007   3.842  20.007  0.00  0.00    +0.000 C 
ENDROOT
BRANCH   1   3
ATOM      2  O   UNL     1       0.930   4.831  20.509  0.00  0.00    +0.000 OA
ATOM      3  C   UNL     1       2.073   5.008  20.090  0.00  0.00    +0.000 C 
ATOM      4  N   UNL     1       2.617   6.246  19.780  0.00  0.00    +0.000 N 
ATOM      5  H   UNL     1       3.478   6.252  19.234  0.00  0.00    +0.000 HD
BRANCH   4   6
ATOM      6  C   UNL     1       1.970   7.494  19.933  0.00  0.00    +0.000 A 
ATOM      7  C   UNL     1       1.807   8.416  18.890  0.00  0.00    +0.000 A 
ATOM      8  C   UNL     1       1.210   9.660  19.123  0.00  0.00    +0.000 A 
ATOM      9  C   UNL     1       0.766   9.979  20.397  0.00  0.00    +0.000 A 
ATOM     10  F   UNL     1       0.224  11.180  20.630  0.00  0.00    +0.000 F 
ATOM     11  C   UNL     1       0.878   9.063  21.436  0.00  0.00    +0.000 A 
ATOM     12  C   UNL     1       1.467   7.816  21.201  0.00  0.00    +0.000 A 
ENDBRANCH   4   6
ENDBRANCH   1   3
BRANCH   1  13
ATOM     13  S   UNL     1       3.550   3.542  18.367  0.00  0.00    +0.000 S 
ATOM     14  O   UNL     1       3.856   2.134  18.217  0.00  0.00    +0.000 OA
ATOM     15  O   UNL     1       2.586   4.184  17.486  0.00  0.00    +0.000 OA
BRANCH  13  16
ATOM     16  C   UNL     1       5.079   4.389  18.116  0.00  0.00    +0.000 A 
ATOM     17  C   UNL     1       5.713   4.983  19.235  0.00  0.00    +0.000 A 
ATOM     18  C   UNL     1       6.937   5.691  19.151  0.00  0.00    +0.000 A 
ATOM     19  C   UNL     1       7.631   5.878  17.944  0.00  0.00    +0.000 A 
ATOM     20  C   UNL     1       7.037   5.316  16.790  0.00  0.00    +0.000 A 
ATOM     21  N   UNL     1       7.536   5.390  15.549  0.00  0.00    +0.000 NA
ATOM     22  S   UNL     1       6.472   4.592  14.562  0.00  0.00    +0.000 S 
ATOM     23  N   UNL     1       5.346   4.091  15.671  0.00  0.00    +0.000 NA
ATOM     24  C   UNL     1       5.732   4.550  16.873  0.00  0.00    +0.000 A 
ENDBRANCH  13  16
ENDBRANCH   1  13
TORSDOF 4
ENDMDL
MODEL 4
REMARK VINA RESULT:      -7.8      1.621      2.262
REMARK  Name = 
REMARK  4 active torsions:
REMARK  status: ('A' for Active; 'I' for Inactive)
REMARK    1  A    between atoms: C_2  and  C_3
REMARK    2  A    between atoms: C_3  and  S_4
REMARK    3  A    between atoms: S_4  and  C_7
REMARK    4  A    between atoms: N_16  and  C_17
REMARK                            x       y       z     vdW  Elec       q    Type
REMARK                         _______ _______ _______ _____ _____    ______ ____
ROOT
ATOM      1  C   UNL     1       3.203   4.026  20.091  0.00  0.00    +0.000 C 
ENDROOT
BRANCH   1   3
ATOM      2  O   UNL     1       1.714   4.914  18.499  0.00  0.00    +0.000 OA
ATOM      3  C   UNL     1       2.540   5.161  19.376  0.00  0.00    +0.000 C 
ATOM      4  N   UNL     1       2.838   6.432  19.846  0.00  0.00    +0.000 N 
ATOM      5  H   UNL     1       3.687   6.536  20.401  0.00  0.00    +0.000 HD
BRANCH   4   6
ATOM      6  C   UNL     1       2.219   7.633  19.427  0.00  0.00    +0.000 A 
ATOM      7  C   UNL     1       2.382   8.184  18.149  0.00  0.00    +0.000 A 
ATOM      8  C   UNL     1       1.788   9.408  17.818  0.00  0.00    +0.000 A 
ATOM      9  C   UNL     1       1.023  10.076  18.762  0.00  0.00    +0.000 A 
ATOM     10  F   UNL     1       0.481  11.261  18.458  0.00  0.00    +0.000 F 
ATOM     11  C   UNL     1       0.813   9.526  20.020  0.00  0.00    +0.000 A 
ATOM     12  C   UNL     1       1.399   8.299  20.348  0.00  0.00    +0.000 A 
ENDBRANCH   4   6
ENDBRANCH   1   3
BRANCH   1  13
ATOM     13  S   UNL     1       4.316   3.151  19.057  0.00  0.00    +0.000 S 
ATOM     14  O   UNL     1       5.056   2.194  19.855  0.00  0.00    +0.000 OA
ATOM     15  O   UNL     1       3.549   2.709  17.901  0.00  0.00    +0.000 OA
BRANCH  13  16
ATOM     16  C   UNL     1       5.521   4.283  18.438  0.00  0.00    +0.000 A 
ATOM     17  C   UNL     1       6.161   5.154  19.353  0.00  0.00    +0.000 A 
ATOM     18  C   UNL     1       7.137   6.106  18.970  0.00  0.00    +0.000 A 
ATOM     19  C   UNL     1       7.554   6.281  17.640  0.00  0.00    +0.000 A 
ATOM     20  C   UNL     1       6.938   5.445  16.679  0.00  0.00    +0.000 A 
ATOM     21  N   UNL     1       7.191   5.460  15.363  0.00  0.00    +0.000 NA
ATOM     22  S   UNL     1       6.214   4.313  14.678  0.00  0.00    +0.000 S 
ATOM     23  N   UNL     1       5.447   3.723  16.026  0.00  0.00    +0.000 NA
ATOM     24  C   UNL     1       5.898   4.418  17.082  0.00  0.00    +0.000 A 
ENDBRANCH  13  16
ENDBRANCH   1  13
TORSDOF 4
ENDMDL
MODEL 5
REMARK VINA RESULT:      -7.5      1.638      2.010
REMARK  Name = 
REMARK  4 active torsions:
REMARK  status: ('A' for Active; 'I' for Inactive)
REMARK    1  A    between atoms: C_2  and  C_3
REMARK    2  A    between atoms: C_3  and  S_4
REMARK    3  A    between atoms: S_4  and  C_7
REMARK    4  A    between atoms: N_16  and  C_17
REMARK                            x       y       z     vdW  Elec       q    Type
REMARK                         _______ _______ _______ _____ _____    ______ ____
ROOT
ATOM      1  C   UNL     1       3.020   3.755  20.038  0.00  0.00    +0.000 C 
ENDROOT
BRANCH   1   3
ATOM      2  O   UNL     1       1.952   4.871  18.261  0.00  0.00    +0.000 OA
ATOM      3  C   UNL     1       2.547   4.987  19.331  0.00  0.00    +0.000 C 
ATOM      4  N   UNL     1       2.729   6.184  20.008  0.00  0.00    +0.000 N 
ATOM      5  H   UNL     1       3.423   6.195  20.755  0.00  0.00    +0.000 HD
BRANCH   4   6
ATOM      6  C   UNL     1       2.230   7.444  19.606  0.00  0.00    +0.000 A 
ATOM      7  C   UNL     1       1.435   8.261  20.423  0.00  0.00    +0.000 A 
ATOM      8  C   UNL     1       0.923   9.471  19.941  0.00  0.00    +0.000 A 
ATOM      9  C   UNL     1       1.214   9.871  18.646  0.00  0.00    +0.000 A 
ATOM     10  F   UNL     1       0.699  11.012  18.172  0.00  0.00    +0.000 F 
ATOM     11  C   UNL     1       2.035   9.099  17.834  0.00  0.00    +0.000 A 
ATOM     12  C   UNL     1       2.554   7.893  18.318  0.00  0.00    +0.000 A 
ENDBRANCH   4   6
ENDBRANCH   1   3
BRANCH   1  13
ATOM     13  S   UNL     1       4.322   2.956  19.178  0.00  0.00    +0.000 S 
ATOM     14  O   UNL     1       5.134   2.218  20.124  0.00  0.00    +0.000 OA
ATOM     15  O   UNL     1       3.715   2.278  18.042  0.00  0.00    +0.000 OA
BRANCH  13  16
ATOM     16  C   UNL     1       5.389   4.187  18.497  0.00  0.00    +0.000 A 
ATOM     17  C   UNL     1       6.148   4.988  19.385  0.00  0.00    +0.000 A 
ATOM     18  C   UNL     1       7.030   6.008  18.952  0.00  0.00    +0.000 A 
ATOM     19  C   UNL     1       7.226   6.326  17.598  0.00  0.00    +0.000 A 
ATOM     20  C   UNL     1       6.483   5.566  16.665  0.00  0.00    +0.000 A 
ATOM     21  N   UNL     1       6.522   5.719  15.335  0.00  0.00    +0.000 NA
ATOM     22  S   UNL     1       5.473   4.608  14.698  0.00  0.00    +0.000 S 
ATOM     23  N   UNL     1       4.944   3.862  16.082  0.00  0.00    +0.000 NA
ATOM     24  C   UNL     1       5.543   4.467  17.120  0.00  0.00    +0.000 A 
ENDBRANCH  13  16
ENDBRANCH   1  13
TORSDOF 4
ENDMDL
MODEL 6
REMARK VINA RESULT:      -7.2      0.652      1.198
REMARK  Name = 
REMARK  4 active torsions:
REMARK  status: ('A' for Active; 'I' for Inactive)
REMARK    1  A    between atoms: C_2  and  C_3
REMARK    2  A    between atoms: C_3  and  S_4
REMARK    3  A    between atoms: S_4  and  C_7
REMARK    4  A    between atoms: N_16  and  C_17
REMARK                            x       y       z     vdW  Elec       q    Type
REMARK                         _______ _______ _______ _____ _____    ______ ____
ROOT
ATOM      1  C   UNL     1       3.061   4.318  20.384  0.00  0.00    +0.000 C 
ENDROOT
BRANCH   1   3
ATOM      2  O   UNL     1       2.098   5.239  18.443  0.00  0.00    +0.000 OA
ATOM      3  C   UNL     1       2.565   5.464  19.559  0.00  0.00    +0.000 C 
ATOM      4  N   UNL     1       2.574   6.706  20.176  0.00  0.00    +0.000 N 
ATOM      5  H   UNL     1       3.181   6.818  20.987  0.00  0.00    +0.000 HD
BRANCH   4   6
ATOM      6  C   UNL     1       2.016   7.894  19.648  0.00  0.00    +0.000 A 
ATOM      7  C   UNL     1       2.153   8.286  18.309  0.00  0.00    +0.000 A 
ATOM      8  C   UNL     1       1.627   9.505  17.865  0.00  0.00    +0.000 A 
ATOM      9  C   UNL     1       0.955  10.327  18.756  0.00  0.00    +0.000 A 
ATOM     10  F   UNL     1       0.478  11.507  18.341  0.00  0.00    +0.000 F 
ATOM     11  C   UNL     1       0.769   9.937  20.077  0.00  0.00    +0.000 A 
ATOM     12  C   UNL     1       1.288   8.715  20.519  0.00  0.00    +0.000 A 
ENDBRANCH   4   6
ENDBRANCH   1   3
BRANCH   1  13
ATOM     13  S   UNL     1       3.971   3.160  19.432  0.00  0.00    +0.000 S 
ATOM     14  O   UNL     1       5.018   2.587  20.254  0.00  0.00    +0.000 OA
ATOM     15  O   UNL     1       2.994   2.301  18.779  0.00  0.00    +0.000 OA
BRANCH  13  16
ATOM     16  C   UNL     1       4.804   4.024  18.137  0.00  0.00    +0.000 A 
ATOM     17  C   UNL     1       4.312   3.894  16.815  0.00  0.00    +0.000 A 
ATOM     18  C   UNL     1       4.903   4.534  15.699  0.00  0.00    +0.000 A 
ATOM     19  C   UNL     1       6.040   5.353  15.800  0.00  0.00    +0.000 A 
ATOM     20  C   UNL     1       6.583   5.509  17.097  0.00  0.00    +0.000 A 
ATOM     21  N   UNL     1       7.664   6.238  17.402  0.00  0.00    +0.000 NA
ATOM     22  S   UNL     1       7.893   6.089  19.035  0.00  0.00    +0.000 S 
ATOM     23  N   UNL     1       6.610   5.116  19.433  0.00  0.00    +0.000 NA
ATOM     24  C   UNL     1       5.952   4.832  18.298  0.00  0.00    +0.000 A 
ENDBRANCH  13  16
ENDBRANCH   1  13
TORSDOF 4
ENDMDL
MODEL 7
REMARK VINA RESULT:      -6.8      1.397      1.923
REMARK  Name = 
REMARK  4 active torsions:
REMARK  status: ('A' for Active; 'I' for Inactive)
REMARK    1  A    between atoms: C_2  and  C_3
REMARK    2  A    between atoms: C_3  and  S_4
REMARK    3  A    between atoms: S_4  and  C_7
REMARK    4  A    between atoms: N_16  and  C_17
REMARK                            x       y       z     vdW  Elec       q    Type
REMARK                         _______ _______ _______ _____ _____    ______ ____
ROOT
ATOM      1  C   UNL     1       3.860   4.565  19.386  0.00  0.00    +0.000 C 
ENDROOT
BRANCH   1   3
ATOM      2  O   UNL     1       1.928   5.327  20.494  0.00  0.00    +0.000 OA
ATOM      3  C   UNL     1       2.776   5.566  19.636  0.00  0.00    +0.000 C 
ATOM      4  N   UNL     1       2.878   6.760  18.937  0.00  0.00    +0.000 N 
ATOM      5  H   UNL     1       3.466   6.763  18.104  0.00  0.00    +0.000 HD
BRANCH   4   6
ATOM      6  C   UNL     1       2.061   7.899  19.124  0.00  0.00    +0.000 A 
ATOM      7  C   UNL     1       1.667   8.751  18.082  0.00  0.00    +0.000 A 
ATOM      8  C   UNL     1       0.906   9.895  18.345  0.00  0.00    +0.000 A 
ATOM      9  C   UNL     1       0.529  10.184  19.647  0.00  0.00    +0.000 A 
ATOM     10  F   UNL     1      -0.172  11.294  19.905  0.00  0.00    +0.000 F 
ATOM     11  C   UNL     1       0.870   9.330  20.689  0.00  0.00    +0.000 A 
ATOM     12  C   UNL     1       1.624   8.181  20.426  0.00  0.00    +0.000 A 
ENDBRANCH   4   6
ENDBRANCH   1   3
BRANCH   1  13
ATOM     13  S   UNL     1       3.649   3.725  17.862  0.00  0.00    +0.000 S 
ATOM     14  O   UNL     1       3.847   2.305  18.071  0.00  0.00    +0.000 OA
ATOM     15  O   UNL     1       2.407   4.218  17.285  0.00  0.00    +0.000 OA
BRANCH  13  16
ATOM     16  C   UNL     1       4.932   4.226  16.758  0.00  0.00    +0.000 A 
ATOM     17  C   UNL     1       5.070   3.537  15.528  0.00  0.00    +0.000 A 
ATOM     18  C   UNL     1       6.066   3.847  14.570  0.00  0.00    +0.000 A 
ATOM     19  C   UNL     1       7.016   4.865  14.756  0.00  0.00    +0.000 A 
ATOM     20  C   UNL     1       6.933   5.579  15.974  0.00  0.00    +0.000 A 
ATOM     21  N   UNL     1       7.747   6.577  16.344  0.00  0.00    +0.000 NA
ATOM     22  S   UNL     1       7.247   7.068  17.844  0.00  0.00    +0.000 S 
ATOM     23  N   UNL     1       5.954   6.055  18.078  0.00  0.00    +0.000 NA
ATOM     24  C   UNL     1       5.866   5.258  17.002  0.00  0.00    +0.000 A 
ENDBRANCH  13  16
ENDBRANCH   1  13
TORSDOF 4
ENDMDL
MODEL 8
REMARK VINA RESULT:      -6.8      5.087      6.401
REMARK  Name = 
REMARK  4 active torsions:
REMARK  status: ('A' for Active; 'I' for Inactive)
REMARK    1  A    between atoms: C_2  and  C_3
REMARK    2  A    between atoms: C_3  and  S_4
REMARK    3  A    between atoms: S_4  and  C_7
REMARK    4  A    between atoms: N_16  and  C_17
REMARK                            x       y       z     vdW  Elec       q    Type
REMARK                         _______ _______ _______ _____ _____    ______ ____
ROOT
ATOM      1  C   UNL     1       7.946   6.576  18.624  0.00  0.00    +0.000 C 
ENDROOT
BRANCH   1   3
ATOM      2  O   UNL     1       7.487   8.533  17.398  0.00  0.00    +0.000 OA
ATOM      3  C   UNL     1       8.146   8.024  18.304  0.00  0.00    +0.000 C 
ATOM      4  N   UNL     1       9.002   8.720  19.145  0.00  0.00    +0.000 N 
ATOM      5  H   UNL     1       9.657   8.171  19.700  0.00  0.00    +0.000 HD
BRANCH   4   6
ATOM      6  C   UNL     1       9.222  10.117  19.126  0.00  0.00    +0.000 A 
ATOM      7  C   UNL     1       9.394  10.859  17.950  0.00  0.00    +0.000 A 
ATOM      8  C   UNL     1       9.668  12.231  18.004  0.00  0.00    +0.000 A 
ATOM      9  C   UNL     1       9.761  12.863  19.235  0.00  0.00    +0.000 A 
ATOM     10  F   UNL     1      10.054  14.167  19.290  0.00  0.00    +0.000 F 
ATOM     11  C   UNL     1       9.550  12.156  20.411  0.00  0.00    +0.000 A 
ATOM     12  C   UNL     1       9.268  10.786  20.357  0.00  0.00    +0.000 A 
ENDBRANCH   4   6
ENDBRANCH   1   3
BRANCH   1  13
ATOM     13  S   UNL     1       7.039   5.740  17.377  0.00  0.00    +0.000 S 
ATOM     14  O   UNL     1       7.094   6.511  16.152  0.00  0.00    +0.000 OA
ATOM     15  O   UNL     1       7.486   4.355  17.397  0.00  0.00    +0.000 OA
BRANCH  13  16
ATOM     16  C   UNL     1       5.336   5.710  17.842  0.00  0.00    +0.000 A 
ATOM     17  C   UNL     1       4.502   6.774  17.419  0.00  0.00    +0.000 A 
ATOM     18  C   UNL     1       3.125   6.857  17.737  0.00  0.00    +0.000 A 
ATOM     19  C   UNL     1       2.459   5.893  18.511  0.00  0.00    +0.000 A 
ATOM     20  C   UNL     1       3.246   4.812  18.972  0.00  0.00    +0.000 A 
ATOM     21  N   UNL     1       2.803   3.797  19.727  0.00  0.00    +0.000 NA
ATOM     22  S   UNL     1       4.102   2.809  20.004  0.00  0.00    +0.000 S 
ATOM     23  N   UNL     1       5.279   3.609  19.152  0.00  0.00    +0.000 NA
ATOM     24  C   UNL     1       4.719   4.711  18.629  0.00  0.00    +0.000 A 
ENDBRANCH  13  16
ENDBRANCH   1  13
TORSDOF 4
ENDMDL
MODEL 9
REMARK VINA RESULT:      -6.8      4.655      7.598
REMARK  Name = 
REMARK  4 active torsions:
REMARK  status: ('A' for Active; 'I' for Inactive)
REMARK    1  A    between atoms: C_2  and  C_3
REMARK    2  A    between atoms: C_3  and  S_4
REMARK    3  A    between atoms: S_4  and  C_7
REMARK    4  A    between atoms: N_16  and  C_17
REMARK                            x       y       z     vdW  Elec       q    Type
REMARK                         _______ _______ _______ _____ _____    ______ ____
ROOT
ATOM      1  C   UNL     1       1.735   8.672  21.687  0.00  0.00    +0.000 C 
ENDROOT
BRANCH   1   3
ATOM      2  O   UNL     1       1.925   8.050  19.424  0.00  0.00    +0.000 OA
ATOM      3  C   UNL     1       1.773   7.663  20.582  0.00  0.00    +0.000 C 
ATOM      4  N   UNL     1       1.740   6.332  20.973  0.00  0.00    +0.000 N 
ATOM      5  H   UNL     1       1.386   6.130  21.907  0.00  0.00    +0.000 HD
BRANCH   4   6
ATOM      6  C   UNL     1       1.916   5.217  20.121  0.00  0.00    +0.000 A 
ATOM      7  C   UNL     1       2.953   5.114  19.183  0.00  0.00    +0.000 A 
ATOM      8  C   UNL     1       3.035   4.009  18.328  0.00  0.00    +0.000 A 
ATOM      9  C   UNL     1       2.086   3.001  18.417  0.00  0.00    +0.000 A 
ATOM     10  F   UNL     1       2.145   1.959  17.579  0.00  0.00    +0.000 F 
ATOM     11  C   UNL     1       1.076   3.062  19.369  0.00  0.00    +0.000 A 
ATOM     12  C   UNL     1       0.999   4.163  20.229  0.00  0.00    +0.000 A 
ENDBRANCH   4   6
ENDBRANCH   1   3
BRANCH   1  13
ATOM     13  S   UNL     1       0.129   9.337  21.922  0.00  0.00    +0.000 S 
ATOM     14  O   UNL     1      -0.852   8.287  21.735  0.00  0.00    +0.000 OA
ATOM     15  O   UNL     1       0.171  10.093  23.165  0.00  0.00    +0.000 OA
BRANCH  13  16
ATOM     16  C   UNL     1      -0.187  10.514  20.646  0.00  0.00    +0.000 A 
ATOM     17  C   UNL     1      -1.159  10.200  19.664  0.00  0.00    +0.000 A 
ATOM     18  C   UNL     1      -1.490  11.065  18.592  0.00  0.00    +0.000 A 
ATOM     19  C   UNL     1      -0.876  12.313  18.399  0.00  0.00    +0.000 A 
ATOM     20  C   UNL     1       0.113  12.674  19.343  0.00  0.00    +0.000 A 
ATOM     21  N   UNL     1       0.817  13.814  19.330  0.00  0.00    +0.000 NA
ATOM     22  S   UNL     1       1.844  13.753  20.627  0.00  0.00    +0.000 S 
ATOM     23  N   UNL     1       1.419  12.289  21.282  0.00  0.00    +0.000 NA
ATOM     24  C   UNL     1       0.468  11.758  20.498  0.00  0.00    +0.000 A 
ENDBRANCH  13  16
ENDBRANCH   1  13
TORSDOF 4
ENDMDL
