MODEL 1
REMARK VINA RESULT:      -7.9      0.000      0.000
REMARK  Name = 
REMARK  5 active torsions:
REMARK  status: ('A' for Active; 'I' for Inactive)
REMARK    1  A    between atoms: C_1  and  C_2
REMARK    2  A    between atoms: C_4  and  C_5
REMARK    3  A    between atoms: C_6  and  C_7
REMARK    4  A    between atoms: C_7  and  N_8
REMARK    5  A    between atoms: C_19  and  N_20
REMARK                            x       y       z     vdW  Elec       q    Type
REMARK                         _______ _______ _______ _____ _____    ______ ____
ROOT
ATOM      1  C   UNL     1       1.376   2.743  22.269  0.00  0.00    +0.000 C 
ATOM      2  C   UNL     1       1.870   3.223  20.935  0.00  0.00    +0.000 A 
ATOM      3  C   UNL     1       2.385   2.344  19.994  0.00  0.00    +0.000 A 
ATOM      4  C   UNL     1       2.909   2.802  18.764  0.00  0.00    +0.000 A 
ATOM      5  C   UNL     1       3.460   1.738  17.843  0.00  0.00    +0.000 C 
ATOM      6  C   UNL     1       2.929   4.197  18.438  0.00  0.00    +0.000 A 
ATOM      7  C   UNL     1       2.365   5.091  19.398  0.00  0.00    +0.000 A 
ATOM      8  C   UNL     1       1.850   4.580  20.621  0.00  0.00    +0.000 A 
ENDROOT
BRANCH   7   9
ATOM      9  N   UNL     1       2.221   6.515  19.259  0.00  0.00    +0.000 N 
ATOM     10  C   UNL     1       2.286   7.339  18.154  0.00  0.00    +0.000 A 
ATOM     11  C   UNL     1       1.832   8.581  18.532  0.00  0.00    +0.000 A 
ATOM     12  C   UNL     1       1.690   8.486  19.919  0.00  0.00    +0.000 A 
ATOM     13  N   UNL     1       1.982   7.270  20.373  0.00  0.00    +0.000 NA
ENDBRANCH   7   9
BRANCH   6  14
ATOM     14  C   UNL     1       3.640   4.632  17.155  0.00  0.00    +0.000 C 
BRANCH  14  15
ATOM     15  N   UNL     1       4.953   5.303  17.270  0.00  0.00    +0.000 NA
ATOM     16  C   UNL     1       6.112   4.415  17.108  0.00  0.00    +0.000 C 
ATOM     17  C   UNL     1       6.271   3.865  15.687  0.00  0.00    +0.000 C 
ATOM     18  C   UNL     1       6.293   4.978  14.628  0.00  0.00    +0.000 C 
ATOM     19  C   UNL     1       5.195   6.025  14.866  0.00  0.00    +0.000 C 
ATOM     20  C   UNL     1       5.081   6.436  16.337  0.00  0.00    +0.000 C 
ATOM     21  C   UNL     1       6.224   4.406  13.224  0.00  0.00    +0.000 C 
ATOM     22  O   UNL     1       7.468   4.700  12.619  0.00  0.00    +0.000 OA
ATOM     23  C   UNL     1       8.217   5.428  13.494  0.00  0.00    +0.000 C 
ATOM     24  O   UNL     1       9.332   5.849  13.255  0.00  0.00    +0.000 OA
ATOM     25  O   UNL     1       7.559   5.628  14.665  0.00  0.00    +0.000 OA
ENDBRANCH  14  15
ENDBRANCH   6  14
TORSDOF 3
ENDMDL
MODEL 2
REMARK VINA RESULT:      -6.8      1.419      3.507
REMARK  Name = 
REMARK  5 active torsions:
REMARK  status: ('A' for Active; 'I' for Inactive)
REMARK    1  A    between atoms: C_1  and  C_2
REMARK    2  A    between atoms: C_4  and  C_5
REMARK    3  A    between atoms: C_6  and  C_7
REMARK    4  A    between atoms: C_7  and  N_8
REMARK    5  A    between atoms: C_19  and  N_20
REMARK                            x       y       z     vdW  Elec       q    Type
REMARK                         _______ _______ _______ _____ _____    ______ ____
ROOT
ATOM      1  C   UNL     1      -0.023   8.313  21.790  0.00  0.00    +0.000 C 
ATOM      2  C   UNL     1       0.954   7.677  20.843  0.00  0.00    +0.000 A 
ATOM      3  C   UNL     1       1.465   8.371  19.756  0.00  0.00    +0.000 A 
ATOM      4  C   UNL     1       2.334   7.754  18.829  0.00  0.00    +0.000 A 
ATOM      5  C   UNL     1       2.797   8.620  17.680  0.00  0.00    +0.000 C 
ATOM      6  C   UNL     1       2.723   6.382  18.973  0.00  0.00    +0.000 A 
ATOM      7  C   UNL     1       2.218   5.686  20.113  0.00  0.00    +0.000 A 
ATOM      8  C   UNL     1       1.347   6.353  21.018  0.00  0.00    +0.000 A 
ENDROOT
BRANCH   7   9
ATOM      9  N   UNL     1       2.522   4.333  20.491  0.00  0.00    +0.000 N 
ATOM     10  C   UNL     1       3.504   3.461  20.067  0.00  0.00    +0.000 A 
ATOM     11  C   UNL     1       3.506   2.385  20.924  0.00  0.00    +0.000 A 
ATOM     12  C   UNL     1       2.378   2.583  21.725  0.00  0.00    +0.000 A 
ATOM     13  N   UNL     1       1.746   3.716  21.432  0.00  0.00    +0.000 NA
ENDBRANCH   7   9
BRANCH   6  14
ATOM     14  C   UNL     1       3.547   5.741  17.855  0.00  0.00    +0.000 C 
BRANCH  14  15
ATOM     15  N   UNL     1       4.986   6.067  17.765  0.00  0.00    +0.000 NA
ATOM     16  C   UNL     1       5.870   4.904  17.606  0.00  0.00    +0.000 C 
ATOM     17  C   UNL     1       5.721   4.199  16.254  0.00  0.00    +0.000 C 
ATOM     18  C   UNL     1       5.883   5.163  15.070  0.00  0.00    +0.000 C 
ATOM     19  C   UNL     1       5.106   6.471  15.278  0.00  0.00    +0.000 C 
ATOM     20  C   UNL     1       5.271   7.037  16.693  0.00  0.00    +0.000 C 
ATOM     21  C   UNL     1       5.511   4.496  13.758  0.00  0.00    +0.000 C 
ATOM     22  O   UNL     1       6.707   4.408  13.010  0.00  0.00    +0.000 OA
ATOM     23  C   UNL     1       7.708   5.003  13.716  0.00  0.00    +0.000 C 
ATOM     24  O   UNL     1       8.855   5.104  13.326  0.00  0.00    +0.000 OA
ATOM     25  O   UNL     1       7.263   5.474  14.910  0.00  0.00    +0.000 OA
ENDBRANCH  14  15
ENDBRANCH   6  14
TORSDOF 3
ENDMDL
MODEL 3
REMARK VINA RESULT:      -6.5      4.002      6.566
REMARK  Name = 
REMARK  5 active torsions:
REMARK  status: ('A' for Active; 'I' for Inactive)
REMARK    1  A    between atoms: C_1  and  C_2
REMARK    2  A    between atoms: C_4  and  C_5
REMARK    3  A    between atoms: C_6  and  C_7
REMARK    4  A    between atoms: C_7  and  N_8
REMARK    5  A    between atoms: C_19  and  N_20
REMARK                            x       y       z     vdW  Elec       q    Type
REMARK                         _______ _______ _______ _____ _____    ______ ____
ROOT
ATOM      1  C   UNL     1       4.054   0.746  18.748  0.00  0.00    +0.000 C 
ATOM      2  C   UNL     1       3.558   2.163  18.771  0.00  0.00    +0.000 A 
ATOM      3  C   UNL     1       2.392   2.512  19.437  0.00  0.00    +0.000 A 
ATOM      4  C   UNL     1       1.891   3.832  19.406  0.00  0.00    +0.000 A 
ATOM      5  C   UNL     1       0.599   4.067  20.155  0.00  0.00    +0.000 C 
ATOM      6  C   UNL     1       2.567   4.868  18.682  0.00  0.00    +0.000 A 
ATOM      7  C   UNL     1       3.784   4.507  18.028  0.00  0.00    +0.000 A 
ATOM      8  C   UNL     1       4.247   3.164  18.091  0.00  0.00    +0.000 A 
ENDROOT
BRANCH   7   9
ATOM      9  N   UNL     1       4.657   5.388  17.302  0.00  0.00    +0.000 N 
ATOM     10  C   UNL     1       4.799   5.629  15.950  0.00  0.00    +0.000 A 
ATOM     11  C   UNL     1       5.596   6.740  15.805  0.00  0.00    +0.000 A 
ATOM     12  C   UNL     1       6.054   7.004  17.099  0.00  0.00    +0.000 A 
ATOM     13  N   UNL     1       5.547   6.161  17.994  0.00  0.00    +0.000 NA
ENDBRANCH   7   9
BRANCH   6  14
ATOM     14  C   UNL     1       1.891   6.236  18.573  0.00  0.00    +0.000 C 
BRANCH  14  15
ATOM     15  N   UNL     1       2.616   7.422  19.078  0.00  0.00    +0.000 NA
ATOM     16  C   UNL     1       2.805   8.492  18.090  0.00  0.00    +0.000 C 
ATOM     17  C   UNL     1       1.503   9.189  17.681  0.00  0.00    +0.000 C 
ATOM     18  C   UNL     1       0.711   9.707  18.891  0.00  0.00    +0.000 C 
ATOM     19  C   UNL     1       0.637   8.671  20.022  0.00  0.00    +0.000 C 
ATOM     20  C   UNL     1       1.983   7.987  20.284  0.00  0.00    +0.000 C 
ATOM     21  C   UNL     1      -0.669  10.188  18.484  0.00  0.00    +0.000 C 
ATOM     22  O   UNL     1      -0.678  11.585  18.702  0.00  0.00    +0.000 OA
ATOM     23  C   UNL     1       0.516  11.949  19.245  0.00  0.00    +0.000 C 
ATOM     24  O   UNL     1       0.805  13.087  19.563  0.00  0.00    +0.000 OA
ATOM     25  O   UNL     1       1.343  10.881  19.390  0.00  0.00    +0.000 OA
ENDBRANCH  14  15
ENDBRANCH   6  14
TORSDOF 3
ENDMDL
MODEL 4
REMARK VINA RESULT:      -6.4      4.004      7.091
REMARK  Name = 
REMARK  5 active torsions:
REMARK  status: ('A' for Active; 'I' for Inactive)
REMARK    1  A    between atoms: C_1  and  C_2
REMARK    2  A    between atoms: C_4  and  C_5
REMARK    3  A    between atoms: C_6  and  C_7
REMARK    4  A    between atoms: C_7  and  N_8
REMARK    5  A    between atoms: C_19  and  N_20
REMARK                            x       y       z     vdW  Elec       q    Type
REMARK                         _______ _______ _______ _____ _____    ______ ____
ROOT
ATOM      1  C   UNL     1       6.318   3.735  14.548  0.00  0.00    +0.000 C 
ATOM      2  C   UNL     1       5.558   4.437  15.636  0.00  0.00    +0.000 A 
ATOM      3  C   UNL     1       5.777   5.776  15.924  0.00  0.00    +0.000 A 
ATOM      4  C   UNL     1       5.110   6.421  16.989  0.00  0.00    +0.000 A 
ATOM      5  C   UNL     1       5.462   7.875  17.205  0.00  0.00    +0.000 C 
ATOM      6  C   UNL     1       4.178   5.717  17.818  0.00  0.00    +0.000 A 
ATOM      7  C   UNL     1       3.933   4.348  17.493  0.00  0.00    +0.000 A 
ATOM      8  C   UNL     1       4.630   3.745  16.410  0.00  0.00    +0.000 A 
ENDROOT
BRANCH   7   9
ATOM      9  N   UNL     1       2.999   3.469  18.142  0.00  0.00    +0.000 N 
ATOM     10  C   UNL     1       3.116   2.674  19.264  0.00  0.00    +0.000 A 
ATOM     11  C   UNL     1       1.857   2.232  19.596  0.00  0.00    +0.000 A 
ATOM     12  C   UNL     1       1.057   2.642  18.527  0.00  0.00    +0.000 A 
ATOM     13  N   UNL     1       1.744   3.330  17.619  0.00  0.00    +0.000 NA
ENDBRANCH   7   9
BRANCH   6  14
ATOM     14  C   UNL     1       3.604   6.438  19.039  0.00  0.00    +0.000 C 
BRANCH  14  15
ATOM     15  N   UNL     1       2.134   6.507  19.190  0.00  0.00    +0.000 NA
ATOM     16  C   UNL     1       1.673   7.285  20.348  0.00  0.00    +0.000 C 
ATOM     17  C   UNL     1       1.952   8.787  20.230  0.00  0.00    +0.000 C 
ATOM     18  C   UNL     1       1.401   9.385  18.927  0.00  0.00    +0.000 C 
ATOM     19  C   UNL     1       1.718   8.506  17.708  0.00  0.00    +0.000 C 
ATOM     20  C   UNL     1       1.474   7.017  17.975  0.00  0.00    +0.000 C 
ATOM     21  C   UNL     1       1.880  10.811  18.726  0.00  0.00    +0.000 C 
ATOM     22  O   UNL     1       0.731  11.628  18.823  0.00  0.00    +0.000 OA
ATOM     23  C   UNL     1      -0.359  10.829  18.994  0.00  0.00    +0.000 C 
ATOM     24  O   UNL     1      -1.500  11.239  19.091  0.00  0.00    +0.000 OA
ATOM     25  O   UNL     1      -0.012   9.516  19.038  0.00  0.00    +0.000 OA
ENDBRANCH  14  15
ENDBRANCH   6  14
TORSDOF 3
ENDMDL
MODEL 5
REMARK VINA RESULT:      -6.3      8.856     12.378
REMARK  Name = 
REMARK  5 active torsions:
REMARK  status: ('A' for Active; 'I' for Inactive)
REMARK    1  A    between atoms: C_1  and  C_2
REMARK    2  A    between atoms: C_4  and  C_5
REMARK    3  A    between atoms: C_6  and  C_7
REMARK    4  A    between atoms: C_7  and  N_8
REMARK    5  A    between atoms: C_19  and  N_20
REMARK                            x       y       z     vdW  Elec       q    Type
REMARK                         _______ _______ _______ _____ _____    ______ ____
ROOT
ATOM      1  C   UNL     1      -3.543  10.391  14.916  0.00  0.00    +0.000 C 
ATOM      2  C   UNL     1      -3.452  10.848  16.343  0.00  0.00    +0.000 A 
ATOM      3  C   UNL     1      -4.528  11.443  16.984  0.00  0.00    +0.000 A 
ATOM      4  C   UNL     1      -4.424  11.932  18.305  0.00  0.00    +0.000 A 
ATOM      5  C   UNL     1      -5.668  12.577  18.872  0.00  0.00    +0.000 C 
ATOM      6  C   UNL     1      -3.198  11.834  19.040  0.00  0.00    +0.000 A 
ATOM      7  C   UNL     1      -2.104  11.189  18.384  0.00  0.00    +0.000 A 
ATOM      8  C   UNL     1      -2.261  10.714  17.054  0.00  0.00    +0.000 A 
ENDROOT
BRANCH   7   9
ATOM      9  N   UNL     1      -0.808  10.925  18.946  0.00  0.00    +0.000 N 
ATOM     10  C   UNL     1      -0.342   9.889  19.730  0.00  0.00    +0.000 A 
ATOM     11  C   UNL     1       1.028   9.988  19.782  0.00  0.00    +0.000 A 
ATOM     12  C   UNL     1       1.307  11.210  19.167  0.00  0.00    +0.000 A 
ATOM     13  N   UNL     1       0.208  11.810  18.718  0.00  0.00    +0.000 NA
ENDBRANCH   7   9
BRANCH   6  14
ATOM     14  C   UNL     1      -3.116  12.512  20.409  0.00  0.00    +0.000 C 
BRANCH  14  15
ATOM     15  N   UNL     1      -1.798  12.985  20.883  0.00  0.00    +0.000 NA
ATOM     16  C   UNL     1      -1.705  14.436  21.087  0.00  0.00    +0.000 C 
ATOM     17  C   UNL     1      -2.554  14.948  22.256  0.00  0.00    +0.000 C 
ATOM     18  C   UNL     1      -2.260  14.200  23.565  0.00  0.00    +0.000 C 
ATOM     19  C   UNL     1      -2.179  12.681  23.357  0.00  0.00    +0.000 C 
ATOM     20  C   UNL     1      -1.370  12.297  22.114  0.00  0.00    +0.000 C 
ATOM     21  C   UNL     1      -3.261  14.563  24.646  0.00  0.00    +0.000 C 
ATOM     22  O   UNL     1      -2.532  15.257  25.639  0.00  0.00    +0.000 OA
ATOM     23  C   UNL     1      -1.218  15.278  25.280  0.00  0.00    +0.000 C 
ATOM     24  O   UNL     1      -0.335  15.788  25.943  0.00  0.00    +0.000 OA
ATOM     25  O   UNL     1      -1.018  14.654  24.090  0.00  0.00    +0.000 OA
ENDBRANCH  14  15
ENDBRANCH   6  14
TORSDOF 3
ENDMDL
MODEL 6
REMARK VINA RESULT:      -6.2      3.709      6.338
REMARK  Name = 
REMARK  5 active torsions:
REMARK  status: ('A' for Active; 'I' for Inactive)
REMARK    1  A    between atoms: C_1  and  C_2
REMARK    2  A    between atoms: C_4  and  C_5
REMARK    3  A    between atoms: C_6  and  C_7
REMARK    4  A    between atoms: C_7  and  N_8
REMARK    5  A    between atoms: C_19  and  N_20
REMARK                            x       y       z     vdW  Elec       q    Type
REMARK                         _______ _______ _______ _____ _____    ______ ____
ROOT
ATOM      1  C   UNL     1       8.280   8.570  17.678  0.00  0.00    +0.000 C 
ATOM      2  C   UNL     1       7.195   7.553  17.469  0.00  0.00    +0.000 A 
ATOM      3  C   UNL     1       7.470   6.298  16.947  0.00  0.00    +0.000 A 
ATOM      4  C   UNL     1       6.442   5.363  16.690  0.00  0.00    +0.000 A 
ATOM      5  C   UNL     1       6.881   4.043  16.099  0.00  0.00    +0.000 C 
ATOM      6  C   UNL     1       5.069   5.676  16.958  0.00  0.00    +0.000 A 
ATOM      7  C   UNL     1       4.800   6.958  17.527  0.00  0.00    +0.000 A 
ATOM      8  C   UNL     1       5.871   7.862  17.767  0.00  0.00    +0.000 A 
ENDROOT
BRANCH   7   9
ATOM      9  N   UNL     1       3.515   7.459  17.932  0.00  0.00    +0.000 N 
ATOM     10  C   UNL     1       2.769   7.253  19.075  0.00  0.00    +0.000 A 
ATOM     11  C   UNL     1       1.736   8.160  19.069  0.00  0.00    +0.000 A 
ATOM     12  C   UNL     1       1.808   8.753  17.806  0.00  0.00    +0.000 A 
ATOM     13  N   UNL     1       2.833   8.295  17.093  0.00  0.00    +0.000 NA
ENDBRANCH   7   9
BRANCH   6  14
ATOM     14  C   UNL     1       3.999   4.674  16.521  0.00  0.00    +0.000 C 
BRANCH  14  15
ATOM     15  N   UNL     1       3.968   3.347  17.173  0.00  0.00    +0.000 NA
ATOM     16  C   UNL     1       4.629   3.293  18.484  0.00  0.00    +0.000 C 
ATOM     17  C   UNL     1       3.901   4.088  19.573  0.00  0.00    +0.000 C 
ATOM     18  C   UNL     1       2.423   3.692  19.698  0.00  0.00    +0.000 C 
ATOM     19  C   UNL     1       1.738   3.571  18.330  0.00  0.00    +0.000 C 
ATOM     20  C   UNL     1       2.597   2.824  17.304  0.00  0.00    +0.000 C 
ATOM     21  C   UNL     1       1.672   4.639  20.616  0.00  0.00    +0.000 C 
ATOM     22  O   UNL     1       1.300   3.877  21.748  0.00  0.00    +0.000 OA
ATOM     23  C   UNL     1       1.697   2.589  21.555  0.00  0.00    +0.000 C 
ATOM     24  O   UNL     1       1.502   1.686  22.346  0.00  0.00    +0.000 OA
ATOM     25  O   UNL     1       2.334   2.437  20.365  0.00  0.00    +0.000 OA
ENDBRANCH  14  15
ENDBRANCH   6  14
TORSDOF 3
ENDMDL
MODEL 7
REMARK VINA RESULT:      -6.2      6.703     10.126
REMARK  Name = 
REMARK  5 active torsions:
REMARK  status: ('A' for Active; 'I' for Inactive)
REMARK    1  A    between atoms: C_1  and  C_2
REMARK    2  A    between atoms: C_4  and  C_5
REMARK    3  A    between atoms: C_6  and  C_7
REMARK    4  A    between atoms: C_7  and  N_8
REMARK    5  A    between atoms: C_19  and  N_20
REMARK                            x       y       z     vdW  Elec       q    Type
REMARK                         _______ _______ _______ _____ _____    ______ ____
ROOT
ATOM      1  C   UNL     1      -3.763  10.187  17.485  0.00  0.00    +0.000 C 
ATOM      2  C   UNL     1      -2.610  10.608  18.349  0.00  0.00    +0.000 A 
ATOM      3  C   UNL     1      -2.707  11.692  19.209  0.00  0.00    +0.000 A 
ATOM      4  C   UNL     1      -1.604  12.129  19.975  0.00  0.00    +0.000 A 
ATOM      5  C   UNL     1      -1.845  13.336  20.853  0.00  0.00    +0.000 C 
ATOM      6  C   UNL     1      -0.334  11.470  19.894  0.00  0.00    +0.000 A 
ATOM      7  C   UNL     1      -0.252  10.334  19.031  0.00  0.00    +0.000 A 
ATOM      8  C   UNL     1      -1.393   9.934  18.282  0.00  0.00    +0.000 A 
ENDROOT
BRANCH   7   9
ATOM      9  N   UNL     1       0.893   9.487  18.840  0.00  0.00    +0.000 N 
ATOM     10  C   UNL     1       1.453   8.509  19.637  0.00  0.00    +0.000 A 
ATOM     11  C   UNL     1       2.383   7.836  18.880  0.00  0.00    +0.000 A 
ATOM     12  C   UNL     1       2.468   8.580  17.700  0.00  0.00    +0.000 A 
ATOM     13  N   UNL     1       1.624   9.608  17.692  0.00  0.00    +0.000 NA
ENDBRANCH   7   9
BRANCH   6  14
ATOM     14  C   UNL     1       0.851  12.084  20.640  0.00  0.00    +0.000 C 
BRANCH  14  15
ATOM     15  N   UNL     1       1.934  12.709  19.850  0.00  0.00    +0.000 NA
ATOM     16  C   UNL     1       1.570  13.039  18.465  0.00  0.00    +0.000 C 
ATOM     17  C   UNL     1       0.538  14.167  18.353  0.00  0.00    +0.000 C 
ATOM     18  C   UNL     1       0.968  15.430  19.113  0.00  0.00    +0.000 C 
ATOM     19  C   UNL     1       1.518  15.107  20.510  0.00  0.00    +0.000 C 
ATOM     20  C   UNL     1       2.477  13.912  20.504  0.00  0.00    +0.000 C 
ATOM     21  C   UNL     1      -0.158  16.446  19.178  0.00  0.00    +0.000 C 
ATOM     22  O   UNL     1       0.267  17.552  18.407  0.00  0.00    +0.000 OA
ATOM     23  C   UNL     1       1.530  17.313  17.960  0.00  0.00    +0.000 C 
ATOM     24  O   UNL     1       2.177  18.090  17.283  0.00  0.00    +0.000 OA
ATOM     25  O   UNL     1       1.981  16.098  18.368  0.00  0.00    +0.000 OA
ENDBRANCH  14  15
ENDBRANCH   6  14
TORSDOF 3
ENDMDL
MODEL 8
REMARK VINA RESULT:      -6.1      8.955     12.665
REMARK  Name = 
REMARK  5 active torsions:
REMARK  status: ('A' for Active; 'I' for Inactive)
REMARK    1  A    between atoms: C_1  and  C_2
REMARK    2  A    between atoms: C_4  and  C_5
REMARK    3  A    between atoms: C_6  and  C_7
REMARK    4  A    between atoms: C_7  and  N_8
REMARK    5  A    between atoms: C_19  and  N_20
REMARK                            x       y       z     vdW  Elec       q    Type
REMARK                         _______ _______ _______ _____ _____    ______ ____
ROOT
ATOM      1  C   UNL     1       1.271   9.173  18.662  0.00  0.00    +0.000 C 
ATOM      2  C   UNL     1       0.853  10.215  19.658  0.00  0.00    +0.000 A 
ATOM      3  C   UNL     1       0.303   9.868  20.883  0.00  0.00    +0.000 A 
ATOM      4  C   UNL     1      -0.149  10.848  21.794  0.00  0.00    +0.000 A 
ATOM      5  C   UNL     1      -0.748  10.328  23.081  0.00  0.00    +0.000 C 
ATOM      6  C   UNL     1      -0.059  12.245  21.489  0.00  0.00    +0.000 A 
ATOM      7  C   UNL     1       0.539  12.594  20.241  0.00  0.00    +0.000 A 
ATOM      8  C   UNL     1       0.980  11.569  19.359  0.00  0.00    +0.000 A 
ENDROOT
BRANCH   7   9
ATOM      9  N   UNL     1       0.789  13.924  19.755  0.00  0.00    +0.000 N 
ATOM     10  C   UNL     1       0.093  14.724  18.873  0.00  0.00    +0.000 A 
ATOM     11  C   UNL     1       0.625  15.990  18.948  0.00  0.00    +0.000 A 
ATOM     12  C   UNL     1       1.758  15.839  19.752  0.00  0.00    +0.000 A 
ATOM     13  N   UNL     1       1.901  14.591  20.189  0.00  0.00    +0.000 NA
ENDBRANCH   7   9
BRANCH   6  14
ATOM     14  C   UNL     1      -0.699  13.242  22.458  0.00  0.00    +0.000 C 
BRANCH  14  15
ATOM     15  N   UNL     1      -1.824  14.070  21.974  0.00  0.00    +0.000 NA
ATOM     16  C   UNL     1      -2.905  13.317  21.324  0.00  0.00    +0.000 C 
ATOM     17  C   UNL     1      -3.692  12.418  22.284  0.00  0.00    +0.000 C 
ATOM     18  C   UNL     1      -4.228  13.189  23.500  0.00  0.00    +0.000 C 
ATOM     19  C   UNL     1      -3.171  14.122  24.107  0.00  0.00    +0.000 C 
ATOM     20  C   UNL     1      -2.397  14.908  23.043  0.00  0.00    +0.000 C 
ATOM     21  C   UNL     1      -4.805  12.247  24.541  0.00  0.00    +0.000 C 
ATOM     22  O   UNL     1      -6.194  12.508  24.581  0.00  0.00    +0.000 OA
ATOM     23  C   UNL     1      -6.469  13.533  23.728  0.00  0.00    +0.000 C 
ATOM     24  O   UNL     1      -7.577  14.002  23.555  0.00  0.00    +0.000 OA
ATOM     25  O   UNL     1      -5.347  13.970  23.097  0.00  0.00    +0.000 OA
ENDBRANCH  14  15
ENDBRANCH   6  14
TORSDOF 3
ENDMDL
MODEL 9
REMARK VINA RESULT:      -6.1      9.528     12.580
REMARK  Name = 
REMARK  5 active torsions:
REMARK  status: ('A' for Active; 'I' for Inactive)
REMARK    1  A    between atoms: C_1  and  C_2
REMARK    2  A    between atoms: C_4  and  C_5
REMARK    3  A    between atoms: C_6  and  C_7
REMARK    4  A    between atoms: C_7  and  N_8
REMARK    5  A    between atoms: C_19  and  N_20
REMARK                            x       y       z     vdW  Elec       q    Type
REMARK                         _______ _______ _______ _____ _____    ______ ____
ROOT
ATOM      1  C   UNL     1      -3.149   9.772  15.195  0.00  0.00    +0.000 C 
ATOM      2  C   UNL     1      -3.173  10.459  16.529  0.00  0.00    +0.000 A 
ATOM      3  C   UNL     1      -4.351  10.959  17.066  0.00  0.00    +0.000 A 
ATOM      4  C   UNL     1      -4.365  11.662  18.291  0.00  0.00    +0.000 A 
ATOM      5  C   UNL     1      -5.713  12.171  18.746  0.00  0.00    +0.000 C 
ATOM      6  C   UNL     1      -3.159  11.890  19.031  0.00  0.00    +0.000 A 
ATOM      7  C   UNL     1      -1.957  11.343  18.488  0.00  0.00    +0.000 A 
ATOM      8  C   UNL     1      -1.996  10.642  17.252  0.00  0.00    +0.000 A 
ENDROOT
BRANCH   7   9
ATOM      9  N   UNL     1      -0.650  11.393  19.085  0.00  0.00    +0.000 N 
ATOM     10  C   UNL     1       0.408  12.260  18.904  0.00  0.00    +0.000 A 
ATOM     11  C   UNL     1       1.326  12.012  19.897  0.00  0.00    +0.000 A 
ATOM     12  C   UNL     1       0.848  10.859  20.526  0.00  0.00    +0.000 A 
ATOM     13  N   UNL     1      -0.304  10.444  20.005  0.00  0.00    +0.000 NA
ENDBRANCH   7   9
BRANCH   6  14
ATOM     14  C   UNL     1      -3.228  12.781  20.273  0.00  0.00    +0.000 C 
BRANCH  14  15
ATOM     15  N   UNL     1      -2.050  12.839  21.164  0.00  0.00    +0.000 NA
ATOM     16  C   UNL     1      -1.513  14.189  21.384  0.00  0.00    +0.000 C 
ATOM     17  C   UNL     1      -2.444  15.098  22.192  0.00  0.00    +0.000 C 
ATOM     18  C   UNL     1      -2.868  14.464  23.525  0.00  0.00    +0.000 C 
ATOM     19  C   UNL     1      -3.276  12.993  23.363  0.00  0.00    +0.000 C 
ATOM     20  C   UNL     1      -2.310  12.208  22.470  0.00  0.00    +0.000 C 
ATOM     21  C   UNL     1      -3.959  15.275  24.201  0.00  0.00    +0.000 C 
ATOM     22  O   UNL     1      -3.383  15.802  25.380  0.00  0.00    +0.000 OA
ATOM     23  C   UNL     1      -2.109  15.335  25.489  0.00  0.00    +0.000 C 
ATOM     24  O   UNL     1      -1.360  15.597  26.411  0.00  0.00    +0.000 OA
ATOM     25  O   UNL     1      -1.780  14.536  24.440  0.00  0.00    +0.000 OA
ENDBRANCH  14  15
ENDBRANCH   6  14
TORSDOF 3
ENDMDL
