MODEL 1
REMARK VINA RESULT:      -5.5      0.000      0.000
REMARK  Name = 
REMARK  3 active torsions:
REMARK  status: ('A' for Active; 'I' for Inactive)
REMARK    1  A    between atoms: C_1  and  C_2
REMARK    2  A    between atoms: C_2  and  O_4
REMARK    3  A    between atoms: O_4  and  C_5
REMARK                            x       y       z     vdW  Elec       q    Type
REMARK                         _______ _______ _______ _____ _____    ______ ____
ROOT
ATOM      1  C   UNL     1       5.087   4.802  18.907  0.00  0.00    +0.000 C 
ATOM      2  C   UNL     1       4.168   3.833  19.722  0.00  0.00    +0.000 C 
ATOM      3  N   UNL     1       3.007   3.388  18.913  0.00  0.00    +0.000 NA
ATOM      4  C   UNL     1       2.135   4.556  18.635  0.00  0.00    +0.000 C 
ATOM      5  C   UNL     1       2.941   5.710  17.984  0.00  0.00    +0.000 C 
ATOM      6  C   UNL     1       4.344   5.188  17.605  0.00  0.00    +0.000 C 
ATOM      7  C   UNL     1       4.149   3.917  16.748  0.00  0.00    +0.000 C 
ATOM      8  C   UNL     1       3.500   2.819  17.633  0.00  0.00    +0.000 C 
ENDROOT
BRANCH   1   9
ATOM      9  O   UNL     1       6.298   4.215  18.568  0.00  0.00    +0.000 OA
BRANCH   9  11
ATOM     10  C   UNL     1       7.756   6.193  18.657  0.00  0.00    +0.000 C 
ATOM     11  C   UNL     1       7.375   4.874  18.066  0.00  0.00    +0.000 C 
ATOM     12  O   UNL     1       8.025   4.405  17.146  0.00  0.00    +0.000 OA
ENDBRANCH   9  11
ENDBRANCH   1   9
TORSDOF 2
ENDMDL
MODEL 2
REMARK VINA RESULT:      -5.4      1.016      1.133
REMARK  Name = 
REMARK  3 active torsions:
REMARK  status: ('A' for Active; 'I' for Inactive)
REMARK    1  A    between atoms: C_1  and  C_2
REMARK    2  A    between atoms: C_2  and  O_4
REMARK    3  A    between atoms: O_4  and  C_5
REMARK                            x       y       z     vdW  Elec       q    Type
REMARK                         _______ _______ _______ _____ _____    ______ ____
ROOT
ATOM      1  C   UNL     1       4.576   4.801  19.188  0.00  0.00    +0.000 C 
ATOM      2  C   UNL     1       3.812   3.613  19.861  0.00  0.00    +0.000 C 
ATOM      3  N   UNL     1       2.864   2.980  18.911  0.00  0.00    +0.000 NA
ATOM      4  C   UNL     1       1.792   3.949  18.577  0.00  0.00    +0.000 C 
ATOM      5  C   UNL     1       2.390   5.285  18.062  0.00  0.00    +0.000 C 
ATOM      6  C   UNL     1       3.904   5.095  17.825  0.00  0.00    +0.000 C 
ATOM      7  C   UNL     1       4.079   3.864  16.908  0.00  0.00    +0.000 C 
ATOM      8  C   UNL     1       3.598   2.604  17.675  0.00  0.00    +0.000 C 
ENDROOT
BRANCH   1   9
ATOM      9  O   UNL     1       5.913   4.506  18.968  0.00  0.00    +0.000 OA
BRANCH   9  11
ATOM     10  C   UNL     1       7.380   6.227  18.002  0.00  0.00    +0.000 C 
ATOM     11  C   UNL     1       6.947   5.370  19.147  0.00  0.00    +0.000 C 
ATOM     12  O   UNL     1       7.520   5.449  20.221  0.00  0.00    +0.000 OA
ENDBRANCH   9  11
ENDBRANCH   1   9
TORSDOF 2
ENDMDL
MODEL 3
REMARK VINA RESULT:      -5.4      1.689      2.314
REMARK  Name = 
REMARK  3 active torsions:
REMARK  status: ('A' for Active; 'I' for Inactive)
REMARK    1  A    between atoms: C_1  and  C_2
REMARK    2  A    between atoms: C_2  and  O_4
REMARK    3  A    between atoms: O_4  and  C_5
REMARK                            x       y       z     vdW  Elec       q    Type
REMARK                         _______ _______ _______ _____ _____    ______ ____
ROOT
ATOM      1  C   UNL     1       3.468   4.563  19.810  0.00  0.00    +0.000 C 
ATOM      2  C   UNL     1       3.755   3.030  19.682  0.00  0.00    +0.000 C 
ATOM      3  N   UNL     1       2.682   2.346  18.919  0.00  0.00    +0.000 NA
ATOM      4  C   UNL     1       1.420   2.408  19.697  0.00  0.00    +0.000 C 
ATOM      5  C   UNL     1       1.074   3.871  20.080  0.00  0.00    +0.000 C 
ATOM      6  C   UNL     1       2.022   4.823  19.321  0.00  0.00    +0.000 C 
ATOM      7  C   UNL     1       1.933   4.467  17.820  0.00  0.00    +0.000 C 
ATOM      8  C   UNL     1       2.499   3.036  17.617  0.00  0.00    +0.000 C 
ENDROOT
BRANCH   1   9
ATOM      9  O   UNL     1       4.339   5.324  19.044  0.00  0.00    +0.000 OA
BRANCH   9  11
ATOM     10  C   UNL     1       6.126   4.613  17.512  0.00  0.00    +0.000 C 
ATOM     11  C   UNL     1       5.659   5.057  18.860  0.00  0.00    +0.000 C 
ATOM     12  O   UNL     1       6.456   5.171  19.777  0.00  0.00    +0.000 OA
ENDBRANCH   9  11
ENDBRANCH   1   9
TORSDOF 2
ENDMDL
MODEL 4
REMARK VINA RESULT:      -5.4      1.707      2.156
REMARK  Name = 
REMARK  3 active torsions:
REMARK  status: ('A' for Active; 'I' for Inactive)
REMARK    1  A    between atoms: C_1  and  C_2
REMARK    2  A    between atoms: C_2  and  O_4
REMARK    3  A    between atoms: O_4  and  C_5
REMARK                            x       y       z     vdW  Elec       q    Type
REMARK                         _______ _______ _______ _____ _____    ______ ____
ROOT
ATOM      1  C   UNL     1       5.597   5.215  17.558  0.00  0.00    +0.000 C 
ATOM      2  C   UNL     1       5.660   4.783  19.061  0.00  0.00    +0.000 C 
ATOM      3  N   UNL     1       4.341   4.292  19.532  0.00  0.00    +0.000 NA
ATOM      4  C   UNL     1       3.374   5.417  19.525  0.00  0.00    +0.000 C 
ATOM      5  C   UNL     1       3.322   6.097  18.132  0.00  0.00    +0.000 C 
ATOM      6  C   UNL     1       4.111   5.233  17.125  0.00  0.00    +0.000 C 
ATOM      7  C   UNL     1       3.551   3.796  17.208  0.00  0.00    +0.000 C 
ATOM      8  C   UNL     1       3.869   3.223  18.616  0.00  0.00    +0.000 C 
ENDROOT
BRANCH   1   9
ATOM      9  O   UNL     1       6.289   4.341  16.733  0.00  0.00    +0.000 OA
BRANCH   9  11
ATOM     10  C   UNL     1       6.207   3.916  14.312  0.00  0.00    +0.000 C 
ATOM     11  C   UNL     1       6.763   4.641  15.495  0.00  0.00    +0.000 C 
ATOM     12  O   UNL     1       7.631   5.485  15.343  0.00  0.00    +0.000 OA
ENDBRANCH   9  11
ENDBRANCH   1   9
TORSDOF 2
ENDMDL
MODEL 5
REMARK VINA RESULT:      -5.4      1.628      2.197
REMARK  Name = 
REMARK  3 active torsions:
REMARK  status: ('A' for Active; 'I' for Inactive)
REMARK    1  A    between atoms: C_1  and  C_2
REMARK    2  A    between atoms: C_2  and  O_4
REMARK    3  A    between atoms: O_4  and  C_5
REMARK                            x       y       z     vdW  Elec       q    Type
REMARK                         _______ _______ _______ _____ _____    ______ ____
ROOT
ATOM      1  C   UNL     1       4.594   4.685  16.911  0.00  0.00    +0.000 C 
ATOM      2  C   UNL     1       4.918   5.462  18.231  0.00  0.00    +0.000 C 
ATOM      3  N   UNL     1       4.154   4.910  19.377  0.00  0.00    +0.000 NA
ATOM      4  C   UNL     1       2.708   5.163  19.162  0.00  0.00    +0.000 C 
ATOM      5  C   UNL     1       2.246   4.615  17.786  0.00  0.00    +0.000 C 
ATOM      6  C   UNL     1       3.382   3.761  17.182  0.00  0.00    +0.000 C 
ATOM      7  C   UNL     1       3.785   2.710  18.240  0.00  0.00    +0.000 C 
ATOM      8  C   UNL     1       4.397   3.448  19.461  0.00  0.00    +0.000 C 
ENDROOT
BRANCH   1   9
ATOM      9  O   UNL     1       5.660   3.906  16.487  0.00  0.00    +0.000 OA
BRANCH   9  11
ATOM     10  C   UNL     1       6.813   4.815  14.514  0.00  0.00    +0.000 C 
ATOM     11  C   UNL     1       6.812   4.382  15.944  0.00  0.00    +0.000 C 
ATOM     12  O   UNL     1       7.835   4.454  16.606  0.00  0.00    +0.000 OA
ENDBRANCH   9  11
ENDBRANCH   1   9
TORSDOF 2
ENDMDL
MODEL 6
REMARK VINA RESULT:      -5.4      0.974      1.810
REMARK  Name = 
REMARK  3 active torsions:
REMARK  status: ('A' for Active; 'I' for Inactive)
REMARK    1  A    between atoms: C_1  and  C_2
REMARK    2  A    between atoms: C_2  and  O_4
REMARK    3  A    between atoms: O_4  and  C_5
REMARK                            x       y       z     vdW  Elec       q    Type
REMARK                         _______ _______ _______ _____ _____    ______ ____
ROOT
ATOM      1  C   UNL     1       4.966   4.437  17.698  0.00  0.00    +0.000 C 
ATOM      2  C   UNL     1       4.146   5.719  18.064  0.00  0.00    +0.000 C 
ATOM      3  N   UNL     1       2.898   5.368  18.787  0.00  0.00    +0.000 NA
ATOM      4  C   UNL     1       2.002   4.620  17.870  0.00  0.00    +0.000 C 
ATOM      5  C   UNL     1       2.730   3.396  17.256  0.00  0.00    +0.000 C 
ATOM      6  C   UNL     1       4.079   3.201  17.981  0.00  0.00    +0.000 C 
ATOM      7  C   UNL     1       3.785   3.136  19.497  0.00  0.00    +0.000 C 
ATOM      8  C   UNL     1       3.240   4.516  19.954  0.00  0.00    +0.000 C 
ENDROOT
BRANCH   1   9
ATOM      9  O   UNL     1       6.129   4.329  18.447  0.00  0.00    +0.000 OA
BRANCH   9  11
ATOM     10  C   UNL     1       7.818   6.071  18.846  0.00  0.00    +0.000 C 
ATOM     11  C   UNL     1       7.331   4.865  18.110  0.00  0.00    +0.000 C 
ATOM     12  O   UNL     1       8.008   4.379  17.218  0.00  0.00    +0.000 OA
ENDBRANCH   9  11
ENDBRANCH   1   9
TORSDOF 2
ENDMDL
MODEL 7
REMARK VINA RESULT:      -5.4      2.633      4.131
REMARK  Name = 
REMARK  3 active torsions:
REMARK  status: ('A' for Active; 'I' for Inactive)
REMARK    1  A    between atoms: C_1  and  C_2
REMARK    2  A    between atoms: C_2  and  O_4
REMARK    3  A    between atoms: O_4  and  C_5
REMARK                            x       y       z     vdW  Elec       q    Type
REMARK                         _______ _______ _______ _____ _____    ______ ____
ROOT
ATOM      1  C   UNL     1       4.023   3.210  19.196  0.00  0.00    +0.000 C 
ATOM      2  C   UNL     1       3.778   4.714  19.554  0.00  0.00    +0.000 C 
ATOM      3  N   UNL     1       3.292   5.473  18.375  0.00  0.00    +0.000 NA
ATOM      4  C   UNL     1       4.367   5.521  17.354  0.00  0.00    +0.000 C 
ATOM      5  C   UNL     1       4.872   4.095  17.010  0.00  0.00    +0.000 C 
ATOM      6  C   UNL     1       3.927   3.061  17.659  0.00  0.00    +0.000 C 
ATOM      7  C   UNL     1       2.488   3.405  17.214  0.00  0.00    +0.000 C 
ATOM      8  C   UNL     1       2.102   4.784  17.814  0.00  0.00    +0.000 C 
ENDROOT
BRANCH   1   9
ATOM      9  O   UNL     1       3.085   2.373  19.783  0.00  0.00    +0.000 OA
BRANCH   9  11
ATOM     10  C   UNL     1       0.972   3.131  20.787  0.00  0.00    +0.000 C 
ATOM     11  C   UNL     1       2.382   2.653  20.912  0.00  0.00    +0.000 C 
ATOM     12  O   UNL     1       2.889   2.521  22.015  0.00  0.00    +0.000 OA
ENDBRANCH   9  11
ENDBRANCH   1   9
TORSDOF 2
ENDMDL
MODEL 8
REMARK VINA RESULT:      -5.4      0.959      1.347
REMARK  Name = 
REMARK  3 active torsions:
REMARK  status: ('A' for Active; 'I' for Inactive)
REMARK    1  A    between atoms: C_1  and  C_2
REMARK    2  A    between atoms: C_2  and  O_4
REMARK    3  A    between atoms: O_4  and  C_5
REMARK                            x       y       z     vdW  Elec       q    Type
REMARK                         _______ _______ _______ _____ _____    ______ ____
ROOT
ATOM      1  C   UNL     1       4.762   4.922  18.019  0.00  0.00    +0.000 C 
ATOM      2  C   UNL     1       4.339   5.309  19.476  0.00  0.00    +0.000 C 
ATOM      3  N   UNL     1       3.248   4.432  19.968  0.00  0.00    +0.000 NA
ATOM      4  C   UNL     1       2.026   4.682  19.165  0.00  0.00    +0.000 C 
ATOM      5  C   UNL     1       2.315   4.524  17.649  0.00  0.00    +0.000 C 
ATOM      6  C   UNL     1       3.722   3.916  17.469  0.00  0.00    +0.000 C 
ATOM      7  C   UNL     1       3.781   2.626  18.318  0.00  0.00    +0.000 C 
ATOM      8  C   UNL     1       3.663   3.014  19.816  0.00  0.00    +0.000 C 
ENDROOT
BRANCH   1   9
ATOM      9  O   UNL     1       6.016   4.331  17.977  0.00  0.00    +0.000 OA
BRANCH   9  11
ATOM     10  C   UNL     1       7.191   6.394  17.335  0.00  0.00    +0.000 C 
ATOM     11  C   UNL     1       7.136   4.906  17.466  0.00  0.00    +0.000 C 
ATOM     12  O   UNL     1       8.085   4.225  17.111  0.00  0.00    +0.000 OA
ENDBRANCH   9  11
ENDBRANCH   1   9
TORSDOF 2
ENDMDL
MODEL 9
REMARK VINA RESULT:      -5.3      1.692      2.358
REMARK  Name = 
REMARK  3 active torsions:
REMARK  status: ('A' for Active; 'I' for Inactive)
REMARK    1  A    between atoms: C_1  and  C_2
REMARK    2  A    between atoms: C_2  and  O_4
REMARK    3  A    between atoms: O_4  and  C_5
REMARK                            x       y       z     vdW  Elec       q    Type
REMARK                         _______ _______ _______ _____ _____    ______ ____
ROOT
ATOM      1  C   UNL     1       3.699   3.929  19.417  0.00  0.00    +0.000 C 
ATOM      2  C   UNL     1       3.280   2.562  20.056  0.00  0.00    +0.000 C 
ATOM      3  N   UNL     1       1.814   2.353  19.958  0.00  0.00    +0.000 NA
ATOM      4  C   UNL     1       1.123   3.364  20.796  0.00  0.00    +0.000 C 
ATOM      5  C   UNL     1       1.573   4.800  20.419  0.00  0.00    +0.000 C 
ATOM      6  C   UNL     1       2.411   4.737  19.124  0.00  0.00    +0.000 C 
ATOM      7  C   UNL     1       1.578   3.978  18.068  0.00  0.00    +0.000 C 
ATOM      8  C   UNL     1       1.397   2.511  18.542  0.00  0.00    +0.000 C 
ENDROOT
BRANCH   1   9
ATOM      9  O   UNL     1       4.396   3.760  18.230  0.00  0.00    +0.000 OA
BRANCH   9  11
ATOM     10  C   UNL     1       5.379   5.378  16.661  0.00  0.00    +0.000 C 
ATOM     11  C   UNL     1       5.484   4.480  17.851  0.00  0.00    +0.000 C 
ATOM     12  O   UNL     1       6.536   4.399  18.465  0.00  0.00    +0.000 OA
ENDBRANCH   9  11
ENDBRANCH   1   9
TORSDOF 2
ENDMDL
