MODEL 1
REMARK VINA RESULT:      -8.1      0.000      0.000
REMARK  Name = 
REMARK  5 active torsions:
REMARK  status: ('A' for Active; 'I' for Inactive)
REMARK    1  A    between atoms: C_1  and  O_2
REMARK    2  A    between atoms: O_2  and  C_3
REMARK    3  A    between atoms: C_6  and  N_7
REMARK    4  A    between atoms: C_16  and  C_17
REMARK    5  A    between atoms: C_24  and  C_25
REMARK                            x       y       z     vdW  Elec       q    Type
REMARK                         _______ _______ _______ _____ _____    ______ ____
ROOT
ATOM      1  N   UNL     1       2.670   5.774  18.985  0.00  0.00    +0.000 N 
ATOM      2  C   UNL     1       4.445   5.267  18.961  0.00  0.00    +0.000 C 
ATOM      3  O   UNL     1       5.247   5.661  19.813  0.00  0.00    +0.000 OA
ATOM      4  C   UNL     1       4.527   3.804  17.374  0.00  0.00    +0.000 C 
ATOM      5  C   UNL     1       5.299   3.962  16.059  0.00  0.00    +0.000 A 
ATOM      6  N   UNL     1       5.170   3.495  14.819  0.00  0.00    +0.000 N 
ATOM      7  C   UNL     1       6.172   4.100  14.112  0.00  0.00    +0.000 A 
ATOM      8  C   UNL     1       6.213   4.239  12.732  0.00  0.00    +0.000 A 
ATOM      9  C   UNL     1       7.260   4.956  12.195  0.00  0.00    +0.000 A 
ATOM     10  C   UNL     1       8.255   5.498  13.015  0.00  0.00    +0.000 A 
ATOM     11  C   UNL     1       9.388   6.194  12.310  0.00  0.00    +0.000 C 
ATOM     12  C   UNL     1       8.188   5.363  14.439  0.00  0.00    +0.000 A 
ATOM     13  C   UNL     1       7.115   4.639  15.033  0.00  0.00    +0.000 A 
ATOM     14  C   UNL     1       6.557   4.345  16.329  0.00  0.00    +0.000 A 
ATOM     15  C   UNL     1       6.293   4.648  17.814  0.00  0.00    +0.000 C 
ATOM     16  C   UNL     1       5.179   6.067  17.263  0.00  0.00    +0.000 C 
ATOM     17  C   UNL     1       3.446   5.275  17.417  0.00  0.00    +0.000 C 
ATOM     18  C   UNL     1       3.131   3.985  19.244  0.00  0.00    +0.000 C 
ATOM     19  C   UNL     1       2.487   4.420  20.787  0.00  0.00    +0.000 C 
ATOM     20  C   UNL     1       4.319   3.094  19.798  0.00  0.00    +0.000 C 
ATOM     21  C   UNL     1       5.039   3.193  18.533  0.00  0.00    +0.000 C 
ATOM     22  C   UNL     1       3.256   3.159  17.552  0.00  0.00    +0.000 C 
ATOM     23  C   UNL     1       1.769   4.540  17.977  0.00  0.00    +0.000 C 
ATOM     24  O   UNL     1       0.647   4.621  17.522  0.00  0.00    +0.000 OA
ATOM     25  H   UNL     1       4.430   2.922  14.439  0.00  0.00    +0.000 HD
ENDROOT
BRANCH   1  29
ATOM     26  C   UNL     1       0.745   9.428  19.099  0.00  0.00    +0.000 A 
ATOM     27  C   UNL     1       0.977   8.744  20.292  0.00  0.00    +0.000 A 
ATOM     28  C   UNL     1       1.890   7.683  20.336  0.00  0.00    +0.000 A 
ATOM     29  C   UNL     1       2.408   7.186  19.133  0.00  0.00    +0.000 A 
ATOM     30  C   UNL     1       2.236   7.923  17.957  0.00  0.00    +0.000 A 
ATOM     31  C   UNL     1       1.410   9.043  17.939  0.00  0.00    +0.000 A 
BRANCH  26  33
ATOM     32  C   UNL     1      -1.157  10.317  18.100  0.00  0.00    +0.000 C 
ATOM     33  O   UNL     1      -0.187  10.429  19.138  0.00  0.00    +0.000 OA
ENDBRANCH  26  33
ENDBRANCH   1  29
TORSDOF 2
ENDMDL
MODEL 2
REMARK VINA RESULT:      -8.1      7.321     12.086
REMARK  Name = 
REMARK  5 active torsions:
REMARK  status: ('A' for Active; 'I' for Inactive)
REMARK    1  A    between atoms: C_1  and  O_2
REMARK    2  A    between atoms: O_2  and  C_3
REMARK    3  A    between atoms: C_6  and  N_7
REMARK    4  A    between atoms: C_16  and  C_17
REMARK    5  A    between atoms: C_24  and  C_25
REMARK                            x       y       z     vdW  Elec       q    Type
REMARK                         _______ _______ _______ _____ _____    ______ ____
ROOT
ATOM      1  N   UNL     1      -5.838  13.785  22.633  0.00  0.00    +0.000 N 
ATOM      2  C   UNL     1      -4.175  14.382  22.096  0.00  0.00    +0.000 C 
ATOM      3  O   UNL     1      -4.043  15.349  21.341  0.00  0.00    +0.000 OA
ATOM      4  C   UNL     1      -2.810  13.178  23.259  0.00  0.00    +0.000 C 
ATOM      5  C   UNL     1      -1.829  12.146  22.689  0.00  0.00    +0.000 A 
ATOM      6  N   UNL     1      -1.260  11.028  23.135  0.00  0.00    +0.000 N 
ATOM      7  C   UNL     1      -0.539  10.556  22.073  0.00  0.00    +0.000 A 
ATOM      8  C   UNL     1      -0.099   9.249  21.916  0.00  0.00    +0.000 A 
ATOM      9  C   UNL     1       0.542   8.931  20.739  0.00  0.00    +0.000 A 
ATOM     10  C   UNL     1       0.760   9.900  19.755  0.00  0.00    +0.000 A 
ATOM     11  C   UNL     1       1.538   9.453  18.546  0.00  0.00    +0.000 C 
ATOM     12  C   UNL     1       0.284  11.240  19.924  0.00  0.00    +0.000 A 
ATOM     13  C   UNL     1      -0.394  11.605  21.122  0.00  0.00    +0.000 A 
ATOM     14  C   UNL     1      -1.131  12.707  21.688  0.00  0.00    +0.000 A 
ATOM     15  C   UNL     1      -2.008  13.967  21.597  0.00  0.00    +0.000 C 
ATOM     16  C   UNL     1      -3.419  12.866  21.003  0.00  0.00    +0.000 C 
ATOM     17  C   UNL     1      -4.428  12.634  22.610  0.00  0.00    +0.000 C 
ATOM     18  C   UNL     1      -4.647  14.482  23.889  0.00  0.00    +0.000 C 
ATOM     19  C   UNL     1      -5.912  15.660  23.895  0.00  0.00    +0.000 C 
ATOM     20  C   UNL     1      -3.450  15.514  24.001  0.00  0.00    +0.000 C 
ATOM     21  C   UNL     1      -2.497  14.525  23.510  0.00  0.00    +0.000 C 
ATOM     22  C   UNL     1      -3.539  13.080  24.493  0.00  0.00    +0.000 C 
ATOM     23  C   UNL     1      -5.563  12.789  24.145  0.00  0.00    +0.000 C 
ATOM     24  O   UNL     1      -6.327  12.014  24.680  0.00  0.00    +0.000 OA
ATOM     25  H   UNL     1      -1.416  10.553  24.012  0.00  0.00    +0.000 HD
ENDROOT
BRANCH   1  29
ATOM     26  C   UNL     1      -7.657  13.599  18.929  0.00  0.00    +0.000 A 
ATOM     27  C   UNL     1      -7.182  12.425  19.513  0.00  0.00    +0.000 A 
ATOM     28  C   UNL     1      -6.858  12.391  20.875  0.00  0.00    +0.000 A 
ATOM     29  C   UNL     1      -6.818  13.594  21.591  0.00  0.00    +0.000 A 
ATOM     30  C   UNL     1      -7.370  14.747  21.024  0.00  0.00    +0.000 A 
ATOM     31  C   UNL     1      -7.792  14.751  19.698  0.00  0.00    +0.000 A 
BRANCH  26  33
ATOM     32  C   UNL     1      -6.825  13.032  16.832  0.00  0.00    +0.000 C 
ATOM     33  O   UNL     1      -7.917  13.553  17.586  0.00  0.00    +0.000 OA
ENDBRANCH  26  33
ENDBRANCH   1  29
TORSDOF 2
ENDMDL
MODEL 3
REMARK VINA RESULT:      -8.0      4.552      8.641
REMARK  Name = 
REMARK  5 active torsions:
REMARK  status: ('A' for Active; 'I' for Inactive)
REMARK    1  A    between atoms: C_1  and  O_2
REMARK    2  A    between atoms: O_2  and  C_3
REMARK    3  A    between atoms: C_6  and  N_7
REMARK    4  A    between atoms: C_16  and  C_17
REMARK    5  A    between atoms: C_24  and  C_25
REMARK                            x       y       z     vdW  Elec       q    Type
REMARK                         _______ _______ _______ _____ _____    ______ ____
ROOT
ATOM      1  N   UNL     1      -2.416  12.280  20.028  0.00  0.00    +0.000 N 
ATOM      2  C   UNL     1      -0.878  12.047  19.035  0.00  0.00    +0.000 C 
ATOM      3  O   UNL     1      -0.767  12.494  17.890  0.00  0.00    +0.000 OA
ATOM      4  C   UNL     1       0.488  11.127  20.434  0.00  0.00    +0.000 C 
ATOM      5  C   UNL     1       1.057   9.709  20.317  0.00  0.00    +0.000 A 
ATOM      6  N   UNL     1       1.495   8.787  21.172  0.00  0.00    +0.000 N 
ATOM      7  C   UNL     1       1.795   7.703  20.394  0.00  0.00    +0.000 A 
ATOM      8  C   UNL     1       1.912   6.396  20.845  0.00  0.00    +0.000 A 
ATOM      9  C   UNL     1       2.136   5.416  19.903  0.00  0.00    +0.000 A 
ATOM     10  C   UNL     1       2.265   5.738  18.548  0.00  0.00    +0.000 A 
ATOM     11  C   UNL     1       2.585   4.593  17.624  0.00  0.00    +0.000 C 
ATOM     12  C   UNL     1       2.124   7.089  18.097  0.00  0.00    +0.000 A 
ATOM     13  C   UNL     1       1.880   8.129  19.039  0.00  0.00    +0.000 A 
ATOM     14  C   UNL     1       1.554   9.532  19.083  0.00  0.00    +0.000 A 
ATOM     15  C   UNL     1       0.949  10.823  18.505  0.00  0.00    +0.000 C 
ATOM     16  C   UNL     1      -0.757  10.056  18.742  0.00  0.00    +0.000 C 
ATOM     17  C   UNL     1      -1.319  10.871  20.378  0.00  0.00    +0.000 C 
ATOM     18  C   UNL     1      -0.819  13.063  20.589  0.00  0.00    +0.000 C 
ATOM     19  C   UNL     1      -1.778  14.443  20.189  0.00  0.00    +0.000 C 
ATOM     20  C   UNL     1       0.542  13.624  20.002  0.00  0.00    +0.000 C 
ATOM     21  C   UNL     1       1.115  12.284  19.936  0.00  0.00    +0.000 C 
ATOM     22  C   UNL     1       0.115  11.807  21.643  0.00  0.00    +0.000 C 
ATOM     23  C   UNL     1      -1.944  12.019  21.778  0.00  0.00    +0.000 C 
ATOM     24  O   UNL     1      -2.672  11.828  22.729  0.00  0.00    +0.000 OA
ATOM     25  H   UNL     1       1.492   8.817  22.182  0.00  0.00    +0.000 HD
ENDROOT
BRANCH   1  29
ATOM     26  C   UNL     1      -5.835  12.550  17.724  0.00  0.00    +0.000 A 
ATOM     27  C   UNL     1      -4.708  11.920  17.198  0.00  0.00    +0.000 A 
ATOM     28  C   UNL     1      -3.658  11.526  18.036  0.00  0.00    +0.000 A 
ATOM     29  C   UNL     1      -3.660  11.956  19.370  0.00  0.00    +0.000 A 
ATOM     30  C   UNL     1      -4.824  12.514  19.907  0.00  0.00    +0.000 A 
ATOM     31  C   UNL     1      -5.910  12.808  19.090  0.00  0.00    +0.000 A 
BRANCH  26  33
ATOM     32  C   UNL     1      -6.880  14.346  16.680  0.00  0.00    +0.000 C 
ATOM     33  O   UNL     1      -6.798  12.931  16.830  0.00  0.00    +0.000 OA
ENDBRANCH  26  33
ENDBRANCH   1  29
TORSDOF 2
ENDMDL
MODEL 4
REMARK VINA RESULT:      -7.9      4.552      8.423
REMARK  Name = 
REMARK  5 active torsions:
REMARK  status: ('A' for Active; 'I' for Inactive)
REMARK    1  A    between atoms: C_1  and  O_2
REMARK    2  A    between atoms: O_2  and  C_3
REMARK    3  A    between atoms: C_6  and  N_7
REMARK    4  A    between atoms: C_16  and  C_17
REMARK    5  A    between atoms: C_24  and  C_25
REMARK                            x       y       z     vdW  Elec       q    Type
REMARK                         _______ _______ _______ _____ _____    ______ ____
ROOT
ATOM      1  N   UNL     1      -2.069  12.464  20.014  0.00  0.00    +0.000 N 
ATOM      2  C   UNL     1      -0.482  12.162  19.119  0.00  0.00    +0.000 C 
ATOM      3  O   UNL     1      -0.255  12.656  18.011  0.00  0.00    +0.000 OA
ATOM      4  C   UNL     1       0.704  11.068  20.555  0.00  0.00    +0.000 C 
ATOM      5  C   UNL     1       1.173   9.617  20.399  0.00  0.00    +0.000 A 
ATOM      6  N   UNL     1       1.476   8.622  21.229  0.00  0.00    +0.000 N 
ATOM      7  C   UNL     1       1.752   7.559  20.414  0.00  0.00    +0.000 A 
ATOM      8  C   UNL     1       1.737   6.225  20.797  0.00  0.00    +0.000 A 
ATOM      9  C   UNL     1       1.956   5.279  19.820  0.00  0.00    +0.000 A 
ATOM     10  C   UNL     1       2.208   5.658  18.497  0.00  0.00    +0.000 A 
ATOM     11  C   UNL     1       2.509   4.541  17.535  0.00  0.00    +0.000 C 
ATOM     12  C   UNL     1       2.202   7.038  18.114  0.00  0.00    +0.000 A 
ATOM     13  C   UNL     1       1.968   8.044  19.094  0.00  0.00    +0.000 A 
ATOM     14  C   UNL     1       1.745   9.465  19.194  0.00  0.00    +0.000 A 
ATOM     15  C   UNL     1       1.282  10.827  18.649  0.00  0.00    +0.000 C 
ATOM     16  C   UNL     1      -0.490  10.185  18.724  0.00  0.00    +0.000 C 
ATOM     17  C   UNL     1      -1.108  10.957  20.359  0.00  0.00    +0.000 C 
ATOM     18  C   UNL     1      -0.462  13.090  20.727  0.00  0.00    +0.000 C 
ATOM     19  C   UNL     1      -1.284  14.560  20.340  0.00  0.00    +0.000 C 
ATOM     20  C   UNL     1       0.976  13.571  20.269  0.00  0.00    +0.000 C 
ATOM     21  C   UNL     1       1.450  12.195  20.168  0.00  0.00    +0.000 C 
ATOM     22  C   UNL     1       0.295  11.713  21.772  0.00  0.00    +0.000 C 
ATOM     23  C   UNL     1      -1.747  12.078  21.775  0.00  0.00    +0.000 C 
ATOM     24  O   UNL     1      -2.555  11.898  22.661  0.00  0.00    +0.000 OA
ATOM     25  H   UNL     1       1.402   8.601  22.236  0.00  0.00    +0.000 HD
ENDROOT
BRANCH   1  29
ATOM     26  C   UNL     1      -5.627  10.905  18.609  0.00  0.00    +0.000 A 
ATOM     27  C   UNL     1      -5.659  11.966  19.513  0.00  0.00    +0.000 A 
ATOM     28  C   UNL     1      -4.507  12.722  19.762  0.00  0.00    +0.000 A 
ATOM     29  C   UNL     1      -3.281  12.273  19.254  0.00  0.00    +0.000 A 
ATOM     30  C   UNL     1      -3.269  11.261  18.289  0.00  0.00    +0.000 A 
ATOM     31  C   UNL     1      -4.438  10.580  17.963  0.00  0.00    +0.000 A 
BRANCH  26  33
ATOM     32  C   UNL     1      -7.099   9.391  19.584  0.00  0.00    +0.000 C 
ATOM     33  O   UNL     1      -6.789  10.199  18.452  0.00  0.00    +0.000 OA
ENDBRANCH  26  33
ENDBRANCH   1  29
TORSDOF 2
ENDMDL
MODEL 5
REMARK VINA RESULT:      -7.4      0.820      1.182
REMARK  Name = 
REMARK  5 active torsions:
REMARK  status: ('A' for Active; 'I' for Inactive)
REMARK    1  A    between atoms: C_1  and  O_2
REMARK    2  A    between atoms: O_2  and  C_3
REMARK    3  A    between atoms: C_6  and  N_7
REMARK    4  A    between atoms: C_16  and  C_17
REMARK    5  A    between atoms: C_24  and  C_25
REMARK                            x       y       z     vdW  Elec       q    Type
REMARK                         _______ _______ _______ _____ _____    ______ ____
ROOT
ATOM      1  N   UNL     1       2.332   5.224  19.003  0.00  0.00    +0.000 N 
ATOM      2  C   UNL     1       4.178   5.196  18.988  0.00  0.00    +0.000 C 
ATOM      3  O   UNL     1       4.847   5.921  19.729  0.00  0.00    +0.000 OA
ATOM      4  C   UNL     1       4.644   3.559  17.657  0.00  0.00    +0.000 C 
ATOM      5  C   UNL     1       5.350   3.689  16.303  0.00  0.00    +0.000 A 
ATOM      6  N   UNL     1       5.351   3.003  15.162  0.00  0.00    +0.000 N 
ATOM      7  C   UNL     1       6.161   3.719  14.324  0.00  0.00    +0.000 A 
ATOM      8  C   UNL     1       6.167   3.630  12.939  0.00  0.00    +0.000 A 
ATOM      9  C   UNL     1       6.991   4.493  12.250  0.00  0.00    +0.000 A 
ATOM     10  C   UNL     1       7.807   5.403  12.929  0.00  0.00    +0.000 A 
ATOM     11  C   UNL     1       8.720   6.239  12.073  0.00  0.00    +0.000 C 
ATOM     12  C   UNL     1       7.775   5.496  14.357  0.00  0.00    +0.000 A 
ATOM     13  C   UNL     1       6.928   4.629  15.105  0.00  0.00    +0.000 A 
ATOM     14  C   UNL     1       6.464   4.424  16.454  0.00  0.00    +0.000 A 
ATOM     15  C   UNL     1       6.126   4.892  17.880  0.00  0.00    +0.000 C 
ATOM     16  C   UNL     1       4.681   5.862  17.152  0.00  0.00    +0.000 C 
ATOM     17  C   UNL     1       3.215   4.687  17.506  0.00  0.00    +0.000 C 
ATOM     18  C   UNL     1       3.245   3.684  19.529  0.00  0.00    +0.000 C 
ATOM     19  C   UNL     1       2.506   4.190  21.007  0.00  0.00    +0.000 C 
ATOM     20  C   UNL     1       4.623   3.236  20.170  0.00  0.00    +0.000 C 
ATOM     21  C   UNL     1       5.295   3.304  18.877  0.00  0.00    +0.000 C 
ATOM     22  C   UNL     1       3.585   2.647  17.990  0.00  0.00    +0.000 C 
ATOM     23  C   UNL     1       1.788   3.648  18.247  0.00  0.00    +0.000 C 
ATOM     24  O   UNL     1       0.685   3.359  17.832  0.00  0.00    +0.000 OA
ATOM     25  H   UNL     1       4.787   2.203  14.911  0.00  0.00    +0.000 HD
ENDROOT
BRANCH   1  29
ATOM     26  C   UNL     1       1.759   9.315  18.967  0.00  0.00    +0.000 A 
ATOM     27  C   UNL     1       1.832   8.628  17.756  0.00  0.00    +0.000 A 
ATOM     28  C   UNL     1       1.703   7.234  17.722  0.00  0.00    +0.000 A 
ATOM     29  C   UNL     1       1.710   6.524  18.930  0.00  0.00    +0.000 A 
ATOM     30  C   UNL     1       1.557   7.220  20.133  0.00  0.00    +0.000 A 
ATOM     31  C   UNL     1       1.577   8.611  20.154  0.00  0.00    +0.000 A 
BRANCH  26  33
ATOM     32  C   UNL     1       0.693  11.379  18.852  0.00  0.00    +0.000 C 
ATOM     33  O   UNL     1       1.929  10.672  18.912  0.00  0.00    +0.000 OA
ENDBRANCH  26  33
ENDBRANCH   1  29
TORSDOF 2
ENDMDL
MODEL 6
REMARK VINA RESULT:      -7.4      9.015     10.508
REMARK  Name = 
REMARK  5 active torsions:
REMARK  status: ('A' for Active; 'I' for Inactive)
REMARK    1  A    between atoms: C_1  and  O_2
REMARK    2  A    between atoms: O_2  and  C_3
REMARK    3  A    between atoms: C_6  and  N_7
REMARK    4  A    between atoms: C_16  and  C_17
REMARK    5  A    between atoms: C_24  and  C_25
REMARK                            x       y       z     vdW  Elec       q    Type
REMARK                         _______ _______ _______ _____ _____    ______ ____
ROOT
ATOM      1  N   UNL     1       5.627  14.319  23.481  0.00  0.00    +0.000 N 
ATOM      2  C   UNL     1       7.232  15.169  23.149  0.00  0.00    +0.000 C 
ATOM      3  O   UNL     1       7.321  16.400  23.106  0.00  0.00    +0.000 OA
ATOM      4  C   UNL     1       8.663  13.551  23.137  0.00  0.00    +0.000 C 
ATOM      5  C   UNL     1       9.477  13.094  21.921  0.00  0.00    +0.000 A 
ATOM      6  N   UNL     1      10.024  11.949  21.520  0.00  0.00    +0.000 N 
ATOM      7  C   UNL     1      10.550  12.226  20.288  0.00  0.00    +0.000 A 
ATOM      8  C   UNL     1      10.870  11.285  19.319  0.00  0.00    +0.000 A 
ATOM      9  C   UNL     1      11.310  11.751  18.100  0.00  0.00    +0.000 A 
ATOM     10  C   UNL     1      11.451  13.122  17.864  0.00  0.00    +0.000 A 
ATOM     11  C   UNL     1      12.013  13.508  16.522  0.00  0.00    +0.000 C 
ATOM     12  C   UNL     1      11.099  14.081  18.867  0.00  0.00    +0.000 A 
ATOM     13  C   UNL     1      10.629  13.638  20.136  0.00  0.00    +0.000 A 
ATOM     14  C   UNL     1      10.060  14.162  21.353  0.00  0.00    +0.000 A 
ATOM     15  C   UNL     1       9.269  15.200  22.167  0.00  0.00    +0.000 C 
ATOM     16  C   UNL     1       7.713  14.629  21.267  0.00  0.00    +0.000 C 
ATOM     17  C   UNL     1       6.934  13.454  22.558  0.00  0.00    +0.000 C 
ATOM     18  C   UNL     1       7.032  14.166  24.699  0.00  0.00    +0.000 C 
ATOM     19  C   UNL     1       5.867  15.069  25.601  0.00  0.00    +0.000 C 
ATOM     20  C   UNL     1       8.302  14.963  25.210  0.00  0.00    +0.000 C 
ATOM     21  C   UNL     1       9.103  14.492  24.085  0.00  0.00    +0.000 C 
ATOM     22  C   UNL     1       8.115  12.715  24.168  0.00  0.00    +0.000 C 
ATOM     23  C   UNL     1       6.047  12.628  24.040  0.00  0.00    +0.000 C 
ATOM     24  O   UNL     1       5.315  11.663  24.123  0.00  0.00    +0.000 OA
ATOM     25  H   UNL     1       9.964  11.039  21.955  0.00  0.00    +0.000 HD
ENDROOT
BRANCH   1  29
ATOM     26  C   UNL     1       3.313  16.173  20.603  0.00  0.00    +0.000 A 
ATOM     27  C   UNL     1       3.658  14.832  20.438  0.00  0.00    +0.000 A 
ATOM     28  C   UNL     1       4.155  14.089  21.516  0.00  0.00    +0.000 A 
ATOM     29  C   UNL     1       4.495  14.758  22.700  0.00  0.00    +0.000 A 
ATOM     30  C   UNL     1       4.073  16.078  22.885  0.00  0.00    +0.000 A 
ATOM     31  C   UNL     1       3.480  16.784  21.842  0.00  0.00    +0.000 A 
BRANCH  26  33
ATOM     32  C   UNL     1       3.434  16.322  18.286  0.00  0.00    +0.000 C 
ATOM     33  O   UNL     1       2.868  16.832  19.490  0.00  0.00    +0.000 OA
ENDBRANCH  26  33
ENDBRANCH   1  29
TORSDOF 2
ENDMDL
MODEL 7
REMARK VINA RESULT:      -7.3      9.052     11.430
REMARK  Name = 
REMARK  5 active torsions:
REMARK  status: ('A' for Active; 'I' for Inactive)
REMARK    1  A    between atoms: C_1  and  O_2
REMARK    2  A    between atoms: O_2  and  C_3
REMARK    3  A    between atoms: C_6  and  N_7
REMARK    4  A    between atoms: C_16  and  C_17
REMARK    5  A    between atoms: C_24  and  C_25
REMARK                            x       y       z     vdW  Elec       q    Type
REMARK                         _______ _______ _______ _____ _____    ______ ____
ROOT
ATOM      1  N   UNL     1      -0.794  15.800  21.686  0.00  0.00    +0.000 N 
ATOM      2  C   UNL     1      -0.517  13.984  21.498  0.00  0.00    +0.000 C 
ATOM      3  O   UNL     1       0.593  13.473  21.670  0.00  0.00    +0.000 OA
ATOM      4  C   UNL     1      -2.508  13.201  21.197  0.00  0.00    +0.000 C 
ATOM      5  C   UNL     1      -3.013  12.529  19.915  0.00  0.00    +0.000 A 
ATOM      6  N   UNL     1      -4.195  12.390  19.318  0.00  0.00    +0.000 N 
ATOM      7  C   UNL     1      -3.920  11.733  18.150  0.00  0.00    +0.000 A 
ATOM      8  C   UNL     1      -4.740  11.704  17.030  0.00  0.00    +0.000 A 
ATOM      9  C   UNL     1      -4.262  11.063  15.908  0.00  0.00    +0.000 A 
ATOM     10  C   UNL     1      -3.008  10.444  15.914  0.00  0.00    +0.000 A 
ATOM     11  C   UNL     1      -2.627   9.709  14.656  0.00  0.00    +0.000 C 
ATOM     12  C   UNL     1      -2.166  10.499  17.071  0.00  0.00    +0.000 A 
ATOM     13  C   UNL     1      -2.620  11.162  18.246  0.00  0.00    +0.000 A 
ATOM     14  C   UNL     1      -2.139  11.582  19.539  0.00  0.00    +0.000 A 
ATOM     15  C   UNL     1      -1.040  12.010  20.526  0.00  0.00    +0.000 C 
ATOM     16  C   UNL     1      -0.874  13.614  19.548  0.00  0.00    +0.000 C 
ATOM     17  C   UNL     1      -1.898  14.823  20.619  0.00  0.00    +0.000 C 
ATOM     18  C   UNL     1      -1.629  14.604  22.851  0.00  0.00    +0.000 C 
ATOM     19  C   UNL     1      -0.537  15.434  23.903  0.00  0.00    +0.000 C 
ATOM     20  C   UNL     1      -1.422  13.167  23.486  0.00  0.00    +0.000 C 
ATOM     21  C   UNL     1      -1.951  12.517  22.292  0.00  0.00    +0.000 C 
ATOM     22  C   UNL     1      -3.258  14.061  22.070  0.00  0.00    +0.000 C 
ATOM     23  C   UNL     1      -2.594  16.022  21.940  0.00  0.00    +0.000 C 
ATOM     24  O   UNL     1      -3.241  17.045  21.858  0.00  0.00    +0.000 OA
ATOM     25  H   UNL     1      -5.085  12.784  19.588  0.00  0.00    +0.000 HD
ENDROOT
BRANCH   1  29
ATOM     26  C   UNL     1       2.162  17.176  19.150  0.00  0.00    +0.000 A 
ATOM     27  C   UNL     1       0.825  17.344  18.790  0.00  0.00    +0.000 A 
ATOM     28  C   UNL     1      -0.190  17.190  19.742  0.00  0.00    +0.000 A 
ATOM     29  C   UNL     1       0.135  16.665  21.000  0.00  0.00    +0.000 A 
ATOM     30  C   UNL     1       1.478  16.576  21.378  0.00  0.00    +0.000 A 
ATOM     31  C   UNL     1       2.490  16.834  20.459  0.00  0.00    +0.000 A 
BRANCH  26  33
ATOM     32  C   UNL     1       3.410  16.070  17.528  0.00  0.00    +0.000 C 
ATOM     33  O   UNL     1       3.087  17.311  18.150  0.00  0.00    +0.000 OA
ENDBRANCH  26  33
ENDBRANCH   1  29
TORSDOF 2
ENDMDL
MODEL 8
REMARK VINA RESULT:      -7.3      7.830     11.935
REMARK  Name = 
REMARK  5 active torsions:
REMARK  status: ('A' for Active; 'I' for Inactive)
REMARK    1  A    between atoms: C_1  and  O_2
REMARK    2  A    between atoms: O_2  and  C_3
REMARK    3  A    between atoms: C_6  and  N_7
REMARK    4  A    between atoms: C_16  and  C_17
REMARK    5  A    between atoms: C_24  and  C_25
REMARK                            x       y       z     vdW  Elec       q    Type
REMARK                         _______ _______ _______ _____ _____    ______ ____
ROOT
ATOM      1  N   UNL     1       1.625  13.918  19.427  0.00  0.00    +0.000 N 
ATOM      2  C   UNL     1       0.006  13.166  18.954  0.00  0.00    +0.000 C 
ATOM      3  O   UNL     1      -0.492  13.339  17.838  0.00  0.00    +0.000 OA
ATOM      4  C   UNL     1      -0.470  11.900  20.639  0.00  0.00    +0.000 C 
ATOM      5  C   UNL     1      -1.656  12.097  21.590  0.00  0.00    +0.000 A 
ATOM      6  N   UNL     1      -1.913  11.800  22.862  0.00  0.00    +0.000 N 
ATOM      7  C   UNL     1      -3.150  12.333  23.102  0.00  0.00    +0.000 A 
ATOM      8  C   UNL     1      -3.672  12.623  24.355  0.00  0.00    +0.000 A 
ATOM      9  C   UNL     1      -4.904  13.239  24.403  0.00  0.00    +0.000 A 
ATOM     10  C   UNL     1      -5.607  13.533  23.230  0.00  0.00    +0.000 A 
ATOM     11  C   UNL     1      -6.974  14.135  23.412  0.00  0.00    +0.000 C 
ATOM     12  C   UNL     1      -5.045  13.244  21.945  0.00  0.00    +0.000 A 
ATOM     13  C   UNL     1      -3.769  12.619  21.853  0.00  0.00    +0.000 A 
ATOM     14  C   UNL     1      -2.777  12.261  20.871  0.00  0.00    +0.000 A 
ATOM     15  C   UNL     1      -2.054  12.424  19.523  0.00  0.00    +0.000 C 
ATOM     16  C   UNL     1      -1.338  14.043  20.175  0.00  0.00    +0.000 C 
ATOM     17  C   UNL     1       0.412  13.497  20.717  0.00  0.00    +0.000 C 
ATOM     18  C   UNL     1       1.455  12.063  19.319  0.00  0.00    +0.000 C 
ATOM     19  C   UNL     1       2.542  12.404  18.019  0.00  0.00    +0.000 C 
ATOM     20  C   UNL     1       0.620  10.952  18.557  0.00  0.00    +0.000 C 
ATOM     21  C   UNL     1      -0.494  11.092  19.489  0.00  0.00    +0.000 C 
ATOM     22  C   UNL     1       0.841  11.429  20.986  0.00  0.00    +0.000 C 
ATOM     23  C   UNL     1       2.243  12.952  20.854  0.00  0.00    +0.000 C 
ATOM     24  O   UNL     1       3.129  13.246  21.629  0.00  0.00    +0.000 OA
ATOM     25  H   UNL     1      -1.295  11.388  23.547  0.00  0.00    +0.000 HD
ENDROOT
BRANCH   1  29
ATOM     26  C   UNL     1       1.666  17.568  17.493  0.00  0.00    +0.000 A 
ATOM     27  C   UNL     1       0.586  17.246  18.313  0.00  0.00    +0.000 A 
ATOM     28  C   UNL     1       0.677  16.184  19.222  0.00  0.00    +0.000 A 
ATOM     29  C   UNL     1       1.783  15.326  19.152  0.00  0.00    +0.000 A 
ATOM     30  C   UNL     1       2.892  15.700  18.387  0.00  0.00    +0.000 A 
ATOM     31  C   UNL     1       2.837  16.819  17.562  0.00  0.00    +0.000 A 
BRANCH  26  33
ATOM     32  C   UNL     1       0.158  18.631  16.076  0.00  0.00    +0.000 C 
ATOM     33  O   UNL     1       1.479  18.597  16.610  0.00  0.00    +0.000 OA
ENDBRANCH  26  33
ENDBRANCH   1  29
TORSDOF 2
ENDMDL
MODEL 9
REMARK VINA RESULT:      -7.2      8.962     10.493
REMARK  Name = 
REMARK  5 active torsions:
REMARK  status: ('A' for Active; 'I' for Inactive)
REMARK    1  A    between atoms: C_1  and  O_2
REMARK    2  A    between atoms: O_2  and  C_3
REMARK    3  A    between atoms: C_6  and  N_7
REMARK    4  A    between atoms: C_16  and  C_17
REMARK    5  A    between atoms: C_24  and  C_25
REMARK                            x       y       z     vdW  Elec       q    Type
REMARK                         _______ _______ _______ _____ _____    ______ ____
ROOT
ATOM      1  N   UNL     1       5.686  14.562  23.228  0.00  0.00    +0.000 N 
ATOM      2  C   UNL     1       7.306  15.393  22.922  0.00  0.00    +0.000 C 
ATOM      3  O   UNL     1       7.403  16.620  22.830  0.00  0.00    +0.000 OA
ATOM      4  C   UNL     1       8.731  13.772  23.035  0.00  0.00    +0.000 C 
ATOM      5  C   UNL     1       9.589  13.262  21.872  0.00  0.00    +0.000 A 
ATOM      6  N   UNL     1      10.146  12.099  21.542  0.00  0.00    +0.000 N 
ATOM      7  C   UNL     1      10.720  12.321  20.320  0.00  0.00    +0.000 A 
ATOM      8  C   UNL     1      11.073  11.339  19.406  0.00  0.00    +0.000 A 
ATOM      9  C   UNL     1      11.562  11.751  18.186  0.00  0.00    +0.000 A 
ATOM     10  C   UNL     1      11.718  13.111  17.897  0.00  0.00    +0.000 A 
ATOM     11  C   UNL     1      12.333  13.437  16.562  0.00  0.00    +0.000 C 
ATOM     12  C   UNL     1      11.331  14.112  18.844  0.00  0.00    +0.000 A 
ATOM     13  C   UNL     1      10.811  13.726  20.112  0.00  0.00    +0.000 A 
ATOM     14  C   UNL     1      10.198  14.302  21.282  0.00  0.00    +0.000 A 
ATOM     15  C   UNL     1       9.381  15.377  22.020  0.00  0.00    +0.000 C 
ATOM     16  C   UNL     1       7.858  14.771  21.085  0.00  0.00    +0.000 C 
ATOM     17  C   UNL     1       7.024  13.654  22.394  0.00  0.00    +0.000 C 
ATOM     18  C   UNL     1       7.042  14.457  24.504  0.00  0.00    +0.000 C 
ATOM     19  C   UNL     1       5.848  15.401  25.321  0.00  0.00    +0.000 C 
ATOM     20  C   UNL     1       8.295  15.273  25.030  0.00  0.00    +0.000 C 
ATOM     21  C   UNL     1       9.137  14.752  23.959  0.00  0.00    +0.000 C 
ATOM     22  C   UNL     1       8.139  12.982  24.079  0.00  0.00    +0.000 C 
ATOM     23  C   UNL     1       6.077  12.895  23.875  0.00  0.00    +0.000 C 
ATOM     24  O   UNL     1       5.339  11.937  23.970  0.00  0.00    +0.000 OA
ATOM     25  H   UNL     1      10.065  11.208  22.013  0.00  0.00    +0.000 HD
ENDROOT
BRANCH   1  29
ATOM     26  C   UNL     1       1.903  14.971  21.619  0.00  0.00    +0.000 A 
ATOM     27  C   UNL     1       2.389  15.960  22.474  0.00  0.00    +0.000 A 
ATOM     28  C   UNL     1       3.754  16.026  22.779  0.00  0.00    +0.000 A 
ATOM     29  C   UNL     1       4.587  14.970  22.385  0.00  0.00    +0.000 A 
ATOM     30  C   UNL     1       4.112  14.030  21.466  0.00  0.00    +0.000 A 
ATOM     31  C   UNL     1       2.776  14.031  21.079  0.00  0.00    +0.000 A 
BRANCH  26  33
ATOM     32  C   UNL     1      -0.179  15.590  22.449  0.00  0.00    +0.000 C 
ATOM     33  O   UNL     1       0.552  14.959  21.402  0.00  0.00    +0.000 OA
ENDBRANCH  26  33
ENDBRANCH   1  29
TORSDOF 2
ENDMDL
