MODEL 1
REMARK VINA RESULT:      -7.8      0.000      0.000
REMARK  Name = 
REMARK  10 active torsions:
REMARK  status: ('A' for Active; 'I' for Inactive)
REMARK    1  A    between atoms: C_1  and  N_2
REMARK    2  A    between atoms: N_2  and  C_3
REMARK    3  A    between atoms: N_2  and  C_4
REMARK    4  A    between atoms: C_4  and  C_5
REMARK    5  A    between atoms: C_6  and  C_7
REMARK    6  A    between atoms: N_9  and  C_10
REMARK    7  A    between atoms: C_13  and  C_14
REMARK    8  A    between atoms: C_18  and  C_19
REMARK    9  A    between atoms: C_21  and  N_22
REMARK   10  A    between atoms: N_22  and  C_23
REMARK                            x       y       z     vdW  Elec       q    Type
REMARK                         _______ _______ _______ _____ _____    ______ ____
ROOT
ATOM      1  C   UNL     1       1.997   5.148  19.993  0.00  0.00    +0.000 A 
ATOM      2  C   UNL     1       0.817   4.391  20.133  0.00  0.00    +0.000 A 
ATOM      3  N   UNL     1       0.739   3.055  20.313  0.00  0.00    +0.000 NA
ATOM      4  C   UNL     1       1.909   2.398  20.363  0.00  0.00    +0.000 A 
ATOM      5  C   UNL     1       3.148   3.014  20.235  0.00  0.00    +0.000 A 
ATOM      6  C   UNL     1       3.212   4.414  20.038  0.00  0.00    +0.000 A 
ENDROOT
BRANCH   1  10
ATOM      7  C   UNL     1       1.493   9.451  19.583  0.00  0.00    +0.000 A 
ATOM      8  C   UNL     1       1.158   8.778  20.754  0.00  0.00    +0.000 A 
ATOM      9  C   UNL     1       1.365   7.404  20.880  0.00  0.00    +0.000 A 
ATOM     10  C   UNL     1       1.869   6.623  19.825  0.00  0.00    +0.000 A 
ATOM     11  C   UNL     1       2.171   7.309  18.636  0.00  0.00    +0.000 A 
ATOM     12  C   UNL     1       1.999   8.703  18.517  0.00  0.00    +0.000 A 
BRANCH   7  15
ATOM     13  C   UNL     1       0.262  11.432  18.754  0.00  0.00    +0.000 C 
ATOM     14  O   UNL     1      -0.717  10.849  18.298  0.00  0.00    +0.000 OA
ATOM     15  N   UNL     1       1.317  10.846  19.427  0.00  0.00    +0.000 N 
ATOM     16  H   UNL     1       1.985  11.448  19.888  0.00  0.00    +0.000 HD
BRANCH  13  18
ATOM     17  C   UNL     1       1.621  13.430  18.656  0.00  0.00    +0.000 C 
ATOM     18  C   UNL     1       0.382  12.909  18.610  0.00  0.00    +0.000 C 
BRANCH  17  19
ATOM     19  C   UNL     1       1.987  14.879  18.606  0.00  0.00    +0.000 C 
BRANCH  19  21
ATOM     20  C   UNL     1       3.128  16.620  17.425  0.00  0.00    +0.000 C 
ATOM     21  N   UNL     1       3.099  15.178  17.691  0.00  0.00    +0.000 NA
ATOM     22  C   UNL     1       4.404  14.767  18.221  0.00  0.00    +0.000 C 
ENDBRANCH  19  21
ENDBRANCH  17  19
ENDBRANCH  13  18
ENDBRANCH   7  15
ENDBRANCH   1  10
BRANCH   5  23
ATOM     23  C   UNL     1       4.302   2.183  20.393  0.00  0.00    +0.000 C 
ATOM     24  N   UNL     1       5.264   1.555  20.535  0.00  0.00    +0.000 NA
ENDBRANCH   5  23
BRANCH   6  25
ATOM     25  N   UNL     1       4.463   5.069  19.871  0.00  0.00    +0.000 N 
ATOM     26  H   UNL     1       4.632   5.799  20.560  0.00  0.00    +0.000 HD
BRANCH  25  27
ATOM     27  C   UNL     1       5.341   5.116  18.765  0.00  0.00    +0.000 A 
ATOM     28  C   UNL     1       6.666   5.573  18.852  0.00  0.00    +0.000 A 
ATOM     29  C   UNL     1       7.472   5.678  17.713  0.00  0.00    +0.000 A 
ATOM     30  C   UNL     1       6.966   5.310  16.474  0.00  0.00    +0.000 A 
ATOM     31  F   UNL     1       7.759   5.401  15.396  0.00  0.00    +0.000 F 
ATOM     32  C   UNL     1       5.658   4.849  16.362  0.00  0.00    +0.000 A 
ATOM     33 CL   UNL     1       5.022   4.378  14.832  0.00  0.00    +0.000 Cl
ATOM     34  C   UNL     1       4.848   4.763  17.498  0.00  0.00    +0.000 A 
ENDBRANCH  25  27
ENDBRANCH   6  25
TORSDOF 8
ENDMDL
MODEL 2
REMARK VINA RESULT:      -7.7      1.165      1.399
REMARK  Name = 
REMARK  10 active torsions:
REMARK  status: ('A' for Active; 'I' for Inactive)
REMARK    1  A    between atoms: C_1  and  N_2
REMARK    2  A    between atoms: N_2  and  C_3
REMARK    3  A    between atoms: N_2  and  C_4
REMARK    4  A    between atoms: C_4  and  C_5
REMARK    5  A    between atoms: C_6  and  C_7
REMARK    6  A    between atoms: N_9  and  C_10
REMARK    7  A    between atoms: C_13  and  C_14
REMARK    8  A    between atoms: C_18  and  C_19
REMARK    9  A    between atoms: C_21  and  N_22
REMARK   10  A    between atoms: N_22  and  C_23
REMARK                            x       y       z     vdW  Elec       q    Type
REMARK                         _______ _______ _______ _____ _____    ______ ____
ROOT
ATOM      1  C   UNL     1       2.009   5.084  20.019  0.00  0.00    +0.000 A 
ATOM      2  C   UNL     1       0.832   4.358  20.289  0.00  0.00    +0.000 A 
ATOM      3  N   UNL     1       0.749   3.037  20.553  0.00  0.00    +0.000 NA
ATOM      4  C   UNL     1       1.910   2.362  20.557  0.00  0.00    +0.000 A 
ATOM      5  C   UNL     1       3.145   2.946  20.303  0.00  0.00    +0.000 A 
ATOM      6  C   UNL     1       3.213   4.331  20.019  0.00  0.00    +0.000 A 
ENDROOT
BRANCH   1  10
ATOM      7  C   UNL     1       1.534   9.363  19.386  0.00  0.00    +0.000 A 
ATOM      8  C   UNL     1       1.217   8.758  20.599  0.00  0.00    +0.000 A 
ATOM      9  C   UNL     1       1.416   7.390  20.795  0.00  0.00    +0.000 A 
ATOM     10  C   UNL     1       1.891   6.549  19.774  0.00  0.00    +0.000 A 
ATOM     11  C   UNL     1       2.173   7.167  18.544  0.00  0.00    +0.000 A 
ATOM     12  C   UNL     1       2.011   8.554  18.353  0.00  0.00    +0.000 A 
BRANCH   7  15
ATOM     13  C   UNL     1       0.159  11.355  18.867  0.00  0.00    +0.000 C 
ATOM     14  O   UNL     1      -0.941  10.812  18.873  0.00  0.00    +0.000 OA
ATOM     15  N   UNL     1       1.366  10.749  19.158  0.00  0.00    +0.000 N 
ATOM     16  H   UNL     1       2.182  11.336  19.271  0.00  0.00    +0.000 HD
BRANCH  13  18
ATOM     17  C   UNL     1       1.458  13.392  18.762  0.00  0.00    +0.000 C 
ATOM     18  C   UNL     1       0.273  12.801  18.531  0.00  0.00    +0.000 C 
BRANCH  17  19
ATOM     19  C   UNL     1       1.793  14.837  18.574  0.00  0.00    +0.000 C 
BRANCH  19  21
ATOM     20  C   UNL     1       2.626  16.583  19.985  0.00  0.00    +0.000 C 
ATOM     21  N   UNL     1       2.944  15.289  19.372  0.00  0.00    +0.000 NA
ATOM     22  C   UNL     1       3.317  14.341  20.428  0.00  0.00    +0.000 C 
ENDBRANCH  19  21
ENDBRANCH  17  19
ENDBRANCH  13  18
ENDBRANCH   7  15
ENDBRANCH   1  10
BRANCH   5  23
ATOM     23  C   UNL     1       4.295   2.105  20.425  0.00  0.00    +0.000 C 
ATOM     24  N   UNL     1       5.257   1.469  20.526  0.00  0.00    +0.000 NA
ENDBRANCH   5  23
BRANCH   6  25
ATOM     25  N   UNL     1       4.458   4.953  19.723  0.00  0.00    +0.000 N 
ATOM     26  H   UNL     1       4.772   5.594  20.448  0.00  0.00    +0.000 HD
BRANCH  25  27
ATOM     27  C   UNL     1       5.156   5.088  18.502  0.00  0.00    +0.000 A 
ATOM     28  C   UNL     1       5.051   4.166  17.448  0.00  0.00    +0.000 A 
ATOM     29  C   UNL     1       5.826   4.300  16.290  0.00  0.00    +0.000 A 
ATOM     30  C   UNL     1       6.703   5.368  16.166  0.00  0.00    +0.000 A 
ATOM     31  F   UNL     1       7.424   5.488  15.042  0.00  0.00    +0.000 F 
ATOM     32  C   UNL     1       6.822   6.298  17.194  0.00  0.00    +0.000 A 
ATOM     33 CL   UNL     1       7.898   7.634  17.047  0.00  0.00    +0.000 Cl
ATOM     34  C   UNL     1       6.061   6.153  18.358  0.00  0.00    +0.000 A 
ENDBRANCH  25  27
ENDBRANCH   6  25
TORSDOF 8
ENDMDL
MODEL 3
REMARK VINA RESULT:      -7.6      1.258      1.578
REMARK  Name = 
REMARK  10 active torsions:
REMARK  status: ('A' for Active; 'I' for Inactive)
REMARK    1  A    between atoms: C_1  and  N_2
REMARK    2  A    between atoms: N_2  and  C_3
REMARK    3  A    between atoms: N_2  and  C_4
REMARK    4  A    between atoms: C_4  and  C_5
REMARK    5  A    between atoms: C_6  and  C_7
REMARK    6  A    between atoms: N_9  and  C_10
REMARK    7  A    between atoms: C_13  and  C_14
REMARK    8  A    between atoms: C_18  and  C_19
REMARK    9  A    between atoms: C_21  and  N_22
REMARK   10  A    between atoms: N_22  and  C_23
REMARK                            x       y       z     vdW  Elec       q    Type
REMARK                         _______ _______ _______ _____ _____    ______ ____
ROOT
ATOM      1  C   UNL     1       2.062   5.144  19.869  0.00  0.00    +0.000 A 
ATOM      2  C   UNL     1       0.876   4.402  20.034  0.00  0.00    +0.000 A 
ATOM      3  N   UNL     1       0.789   3.076  20.276  0.00  0.00    +0.000 NA
ATOM      4  C   UNL     1       1.953   2.415  20.367  0.00  0.00    +0.000 A 
ATOM      5  C   UNL     1       3.197   3.017  20.221  0.00  0.00    +0.000 A 
ATOM      6  C   UNL     1       3.272   4.406  19.958  0.00  0.00    +0.000 A 
ENDROOT
BRANCH   1  10
ATOM      7  C   UNL     1       1.595   9.428  19.260  0.00  0.00    +0.000 A 
ATOM      8  C   UNL     1       1.312   8.822  20.480  0.00  0.00    +0.000 A 
ATOM      9  C   UNL     1       1.508   7.453  20.668  0.00  0.00    +0.000 A 
ATOM     10  C   UNL     1       1.946   6.611  19.631  0.00  0.00    +0.000 A 
ATOM     11  C   UNL     1       2.194   7.230  18.393  0.00  0.00    +0.000 A 
ATOM     12  C   UNL     1       2.034   8.618  18.211  0.00  0.00    +0.000 A 
BRANCH   7  15
ATOM     13  C   UNL     1       0.212  11.437  18.838  0.00  0.00    +0.000 C 
ATOM     14  O   UNL     1      -0.891  10.909  18.928  0.00  0.00    +0.000 OA
ATOM     15  N   UNL     1       1.429  10.815  19.040  0.00  0.00    +0.000 N 
ATOM     16  H   UNL     1       2.259  11.391  19.090  0.00  0.00    +0.000 HD
BRANCH  13  18
ATOM     17  C   UNL     1       0.553  13.739  19.497  0.00  0.00    +0.000 C 
ATOM     18  C   UNL     1       0.320  12.881  18.489  0.00  0.00    +0.000 C 
BRANCH  17  19
ATOM     19  C   UNL     1       0.631  15.229  19.408  0.00  0.00    +0.000 C 
BRANCH  19  21
ATOM     20  C   UNL     1      -1.219  16.409  20.365  0.00  0.00    +0.000 C 
ATOM     21  N   UNL     1      -0.660  15.874  19.119  0.00  0.00    +0.000 NA
ATOM     22  C   UNL     1      -0.551  16.963  18.141  0.00  0.00    +0.000 C 
ENDBRANCH  19  21
ENDBRANCH  17  19
ENDBRANCH  13  18
ENDBRANCH   7  15
ENDBRANCH   1  10
BRANCH   5  23
ATOM     23  C   UNL     1       4.345   2.188  20.427  0.00  0.00    +0.000 C 
ATOM     24  N   UNL     1       5.255   1.485  20.555  0.00  0.00    +0.000 NA
ENDBRANCH   5  23
BRANCH   6  25
ATOM     25  N   UNL     1       4.528   5.045  19.771  0.00  0.00    +0.000 N 
ATOM     26  H   UNL     1       4.734   5.747  20.478  0.00  0.00    +0.000 HD
BRANCH  25  27
ATOM     27  C   UNL     1       5.370   5.114  18.638  0.00  0.00    +0.000 A 
ATOM     28  C   UNL     1       6.652   5.685  18.665  0.00  0.00    +0.000 A 
ATOM     29  C   UNL     1       7.416   5.805  17.498  0.00  0.00    +0.000 A 
ATOM     30  C   UNL     1       6.910   5.339  16.292  0.00  0.00    +0.000 A 
ATOM     31  F   UNL     1       7.663   5.447  15.188  0.00  0.00    +0.000 F 
ATOM     32  C   UNL     1       5.644   4.766  16.240  0.00  0.00    +0.000 A 
ATOM     33 CL   UNL     1       5.010   4.173  14.752  0.00  0.00    +0.000 Cl
ATOM     34  C   UNL     1       4.875   4.664  17.403  0.00  0.00    +0.000 A 
ENDBRANCH  25  27
ENDBRANCH   6  25
TORSDOF 8
ENDMDL
MODEL 4
REMARK VINA RESULT:      -7.5      0.779      1.280
REMARK  Name = 
REMARK  10 active torsions:
REMARK  status: ('A' for Active; 'I' for Inactive)
REMARK    1  A    between atoms: C_1  and  N_2
REMARK    2  A    between atoms: N_2  and  C_3
REMARK    3  A    between atoms: N_2  and  C_4
REMARK    4  A    between atoms: C_4  and  C_5
REMARK    5  A    between atoms: C_6  and  C_7
REMARK    6  A    between atoms: N_9  and  C_10
REMARK    7  A    between atoms: C_13  and  C_14
REMARK    8  A    between atoms: C_18  and  C_19
REMARK    9  A    between atoms: C_21  and  N_22
REMARK   10  A    between atoms: N_22  and  C_23
REMARK                            x       y       z     vdW  Elec       q    Type
REMARK                         _______ _______ _______ _____ _____    ______ ____
ROOT
ATOM      1  C   UNL     1       1.891   5.230  20.079  0.00  0.00    +0.000 A 
ATOM      2  C   UNL     1       0.743   4.454  20.334  0.00  0.00    +0.000 A 
ATOM      3  N   UNL     1       0.711   3.124  20.567  0.00  0.00    +0.000 NA
ATOM      4  C   UNL     1       1.896   2.494  20.553  0.00  0.00    +0.000 A 
ATOM      5  C   UNL     1       3.107   3.131  20.311  0.00  0.00    +0.000 A 
ATOM      6  C   UNL     1       3.122   4.524  20.059  0.00  0.00    +0.000 A 
ENDROOT
BRANCH   1  10
ATOM      7  C   UNL     1       1.510   9.509  19.383  0.00  0.00    +0.000 A 
ATOM      8  C   UNL     1       1.974   8.641  18.399  0.00  0.00    +0.000 A 
ATOM      9  C   UNL     1       2.050   7.266  18.628  0.00  0.00    +0.000 A 
ATOM     10  C   UNL     1       1.716   6.695  19.869  0.00  0.00    +0.000 A 
ATOM     11  C   UNL     1       1.283   7.587  20.865  0.00  0.00    +0.000 A 
ATOM     12  C   UNL     1       1.168   8.971  20.625  0.00  0.00    +0.000 A 
BRANCH   7  15
ATOM     13  C   UNL     1       0.238  11.552  18.804  0.00  0.00    +0.000 C 
ATOM     14  O   UNL     1      -0.873  11.042  18.704  0.00  0.00    +0.000 OA
ATOM     15  N   UNL     1       1.400  10.904  19.178  0.00  0.00    +0.000 N 
ATOM     16  H   UNL     1       2.218  11.463  19.374  0.00  0.00    +0.000 HD
BRANCH  13  18
ATOM     17  C   UNL     1       1.646  13.516  18.714  0.00  0.00    +0.000 C 
ATOM     18  C   UNL     1       0.420  13.002  18.517  0.00  0.00    +0.000 C 
BRANCH  17  19
ATOM     19  C   UNL     1       2.054  14.947  18.564  0.00  0.00    +0.000 C 
BRANCH  19  21
ATOM     20  C   UNL     1       1.159  16.260  20.355  0.00  0.00    +0.000 C 
ATOM     21  N   UNL     1       2.368  15.611  19.838  0.00  0.00    +0.000 NA
ATOM     22  C   UNL     1       2.883  14.687  20.855  0.00  0.00    +0.000 C 
ENDBRANCH  19  21
ENDBRANCH  17  19
ENDBRANCH  13  18
ENDBRANCH   7  15
ENDBRANCH   1  10
BRANCH   5  23
ATOM     23  C   UNL     1       4.289   2.332  20.411  0.00  0.00    +0.000 C 
ATOM     24  N   UNL     1       5.218   1.644  20.471  0.00  0.00    +0.000 NA
ENDBRANCH   5  23
BRANCH   6  25
ATOM     25  N   UNL     1       4.342   5.199  19.775  0.00  0.00    +0.000 N 
ATOM     26  H   UNL     1       4.427   6.095  20.250  0.00  0.00    +0.000 HD
BRANCH  25  27
ATOM     27  C   UNL     1       5.281   5.013  18.736  0.00  0.00    +0.000 A 
ATOM     28  C   UNL     1       6.669   5.108  18.925  0.00  0.00    +0.000 A 
ATOM     29  C   UNL     1       7.555   4.997  17.848  0.00  0.00    +0.000 A 
ATOM     30  C   UNL     1       7.063   4.774  16.569  0.00  0.00    +0.000 A 
ATOM     31  F   UNL     1       7.929   4.653  15.553  0.00  0.00    +0.000 F 
ATOM     32  C   UNL     1       5.692   4.672  16.356  0.00  0.00    +0.000 A 
ATOM     33 CL   UNL     1       5.070   4.383  14.777  0.00  0.00    +0.000 Cl
ATOM     34  C   UNL     1       4.806   4.801  17.430  0.00  0.00    +0.000 A 
ENDBRANCH  25  27
ENDBRANCH   6  25
TORSDOF 8
ENDMDL
MODEL 5
REMARK VINA RESULT:      -7.5      1.444      1.777
REMARK  Name = 
REMARK  10 active torsions:
REMARK  status: ('A' for Active; 'I' for Inactive)
REMARK    1  A    between atoms: C_1  and  N_2
REMARK    2  A    between atoms: N_2  and  C_3
REMARK    3  A    between atoms: N_2  and  C_4
REMARK    4  A    between atoms: C_4  and  C_5
REMARK    5  A    between atoms: C_6  and  C_7
REMARK    6  A    between atoms: N_9  and  C_10
REMARK    7  A    between atoms: C_13  and  C_14
REMARK    8  A    between atoms: C_18  and  C_19
REMARK    9  A    between atoms: C_21  and  N_22
REMARK   10  A    between atoms: N_22  and  C_23
REMARK                            x       y       z     vdW  Elec       q    Type
REMARK                         _______ _______ _______ _____ _____    ______ ____
ROOT
ATOM      1  C   UNL     1       2.283   5.252  20.126  0.00  0.00    +0.000 A 
ATOM      2  C   UNL     1       2.066   4.755  21.426  0.00  0.00    +0.000 A 
ATOM      3  N   UNL     1       2.279   3.489  21.845  0.00  0.00    +0.000 NA
ATOM      4  C   UNL     1       2.744   2.633  20.921  0.00  0.00    +0.000 A 
ATOM      5  C   UNL     1       2.999   2.983  19.601  0.00  0.00    +0.000 A 
ATOM      6  C   UNL     1       2.762   4.312  19.176  0.00  0.00    +0.000 A 
ENDROOT
BRANCH   1  10
ATOM      7  C   UNL     1       1.350   9.451  19.462  0.00  0.00    +0.000 A 
ATOM      8  C   UNL     1       1.096   8.823  20.678  0.00  0.00    +0.000 A 
ATOM      9  C   UNL     1       1.441   7.486  20.885  0.00  0.00    +0.000 A 
ATOM     10  C   UNL     1       2.008   6.695  19.871  0.00  0.00    +0.000 A 
ATOM     11  C   UNL     1       2.227   7.332  18.637  0.00  0.00    +0.000 A 
ATOM     12  C   UNL     1       1.915   8.692  18.436  0.00  0.00    +0.000 A 
BRANCH   7  15
ATOM     13  C   UNL     1      -0.175  11.257  18.727  0.00  0.00    +0.000 C 
ATOM     14  O   UNL     1      -1.171  10.571  18.527  0.00  0.00    +0.000 OA
ATOM     15  N   UNL     1       1.034  10.809  19.224  0.00  0.00    +0.000 N 
ATOM     16  H   UNL     1       1.727  11.496  19.490  0.00  0.00    +0.000 HD
BRANCH  13  18
ATOM     17  C   UNL     1       0.754  13.474  18.996  0.00  0.00    +0.000 C 
ATOM     18  C   UNL     1      -0.205  12.717  18.434  0.00  0.00    +0.000 C 
BRANCH  17  19
ATOM     19  C   UNL     1       0.890  14.961  18.908  0.00  0.00    +0.000 C 
BRANCH  19  21
ATOM     20  C   UNL     1       3.097  14.385  18.183  0.00  0.00    +0.000 C 
ATOM     21  N   UNL     1       2.283  15.425  18.821  0.00  0.00    +0.000 NA
ATOM     22  C   UNL     1       2.425  16.673  18.061  0.00  0.00    +0.000 C 
ENDBRANCH  19  21
ENDBRANCH  17  19
ENDBRANCH  13  18
ENDBRANCH   7  15
ENDBRANCH   1  10
BRANCH   5  23
ATOM     23  C   UNL     1       3.569   1.974  18.763  0.00  0.00    +0.000 C 
ATOM     24  N   UNL     1       4.006   1.120  18.115  0.00  0.00    +0.000 NA
ENDBRANCH   5  23
BRANCH   6  25
ATOM     25  N   UNL     1       2.982   4.694  17.824  0.00  0.00    +0.000 N 
ATOM     26  H   UNL     1       2.152   4.615  17.241  0.00  0.00    +0.000 HD
BRANCH  25  27
ATOM     27  C   UNL     1       4.180   4.848  17.090  0.00  0.00    +0.000 A 
ATOM     28  C   UNL     1       4.512   4.053  15.981  0.00  0.00    +0.000 A 
ATOM     29  C   UNL     1       5.748   4.188  15.338  0.00  0.00    +0.000 A 
ATOM     30  C   UNL     1       6.660   5.132  15.788  0.00  0.00    +0.000 A 
ATOM     31  F   UNL     1       7.832   5.258  15.147  0.00  0.00    +0.000 F 
ATOM     32  C   UNL     1       6.354   5.935  16.882  0.00  0.00    +0.000 A 
ATOM     33 CL   UNL     1       7.472   7.118  17.442  0.00  0.00    +0.000 Cl
ATOM     34  C   UNL     1       5.126   5.786  17.535  0.00  0.00    +0.000 A 
ENDBRANCH  25  27
ENDBRANCH   6  25
TORSDOF 8
ENDMDL
MODEL 6
REMARK VINA RESULT:      -7.4      1.739      2.195
REMARK  Name = 
REMARK  10 active torsions:
REMARK  status: ('A' for Active; 'I' for Inactive)
REMARK    1  A    between atoms: C_1  and  N_2
REMARK    2  A    between atoms: N_2  and  C_3
REMARK    3  A    between atoms: N_2  and  C_4
REMARK    4  A    between atoms: C_4  and  C_5
REMARK    5  A    between atoms: C_6  and  C_7
REMARK    6  A    between atoms: N_9  and  C_10
REMARK    7  A    between atoms: C_13  and  C_14
REMARK    8  A    between atoms: C_18  and  C_19
REMARK    9  A    between atoms: C_21  and  N_22
REMARK   10  A    between atoms: N_22  and  C_23
REMARK                            x       y       z     vdW  Elec       q    Type
REMARK                         _______ _______ _______ _____ _____    ______ ____
ROOT
ATOM      1  C   UNL     1       2.077   5.051  19.936  0.00  0.00    +0.000 A 
ATOM      2  C   UNL     1       0.901   4.328  20.217  0.00  0.00    +0.000 A 
ATOM      3  N   UNL     1       0.824   3.018  20.539  0.00  0.00    +0.000 NA
ATOM      4  C   UNL     1       1.990   2.355  20.595  0.00  0.00    +0.000 A 
ATOM      5  C   UNL     1       3.224   2.939  20.337  0.00  0.00    +0.000 A 
ATOM      6  C   UNL     1       3.287   4.310  19.992  0.00  0.00    +0.000 A 
ENDROOT
BRANCH   1  10
ATOM      7  C   UNL     1       1.582   9.295  19.108  0.00  0.00    +0.000 A 
ATOM      8  C   UNL     1       1.310   8.752  20.361  0.00  0.00    +0.000 A 
ATOM      9  C   UNL     1       1.515   7.395  20.618  0.00  0.00    +0.000 A 
ATOM     10  C   UNL     1       1.950   6.503  19.623  0.00  0.00    +0.000 A 
ATOM     11  C   UNL     1       2.187   7.058  18.353  0.00  0.00    +0.000 A 
ATOM     12  C   UNL     1       2.019   8.434  18.100  0.00  0.00    +0.000 A 
BRANCH   7  15
ATOM     13  C   UNL     1       0.222  11.360  18.985  0.00  0.00    +0.000 C 
ATOM     14  O   UNL     1      -0.800  10.925  19.503  0.00  0.00    +0.000 OA
ATOM     15  N   UNL     1       1.407  10.668  18.818  0.00  0.00    +0.000 N 
ATOM     16  H   UNL     1       2.224  11.183  18.520  0.00  0.00    +0.000 HD
BRANCH  13  18
ATOM     17  C   UNL     1      -0.004  13.739  19.353  0.00  0.00    +0.000 C 
ATOM     18  C   UNL     1       0.261  12.758  18.474  0.00  0.00    +0.000 C 
BRANCH  17  19
ATOM     19  C   UNL     1      -0.094  15.204  19.064  0.00  0.00    +0.000 C 
BRANCH  19  21
ATOM     20  C   UNL     1      -1.805  14.935  20.716  0.00  0.00    +0.000 C 
ATOM     21  N   UNL     1      -1.143  15.896  19.829  0.00  0.00    +0.000 NA
ATOM     22  C   UNL     1      -0.625  17.008  20.635  0.00  0.00    +0.000 C 
ENDBRANCH  19  21
ENDBRANCH  17  19
ENDBRANCH  13  18
ENDBRANCH   7  15
ENDBRANCH   1  10
BRANCH   5  23
ATOM     23  C   UNL     1       4.379   2.115  20.519  0.00  0.00    +0.000 C 
ATOM     24  N   UNL     1       5.284   1.406  20.653  0.00  0.00    +0.000 NA
ENDBRANCH   5  23
BRANCH   6  25
ATOM     25  N   UNL     1       4.531   4.930  19.691  0.00  0.00    +0.000 N 
ATOM     26  H   UNL     1       4.855   5.561  20.420  0.00  0.00    +0.000 HD
BRANCH  25  27
ATOM     27  C   UNL     1       5.218   5.075  18.465  0.00  0.00    +0.000 A 
ATOM     28  C   UNL     1       5.116   4.154  17.410  0.00  0.00    +0.000 A 
ATOM     29  C   UNL     1       5.880   4.298  16.246  0.00  0.00    +0.000 A 
ATOM     30  C   UNL     1       6.745   5.376  16.119  0.00  0.00    +0.000 A 
ATOM     31  F   UNL     1       7.456   5.507  14.989  0.00  0.00    +0.000 F 
ATOM     32  C   UNL     1       6.862   6.305  17.148  0.00  0.00    +0.000 A 
ATOM     33 CL   UNL     1       7.922   7.654  16.996  0.00  0.00    +0.000 Cl
ATOM     34  C   UNL     1       6.111   6.150  18.317  0.00  0.00    +0.000 A 
ENDBRANCH  25  27
ENDBRANCH   6  25
TORSDOF 8
ENDMDL
MODEL 7
REMARK VINA RESULT:      -7.4      4.368      6.405
REMARK  Name = 
REMARK  10 active torsions:
REMARK  status: ('A' for Active; 'I' for Inactive)
REMARK    1  A    between atoms: C_1  and  N_2
REMARK    2  A    between atoms: N_2  and  C_3
REMARK    3  A    between atoms: N_2  and  C_4
REMARK    4  A    between atoms: C_4  and  C_5
REMARK    5  A    between atoms: C_6  and  C_7
REMARK    6  A    between atoms: N_9  and  C_10
REMARK    7  A    between atoms: C_13  and  C_14
REMARK    8  A    between atoms: C_18  and  C_19
REMARK    9  A    between atoms: C_21  and  N_22
REMARK   10  A    between atoms: N_22  and  C_23
REMARK                            x       y       z     vdW  Elec       q    Type
REMARK                         _______ _______ _______ _____ _____    ______ ____
ROOT
ATOM      1  C   UNL     1       4.765   4.815  18.181  0.00  0.00    +0.000 A 
ATOM      2  C   UNL     1       4.966   3.647  17.419  0.00  0.00    +0.000 A 
ATOM      3  N   UNL     1       4.154   2.569  17.376  0.00  0.00    +0.000 NA
ATOM      4  C   UNL     1       3.051   2.632  18.138  0.00  0.00    +0.000 A 
ATOM      5  C   UNL     1       2.728   3.717  18.944  0.00  0.00    +0.000 A 
ATOM      6  C   UNL     1       3.595   4.835  18.984  0.00  0.00    +0.000 A 
ENDROOT
BRANCH   1  10
ATOM      7  C   UNL     1       7.672   8.020  17.711  0.00  0.00    +0.000 A 
ATOM      8  C   UNL     1       6.442   8.039  17.060  0.00  0.00    +0.000 A 
ATOM      9  C   UNL     1       5.507   7.022  17.256  0.00  0.00    +0.000 A 
ATOM     10  C   UNL     1       5.773   5.907  18.071  0.00  0.00    +0.000 A 
ATOM     11  C   UNL     1       7.032   5.883  18.695  0.00  0.00    +0.000 A 
ATOM     12  C   UNL     1       7.965   6.927  18.530  0.00  0.00    +0.000 A 
BRANCH   7  15
ATOM     13  C   UNL     1       9.051   9.891  18.562  0.00  0.00    +0.000 C 
ATOM     14  O   UNL     1       8.739   9.811  19.746  0.00  0.00    +0.000 OA
ATOM     15  N   UNL     1       8.635   9.043  17.553  0.00  0.00    +0.000 N 
ATOM     16  H   UNL     1       9.083   9.117  16.650  0.00  0.00    +0.000 HD
BRANCH  13  18
ATOM     17  C   UNL     1       9.436  12.196  17.940  0.00  0.00    +0.000 C 
ATOM     18  C   UNL     1       9.967  10.972  18.105  0.00  0.00    +0.000 C 
BRANCH  17  19
ATOM     19  C   UNL     1      10.133  13.415  17.426  0.00  0.00    +0.000 C 
BRANCH  19  21
ATOM     20  C   UNL     1       9.941  15.770  17.809  0.00  0.00    +0.000 C 
ATOM     21  N   UNL     1      10.276  14.483  18.427  0.00  0.00    +0.000 NA
ATOM     22  C   UNL     1       9.422  14.285  19.604  0.00  0.00    +0.000 C 
ENDBRANCH  19  21
ENDBRANCH  17  19
ENDBRANCH  13  18
ENDBRANCH   7  15
ENDBRANCH   1  10
BRANCH   5  23
ATOM     23  C   UNL     1       1.475   3.661  19.632  0.00  0.00    +0.000 C 
ATOM     24  N   UNL     1       0.489   3.610  20.235  0.00  0.00    +0.000 NA
ENDBRANCH   5  23
BRANCH   6  25
ATOM     25  N   UNL     1       3.309   5.948  19.823  0.00  0.00    +0.000 N 
ATOM     26  H   UNL     1       3.522   5.779  20.804  0.00  0.00    +0.000 HD
BRANCH  25  27
ATOM     27  C   UNL     1       2.507   7.090  19.602  0.00  0.00    +0.000 A 
ATOM     28  C   UNL     1       2.461   7.773  18.377  0.00  0.00    +0.000 A 
ATOM     29  C   UNL     1       1.714   8.949  18.231  0.00  0.00    +0.000 A 
ATOM     30  C   UNL     1       0.992   9.445  19.308  0.00  0.00    +0.000 A 
ATOM     31  F   UNL     1       0.269  10.562  19.144  0.00  0.00    +0.000 F 
ATOM     32  C   UNL     1       1.018   8.783  20.532  0.00  0.00    +0.000 A 
ATOM     33 CL   UNL     1       0.117   9.382  21.871  0.00  0.00    +0.000 Cl
ATOM     34  C   UNL     1       1.779   7.620  20.681  0.00  0.00    +0.000 A 
ENDBRANCH  25  27
ENDBRANCH   6  25
TORSDOF 8
ENDMDL
MODEL 8
REMARK VINA RESULT:      -7.4      4.933      9.342
REMARK  Name = 
REMARK  10 active torsions:
REMARK  status: ('A' for Active; 'I' for Inactive)
REMARK    1  A    between atoms: C_1  and  N_2
REMARK    2  A    between atoms: N_2  and  C_3
REMARK    3  A    between atoms: N_2  and  C_4
REMARK    4  A    between atoms: C_4  and  C_5
REMARK    5  A    between atoms: C_6  and  C_7
REMARK    6  A    between atoms: N_9  and  C_10
REMARK    7  A    between atoms: C_13  and  C_14
REMARK    8  A    between atoms: C_18  and  C_19
REMARK    9  A    between atoms: C_21  and  N_22
REMARK   10  A    between atoms: N_22  and  C_23
REMARK                            x       y       z     vdW  Elec       q    Type
REMARK                         _______ _______ _______ _____ _____    ______ ____
ROOT
ATOM      1  C   UNL     1       0.190  10.018  21.046  0.00  0.00    +0.000 A 
ATOM      2  C   UNL     1       0.304   9.655  22.402  0.00  0.00    +0.000 A 
ATOM      3  N   UNL     1      -0.382  10.190  23.435  0.00  0.00    +0.000 NA
ATOM      4  C   UNL     1      -1.254  11.162  23.123  0.00  0.00    +0.000 A 
ATOM      5  C   UNL     1      -1.466  11.625  21.830  0.00  0.00    +0.000 A 
ATOM      6  C   UNL     1      -0.733  11.059  20.760  0.00  0.00    +0.000 A 
ENDROOT
BRANCH   1  10
ATOM      7  C   UNL     1       2.703   7.821  18.254  0.00  0.00    +0.000 A 
ATOM      8  C   UNL     1       2.297   7.274  19.468  0.00  0.00    +0.000 A 
ATOM      9  C   UNL     1       1.457   7.979  20.331  0.00  0.00    +0.000 A 
ATOM     10  C   UNL     1       1.023   9.286  20.050  0.00  0.00    +0.000 A 
ATOM     11  C   UNL     1       1.468   9.840  18.837  0.00  0.00    +0.000 A 
ATOM     12  C   UNL     1       2.285   9.117  17.945  0.00  0.00    +0.000 A 
BRANCH   7  15
ATOM     13  C   UNL     1       4.484   6.191  17.709  0.00  0.00    +0.000 C 
ATOM     14  O   UNL     1       4.665   5.749  18.838  0.00  0.00    +0.000 OA
ATOM     15  N   UNL     1       3.536   7.127  17.345  0.00  0.00    +0.000 N 
ATOM     16  H   UNL     1       3.381   7.295  16.360  0.00  0.00    +0.000 HD
BRANCH  13  18
ATOM     17  C   UNL     1       5.266   4.401  16.283  0.00  0.00    +0.000 C 
ATOM     18  C   UNL     1       5.326   5.711  16.577  0.00  0.00    +0.000 C 
BRANCH  17  19
ATOM     19  C   UNL     1       6.065   3.677  15.246  0.00  0.00    +0.000 C 
BRANCH  19  21
ATOM     20  C   UNL     1       7.425   5.004  13.790  0.00  0.00    +0.000 C 
ATOM     21  N   UNL     1       6.114   4.366  13.947  0.00  0.00    +0.000 NA
ATOM     22  C   UNL     1       5.884   3.466  12.811  0.00  0.00    +0.000 C 
ENDBRANCH  19  21
ENDBRANCH  17  19
ENDBRANCH  13  18
ENDBRANCH   7  15
ENDBRANCH   1  10
BRANCH   5  23
ATOM     23  C   UNL     1      -2.490  12.608  21.655  0.00  0.00    +0.000 C 
ATOM     24  N   UNL     1      -3.354  13.365  21.517  0.00  0.00    +0.000 NA
ENDBRANCH   5  23
BRANCH   6  25
ATOM     25  N   UNL     1      -0.903  11.533  19.430  0.00  0.00    +0.000 N 
ATOM     26  H   UNL     1      -0.495  12.451  19.273  0.00  0.00    +0.000 HD
BRANCH  25  27
ATOM     27  C   UNL     1      -1.788  11.120  18.408  0.00  0.00    +0.000 A 
ATOM     28  C   UNL     1      -1.466  10.135  17.461  0.00  0.00    +0.000 A 
ATOM     29  C   UNL     1      -2.345   9.820  16.418  0.00  0.00    +0.000 A 
ATOM     30  C   UNL     1      -3.564  10.476  16.320  0.00  0.00    +0.000 A 
ATOM     31  F   UNL     1      -4.399  10.148  15.324  0.00  0.00    +0.000 F 
ATOM     32  C   UNL     1      -3.908  11.454  17.249  0.00  0.00    +0.000 A 
ATOM     33 CL   UNL     1      -5.423  12.266  17.145  0.00  0.00    +0.000 Cl
ATOM     34  C   UNL     1      -3.022  11.781  18.279  0.00  0.00    +0.000 A 
ENDBRANCH  25  27
ENDBRANCH   6  25
TORSDOF 8
ENDMDL
MODEL 9
REMARK VINA RESULT:      -7.4      1.755      2.173
REMARK  Name = 
REMARK  10 active torsions:
REMARK  status: ('A' for Active; 'I' for Inactive)
REMARK    1  A    between atoms: C_1  and  N_2
REMARK    2  A    between atoms: N_2  and  C_3
REMARK    3  A    between atoms: N_2  and  C_4
REMARK    4  A    between atoms: C_4  and  C_5
REMARK    5  A    between atoms: C_6  and  C_7
REMARK    6  A    between atoms: N_9  and  C_10
REMARK    7  A    between atoms: C_13  and  C_14
REMARK    8  A    between atoms: C_18  and  C_19
REMARK    9  A    between atoms: C_21  and  N_22
REMARK   10  A    between atoms: N_22  and  C_23
REMARK                            x       y       z     vdW  Elec       q    Type
REMARK                         _______ _______ _______ _____ _____    ______ ____
ROOT
ATOM      1  C   UNL     1       2.296   5.230  20.130  0.00  0.00    +0.000 A 
ATOM      2  C   UNL     1       2.090   4.736  21.433  0.00  0.00    +0.000 A 
ATOM      3  N   UNL     1       2.307   3.471  21.853  0.00  0.00    +0.000 NA
ATOM      4  C   UNL     1       2.766   2.613  20.928  0.00  0.00    +0.000 A 
ATOM      5  C   UNL     1       3.010   2.960  19.605  0.00  0.00    +0.000 A 
ATOM      6  C   UNL     1       2.768   4.288  19.178  0.00  0.00    +0.000 A 
ENDROOT
BRANCH   1  10
ATOM      7  C   UNL     1       1.352   9.426  19.461  0.00  0.00    +0.000 A 
ATOM      8  C   UNL     1       1.085   8.794  20.672  0.00  0.00    +0.000 A 
ATOM      9  C   UNL     1       1.433   7.459  20.881  0.00  0.00    +0.000 A 
ATOM     10  C   UNL     1       2.017   6.672  19.873  0.00  0.00    +0.000 A 
ATOM     11  C   UNL     1       2.249   7.312  18.643  0.00  0.00    +0.000 A 
ATOM     12  C   UNL     1       1.934   8.670  18.441  0.00  0.00    +0.000 A 
BRANCH   7  15
ATOM     13  C   UNL     1      -0.189  11.230  18.756  0.00  0.00    +0.000 C 
ATOM     14  O   UNL     1      -1.194  10.545  18.592  0.00  0.00    +0.000 OA
ATOM     15  N   UNL     1       1.032  10.782  19.221  0.00  0.00    +0.000 N 
ATOM     16  H   UNL     1       1.735  11.469  19.460  0.00  0.00    +0.000 HD
BRANCH  13  18
ATOM     17  C   UNL     1       0.757  13.445  18.971  0.00  0.00    +0.000 C 
ATOM     18  C   UNL     1      -0.224  12.687  18.452  0.00  0.00    +0.000 C 
BRANCH  17  19
ATOM     19  C   UNL     1       0.896  14.930  18.866  0.00  0.00    +0.000 C 
BRANCH  19  21
ATOM     20  C   UNL     1      -0.582  15.998  20.417  0.00  0.00    +0.000 C 
ATOM     21  N   UNL     1      -0.376  15.656  19.006  0.00  0.00    +0.000 NA
ATOM     22  C   UNL     1      -0.425  16.886  18.206  0.00  0.00    +0.000 C 
ENDBRANCH  19  21
ENDBRANCH  17  19
ENDBRANCH  13  18
ENDBRANCH   7  15
ENDBRANCH   1  10
BRANCH   5  23
ATOM     23  C   UNL     1       3.575   1.950  18.765  0.00  0.00    +0.000 C 
ATOM     24  N   UNL     1       4.076   1.133  18.115  0.00  0.00    +0.000 NA
ENDBRANCH   5  23
BRANCH   6  25
ATOM     25  N   UNL     1       2.977   4.667  17.824  0.00  0.00    +0.000 N 
ATOM     26  H   UNL     1       2.144   4.582  17.247  0.00  0.00    +0.000 HD
BRANCH  25  27
ATOM     27  C   UNL     1       4.170   4.824  17.082  0.00  0.00    +0.000 A 
ATOM     28  C   UNL     1       4.494   4.034  15.967  0.00  0.00    +0.000 A 
ATOM     29  C   UNL     1       5.724   4.173  15.315  0.00  0.00    +0.000 A 
ATOM     30  C   UNL     1       6.639   5.117  15.761  0.00  0.00    +0.000 A 
ATOM     31  F   UNL     1       7.805   5.246  15.112  0.00  0.00    +0.000 F 
ATOM     32  C   UNL     1       6.340   5.915  16.861  0.00  0.00    +0.000 A 
ATOM     33 CL   UNL     1       7.462   7.097  17.416  0.00  0.00    +0.000 Cl
ATOM     34  C   UNL     1       5.118   5.762  17.523  0.00  0.00    +0.000 A 
ENDBRANCH  25  27
ENDBRANCH   6  25
TORSDOF 8
ENDMDL
