MODEL 1
REMARK VINA RESULT:      -6.0      0.000      0.000
REMARK  Name = 
REMARK  10 active torsions:
REMARK  status: ('A' for Active; 'I' for Inactive)
REMARK    1  A    between atoms: C_1  and  N_2
REMARK    2  A    between atoms: N_2  and  S_3
REMARK    3  A    between atoms: S_3  and  C_6
REMARK    4  A    between atoms: C_8  and  S_9
REMARK    5  A    between atoms: S_9  and  N_12
REMARK    6  A    between atoms: N_12  and  C_13
REMARK    7  A    between atoms: C_17  and  C_18
REMARK    8  A    between atoms: C_21  and  O_22
REMARK    9  A    between atoms: O_22  and  S_23
REMARK   10  A    between atoms: S_23  and  C_24
REMARK                            x       y       z     vdW  Elec       q    Type
REMARK                         _______ _______ _______ _____ _____    ______ ____
ROOT
ATOM      1  C   UNL     1      -2.474  12.783  21.304  0.00  0.00    +0.000 A 
ATOM      2  C   UNL     1      -3.834  12.832  21.601  0.00  0.00    +0.000 A 
ATOM      3  C   UNL     1      -4.769  12.464  20.627  0.00  0.00    +0.000 A 
ATOM      4  C   UNL     1      -4.344  12.065  19.328  0.00  0.00    +0.000 A 
ATOM      5  C   UNL     1      -5.207  11.734  18.255  0.00  0.00    +0.000 A 
ATOM      6  C   UNL     1      -4.708  11.332  17.018  0.00  0.00    +0.000 A 
ATOM      7  C   UNL     1      -3.343  11.236  16.869  0.00  0.00    +0.000 A 
ATOM      8  C   UNL     1      -2.715  10.817  15.575  0.00  0.00    +0.000 C 
ATOM      9  N   UNL     1      -2.497  11.538  17.877  0.00  0.00    +0.000 NA
ATOM     10  C   UNL     1      -2.951  11.981  19.060  0.00  0.00    +0.000 A 
ATOM     11  C   UNL     1      -2.025  12.348  20.046  0.00  0.00    +0.000 A 
ENDROOT
BRANCH   1  12
ATOM     12  S   UNL     1      -1.308  13.341  22.522  0.00  0.00    +0.000 S 
ATOM     13  O   UNL     1      -0.347  14.198  21.865  0.00  0.00    +0.000 OA
ATOM     14  O   UNL     1      -0.899  12.178  23.280  0.00  0.00    +0.000 OA
BRANCH  12  16
ATOM     15  C   UNL     1      -1.584  15.007  24.634  0.00  0.00    +0.000 C 
ATOM     16  N   UNL     1      -2.244  14.296  23.544  0.00  0.00    +0.000 NA
ATOM     17  H   UNL     1      -2.971  14.807  23.047  0.00  0.00    +0.000 HD
ENDBRANCH  12  16
ENDBRANCH   1  12
BRANCH   3  18
ATOM     18  S   UNL     1      -6.472  12.356  21.161  0.00  0.00    +0.000 S 
ATOM     19  O   UNL     1      -7.182  13.468  20.569  0.00  0.00    +0.000 OA
ATOM     20  O   UNL     1      -6.932  10.998  20.970  0.00  0.00    +0.000 OA
BRANCH  18  21
ATOM     21  N   UNL     1      -6.413  12.646  22.814  0.00  0.00    +0.000 NA
ATOM     22  C   UNL     1      -7.577  12.281  23.620  0.00  0.00    +0.000 C 
ATOM     23  H   UNL     1      -6.003  13.562  23.005  0.00  0.00    +0.000 HD
ENDBRANCH  18  21
ENDBRANCH   3  18
BRANCH  11  24
ATOM     24  O   UNL     1      -0.655  12.234  19.913  0.00  0.00    +0.000 OA
BRANCH  24  25
ATOM     25  S   UNL     1       0.207  10.883  20.230  0.00  0.00    +0.000 S 
ATOM     26  C   UNL     1       0.977  10.777  18.634  0.00  0.00    +0.000 C 
ATOM     27  O   UNL     1       1.268  11.194  21.167  0.00  0.00    +0.000 OA
ATOM     28  O   UNL     1      -0.656   9.725  20.350  0.00  0.00    +0.000 OA
ENDBRANCH  24  25
ENDBRANCH  11  24
TORSDOF 6
ENDMDL
MODEL 2
REMARK VINA RESULT:      -5.9      2.079      5.263
REMARK  Name = 
REMARK  10 active torsions:
REMARK  status: ('A' for Active; 'I' for Inactive)
REMARK    1  A    between atoms: C_1  and  N_2
REMARK    2  A    between atoms: N_2  and  S_3
REMARK    3  A    between atoms: S_3  and  C_6
REMARK    4  A    between atoms: C_8  and  S_9
REMARK    5  A    between atoms: S_9  and  N_12
REMARK    6  A    between atoms: N_12  and  C_13
REMARK    7  A    between atoms: C_17  and  C_18
REMARK    8  A    between atoms: C_21  and  O_22
REMARK    9  A    between atoms: O_22  and  S_23
REMARK   10  A    between atoms: S_23  and  C_24
REMARK                            x       y       z     vdW  Elec       q    Type
REMARK                         _______ _______ _______ _____ _____    ______ ____
ROOT
ATOM      1  C   UNL     1      -3.116  12.676  20.889  0.00  0.00    +0.000 A 
ATOM      2  C   UNL     1      -1.810  12.255  21.126  0.00  0.00    +0.000 A 
ATOM      3  C   UNL     1      -1.140  11.498  20.158  0.00  0.00    +0.000 A 
ATOM      4  C   UNL     1      -1.789  11.134  18.945  0.00  0.00    +0.000 A 
ATOM      5  C   UNL     1      -1.226  10.322  17.931  0.00  0.00    +0.000 A 
ATOM      6  C   UNL     1      -1.923  10.029  16.762  0.00  0.00    +0.000 A 
ATOM      7  C   UNL     1      -3.176  10.576  16.599  0.00  0.00    +0.000 A 
ATOM      8  C   UNL     1      -4.003  10.314  15.377  0.00  0.00    +0.000 C 
ATOM      9  N   UNL     1      -3.736  11.360  17.545  0.00  0.00    +0.000 NA
ATOM     10  C   UNL     1      -3.107  11.610  18.704  0.00  0.00    +0.000 A 
ATOM     11  C   UNL     1      -3.765  12.370  19.681  0.00  0.00    +0.000 A 
ENDROOT
BRANCH   1  12
ATOM     12  S   UNL     1      -3.981  13.556  22.167  0.00  0.00    +0.000 S 
ATOM     13  O   UNL     1      -4.622  14.704  21.567  0.00  0.00    +0.000 OA
ATOM     14  O   UNL     1      -3.068  13.689  23.281  0.00  0.00    +0.000 OA
BRANCH  12  16
ATOM     15  C   UNL     1      -6.215  12.934  23.559  0.00  0.00    +0.000 C 
ATOM     16  N   UNL     1      -5.182  12.473  22.636  0.00  0.00    +0.000 NA
ATOM     17  H   UNL     1      -5.494  11.878  21.871  0.00  0.00    +0.000 HD
ENDBRANCH  12  16
ENDBRANCH   1  12
BRANCH   3  18
ATOM     18  S   UNL     1       0.594  11.182  20.456  0.00  0.00    +0.000 S 
ATOM     19  O   UNL     1       1.314  11.554  19.258  0.00  0.00    +0.000 OA
ATOM     20  O   UNL     1       0.954  11.744  21.740  0.00  0.00    +0.000 OA
BRANCH  18  21
ATOM     21  N   UNL     1       0.701   9.511  20.585  0.00  0.00    +0.000 NA
ATOM     22  C   UNL     1      -0.178   8.835  21.537  0.00  0.00    +0.000 C 
ATOM     23  H   UNL     1       1.677   9.211  20.583  0.00  0.00    +0.000 HD
ENDBRANCH  18  21
ENDBRANCH   3  18
BRANCH  11  24
ATOM     24  O   UNL     1      -5.012  12.942  19.518  0.00  0.00    +0.000 OA
BRANCH  24  25
ATOM     25  S   UNL     1      -6.421  12.117  19.459  0.00  0.00    +0.000 S 
ATOM     26  C   UNL     1      -7.444  13.461  20.007  0.00  0.00    +0.000 C 
ATOM     27  O   UNL     1      -6.783  11.875  18.077  0.00  0.00    +0.000 OA
ATOM     28  O   UNL     1      -6.480  11.105  20.494  0.00  0.00    +0.000 OA
ENDBRANCH  24  25
ENDBRANCH  11  24
TORSDOF 6
ENDMDL
MODEL 3
REMARK VINA RESULT:      -5.9      2.641      4.932
REMARK  Name = 
REMARK  10 active torsions:
REMARK  status: ('A' for Active; 'I' for Inactive)
REMARK    1  A    between atoms: C_1  and  N_2
REMARK    2  A    between atoms: N_2  and  S_3
REMARK    3  A    between atoms: S_3  and  C_6
REMARK    4  A    between atoms: C_8  and  S_9
REMARK    5  A    between atoms: S_9  and  N_12
REMARK    6  A    between atoms: N_12  and  C_13
REMARK    7  A    between atoms: C_17  and  C_18
REMARK    8  A    between atoms: C_21  and  O_22
REMARK    9  A    between atoms: O_22  and  S_23
REMARK   10  A    between atoms: S_23  and  C_24
REMARK                            x       y       z     vdW  Elec       q    Type
REMARK                         _______ _______ _______ _____ _____    ______ ____
ROOT
ATOM      1  C   UNL     1      -5.048  12.384  19.759  0.00  0.00    +0.000 A 
ATOM      2  C   UNL     1      -5.445  12.711  21.054  0.00  0.00    +0.000 A 
ATOM      3  C   UNL     1      -4.488  12.786  22.073  0.00  0.00    +0.000 A 
ATOM      4  C   UNL     1      -3.119  12.507  21.803  0.00  0.00    +0.000 A 
ATOM      5  C   UNL     1      -2.084  12.493  22.770  0.00  0.00    +0.000 A 
ATOM      6  C   UNL     1      -0.763  12.230  22.419  0.00  0.00    +0.000 A 
ATOM      7  C   UNL     1      -0.477  12.008  21.090  0.00  0.00    +0.000 A 
ATOM      8  C   UNL     1       0.914  11.712  20.618  0.00  0.00    +0.000 C 
ATOM      9  N   UNL     1      -1.441  12.022  20.146  0.00  0.00    +0.000 NA
ATOM     10  C   UNL     1      -2.729  12.218  20.467  0.00  0.00    +0.000 A 
ATOM     11  C   UNL     1      -3.697  12.150  19.456  0.00  0.00    +0.000 A 
ENDROOT
BRANCH   1  12
ATOM     12  S   UNL     1      -6.288  12.205  18.500  0.00  0.00    +0.000 S 
ATOM     13  O   UNL     1      -5.798  12.831  17.293  0.00  0.00    +0.000 OA
ATOM     14  O   UNL     1      -7.553  12.582  19.095  0.00  0.00    +0.000 OA
BRANCH  12  16
ATOM     15  C   UNL     1      -6.928   9.692  19.272  0.00  0.00    +0.000 C 
ATOM     16  N   UNL     1      -6.338  10.542  18.242  0.00  0.00    +0.000 NA
ATOM     17  H   UNL     1      -6.561  10.302  17.278  0.00  0.00    +0.000 HD
ENDBRANCH  12  16
ENDBRANCH   1  12
BRANCH   3  18
ATOM     18  S   UNL     1      -5.053  13.413  23.648  0.00  0.00    +0.000 S 
ATOM     19  O   UNL     1      -5.146  12.289  24.554  0.00  0.00    +0.000 OA
ATOM     20  O   UNL     1      -4.266  14.578  23.992  0.00  0.00    +0.000 OA
BRANCH  18  21
ATOM     21  N   UNL     1      -6.625  13.929  23.356  0.00  0.00    +0.000 NA
ATOM     22  C   UNL     1      -7.664  13.546  24.310  0.00  0.00    +0.000 C 
ATOM     23  H   UNL     1      -6.860  13.824  22.368  0.00  0.00    +0.000 HD
ENDBRANCH  18  21
ENDBRANCH   3  18
BRANCH  11  24
ATOM     24  O   UNL     1      -3.417  11.951  18.117  0.00  0.00    +0.000 OA
BRANCH  24  25
ATOM     25  S   UNL     1      -2.861  10.556  17.474  0.00  0.00    +0.000 S 
ATOM     26  C   UNL     1      -3.352  10.915  15.805  0.00  0.00    +0.000 C 
ATOM     27  O   UNL     1      -1.412  10.565  17.476  0.00  0.00    +0.000 OA
ATOM     28  O   UNL     1      -3.658   9.425  17.904  0.00  0.00    +0.000 OA
ENDBRANCH  24  25
ENDBRANCH  11  24
TORSDOF 6
ENDMDL
MODEL 4
REMARK VINA RESULT:      -5.8      2.104      5.229
REMARK  Name = 
REMARK  10 active torsions:
REMARK  status: ('A' for Active; 'I' for Inactive)
REMARK    1  A    between atoms: C_1  and  N_2
REMARK    2  A    between atoms: N_2  and  S_3
REMARK    3  A    between atoms: S_3  and  C_6
REMARK    4  A    between atoms: C_8  and  S_9
REMARK    5  A    between atoms: S_9  and  N_12
REMARK    6  A    between atoms: N_12  and  C_13
REMARK    7  A    between atoms: C_17  and  C_18
REMARK    8  A    between atoms: C_21  and  O_22
REMARK    9  A    between atoms: O_22  and  S_23
REMARK   10  A    between atoms: S_23  and  C_24
REMARK                            x       y       z     vdW  Elec       q    Type
REMARK                         _______ _______ _______ _____ _____    ______ ____
ROOT
ATOM      1  C   UNL     1      -3.401  12.631  20.726  0.00  0.00    +0.000 A 
ATOM      2  C   UNL     1      -2.103  12.245  21.052  0.00  0.00    +0.000 A 
ATOM      3  C   UNL     1      -1.349  11.507  20.132  0.00  0.00    +0.000 A 
ATOM      4  C   UNL     1      -1.905  11.127  18.878  0.00  0.00    +0.000 A 
ATOM      5  C   UNL     1      -1.254  10.330  17.905  0.00  0.00    +0.000 A 
ATOM      6  C   UNL     1      -1.862  10.020  16.692  0.00  0.00    +0.000 A 
ATOM      7  C   UNL     1      -3.116  10.534  16.445  0.00  0.00    +0.000 A 
ATOM      8  C   UNL     1      -3.851  10.251  15.170  0.00  0.00    +0.000 C 
ATOM      9  N   UNL     1      -3.758  11.302  17.350  0.00  0.00    +0.000 NA
ATOM     10  C   UNL     1      -3.216  11.568  18.549  0.00  0.00    +0.000 A 
ATOM     11  C   UNL     1      -3.958  12.309  19.478  0.00  0.00    +0.000 A 
ENDROOT
BRANCH   1  12
ATOM     12  S   UNL     1      -4.373  13.487  21.942  0.00  0.00    +0.000 S 
ATOM     13  O   UNL     1      -5.327  12.553  22.495  0.00  0.00    +0.000 OA
ATOM     14  O   UNL     1      -4.789  14.739  21.347  0.00  0.00    +0.000 OA
BRANCH  12  16
ATOM     15  C   UNL     1      -2.805  15.241  23.276  0.00  0.00    +0.000 C 
ATOM     16  N   UNL     1      -3.251  13.858  23.141  0.00  0.00    +0.000 NA
ATOM     17  H   UNL     1      -3.423  13.353  24.009  0.00  0.00    +0.000 HD
ENDBRANCH  12  16
ENDBRANCH   1  12
BRANCH   3  18
ATOM     18  S   UNL     1       0.369  11.237  20.546  0.00  0.00    +0.000 S 
ATOM     19  O   UNL     1       1.161  11.687  19.423  0.00  0.00    +0.000 OA
ATOM     20  O   UNL     1       0.611  11.753  21.876  0.00  0.00    +0.000 OA
BRANCH  18  21
ATOM     21  N   UNL     1       0.528   9.566  20.612  0.00  0.00    +0.000 NA
ATOM     22  C   UNL     1      -0.281   8.835  21.585  0.00  0.00    +0.000 C 
ATOM     23  H   UNL     1       1.510   9.296  20.549  0.00  0.00    +0.000 HD
ENDBRANCH  18  21
ENDBRANCH   3  18
BRANCH  11  24
ATOM     24  O   UNL     1      -5.207  12.848  19.230  0.00  0.00    +0.000 OA
BRANCH  24  25
ATOM     25  S   UNL     1      -6.590  11.989  19.105  0.00  0.00    +0.000 S 
ATOM     26  C   UNL     1      -7.631  13.203  19.876  0.00  0.00    +0.000 C 
ATOM     27  O   UNL     1      -7.001  11.932  17.717  0.00  0.00    +0.000 OA
ATOM     28  O   UNL     1      -6.575  10.839  19.986  0.00  0.00    +0.000 OA
ENDBRANCH  24  25
ENDBRANCH  11  24
TORSDOF 6
ENDMDL
MODEL 5
REMARK VINA RESULT:      -5.7      1.976      5.145
REMARK  Name = 
REMARK  10 active torsions:
REMARK  status: ('A' for Active; 'I' for Inactive)
REMARK    1  A    between atoms: C_1  and  N_2
REMARK    2  A    between atoms: N_2  and  S_3
REMARK    3  A    between atoms: S_3  and  C_6
REMARK    4  A    between atoms: C_8  and  S_9
REMARK    5  A    between atoms: S_9  and  N_12
REMARK    6  A    between atoms: N_12  and  C_13
REMARK    7  A    between atoms: C_17  and  C_18
REMARK    8  A    between atoms: C_21  and  O_22
REMARK    9  A    between atoms: O_22  and  S_23
REMARK   10  A    between atoms: S_23  and  C_24
REMARK                            x       y       z     vdW  Elec       q    Type
REMARK                         _______ _______ _______ _____ _____    ______ ____
ROOT
ATOM      1  C   UNL     1      -3.588  12.652  20.843  0.00  0.00    +0.000 A 
ATOM      2  C   UNL     1      -2.333  12.226  21.271  0.00  0.00    +0.000 A 
ATOM      3  C   UNL     1      -1.513  11.503  20.397  0.00  0.00    +0.000 A 
ATOM      4  C   UNL     1      -1.959  11.178  19.085  0.00  0.00    +0.000 A 
ATOM      5  C   UNL     1      -1.236  10.400  18.148  0.00  0.00    +0.000 A 
ATOM      6  C   UNL     1      -1.737  10.145  16.874  0.00  0.00    +0.000 A 
ATOM      7  C   UNL     1      -2.952  10.694  16.533  0.00  0.00    +0.000 A 
ATOM      8  C   UNL     1      -3.573  10.471  15.187  0.00  0.00    +0.000 C 
ATOM      9  N   UNL     1      -3.661  11.445  17.403  0.00  0.00    +0.000 NA
ATOM     10  C   UNL     1      -3.225  11.659  18.655  0.00  0.00    +0.000 A 
ATOM     11  C   UNL     1      -4.035  12.385  19.538  0.00  0.00    +0.000 A 
ENDROOT
BRANCH   1  12
ATOM     12  S   UNL     1      -4.651  13.488  21.995  0.00  0.00    +0.000 S 
ATOM     13  O   UNL     1      -5.634  12.540  22.469  0.00  0.00    +0.000 OA
ATOM     14  O   UNL     1      -5.034  14.743  21.385  0.00  0.00    +0.000 OA
BRANCH  12  16
ATOM     15  C   UNL     1      -3.859  13.218  24.568  0.00  0.00    +0.000 C 
ATOM     16  N   UNL     1      -3.620  13.854  23.275  0.00  0.00    +0.000 NA
ATOM     17  H   UNL     1      -2.647  13.933  22.985  0.00  0.00    +0.000 HD
ENDBRANCH  12  16
ENDBRANCH   1  12
BRANCH   3  18
ATOM     18  S   UNL     1       0.155  11.181  20.956  0.00  0.00    +0.000 S 
ATOM     19  O   UNL     1       0.530   9.871  20.470  0.00  0.00    +0.000 OA
ATOM     20  O   UNL     1       0.972  12.340  20.668  0.00  0.00    +0.000 OA
BRANCH  18  21
ATOM     21  N   UNL     1       0.021  11.056  22.626  0.00  0.00    +0.000 NA
ATOM     22  C   UNL     1      -0.233   9.736  23.200  0.00  0.00    +0.000 C 
ATOM     23  H   UNL     1      -0.536  11.825  23.001  0.00  0.00    +0.000 HD
ENDBRANCH  18  21
ENDBRANCH   3  18
BRANCH  11  24
ATOM     24  O   UNL     1      -5.245  12.959  19.198  0.00  0.00    +0.000 OA
BRANCH  24  25
ATOM     25  S   UNL     1      -6.677  12.175  19.165  0.00  0.00    +0.000 S 
ATOM     26  C   UNL     1      -7.008  12.470  17.445  0.00  0.00    +0.000 C 
ATOM     27  O   UNL     1      -6.452  10.749  19.290  0.00  0.00    +0.000 OA
ATOM     28  O   UNL     1      -7.689  12.897  19.910  0.00  0.00    +0.000 OA
ENDBRANCH  24  25
ENDBRANCH  11  24
TORSDOF 6
ENDMDL
MODEL 6
REMARK VINA RESULT:      -5.7      1.128      1.304
REMARK  Name = 
REMARK  10 active torsions:
REMARK  status: ('A' for Active; 'I' for Inactive)
REMARK    1  A    between atoms: C_1  and  N_2
REMARK    2  A    between atoms: N_2  and  S_3
REMARK    3  A    between atoms: S_3  and  C_6
REMARK    4  A    between atoms: C_8  and  S_9
REMARK    5  A    between atoms: S_9  and  N_12
REMARK    6  A    between atoms: N_12  and  C_13
REMARK    7  A    between atoms: C_17  and  C_18
REMARK    8  A    between atoms: C_21  and  O_22
REMARK    9  A    between atoms: O_22  and  S_23
REMARK   10  A    between atoms: S_23  and  C_24
REMARK                            x       y       z     vdW  Elec       q    Type
REMARK                         _______ _______ _______ _____ _____    ______ ____
ROOT
ATOM      1  C   UNL     1      -2.786  12.803  21.340  0.00  0.00    +0.000 A 
ATOM      2  C   UNL     1      -4.154  12.852  21.601  0.00  0.00    +0.000 A 
ATOM      3  C   UNL     1      -5.062  12.492  20.598  0.00  0.00    +0.000 A 
ATOM      4  C   UNL     1      -4.602  12.101  19.309  0.00  0.00    +0.000 A 
ATOM      5  C   UNL     1      -5.435  11.779  18.210  0.00  0.00    +0.000 A 
ATOM      6  C   UNL     1      -4.903  11.385  16.985  0.00  0.00    +0.000 A 
ATOM      7  C   UNL     1      -3.534  11.287  16.873  0.00  0.00    +0.000 A 
ATOM      8  C   UNL     1      -2.871  10.876  15.594  0.00  0.00    +0.000 C 
ATOM      9  N   UNL     1      -2.716  11.581  17.906  0.00  0.00    +0.000 NA
ATOM     10  C   UNL     1      -3.202  12.017  19.079  0.00  0.00    +0.000 A 
ATOM     11  C   UNL     1      -2.304  12.377  20.092  0.00  0.00    +0.000 A 
ENDROOT
BRANCH   1  12
ATOM     12  S   UNL     1      -1.654  13.351  22.594  0.00  0.00    +0.000 S 
ATOM     13  O   UNL     1      -0.955  12.195  23.106  0.00  0.00    +0.000 OA
ATOM     14  O   UNL     1      -2.385  14.247  23.464  0.00  0.00    +0.000 OA
BRANCH  12  16
ATOM     15  C   UNL     1       0.183  15.331  22.445  0.00  0.00    +0.000 C 
ATOM     16  N   UNL     1      -0.550  14.289  21.734  0.00  0.00    +0.000 NA
ATOM     17  H   UNL     1      -0.019  13.745  21.056  0.00  0.00    +0.000 HD
ENDBRANCH  12  16
ENDBRANCH   1  12
BRANCH   3  18
ATOM     18  S   UNL     1      -6.779  12.383  21.084  0.00  0.00    +0.000 S 
ATOM     19  O   UNL     1      -7.535  13.239  20.197  0.00  0.00    +0.000 OA
ATOM     20  O   UNL     1      -7.129  10.988  21.243  0.00  0.00    +0.000 OA
BRANCH  18  21
ATOM     21  N   UNL     1      -6.832  13.096  22.604  0.00  0.00    +0.000 NA
ATOM     22  C   UNL     1      -7.395  12.323  23.709  0.00  0.00    +0.000 C 
ATOM     23  H   UNL     1      -7.136  14.069  22.535  0.00  0.00    +0.000 HD
ENDBRANCH  18  21
ENDBRANCH   3  18
BRANCH  11  24
ATOM     24  O   UNL     1      -0.930  12.261  19.997  0.00  0.00    +0.000 OA
BRANCH  24  25
ATOM     25  S   UNL     1      -0.114  10.850  19.895  0.00  0.00    +0.000 S 
ATOM     26  C   UNL     1       1.358  11.430  20.701  0.00  0.00    +0.000 C 
ATOM     27  O   UNL     1      -0.708   9.881  20.794  0.00  0.00    +0.000 OA
ATOM     28  O   UNL     1       0.255  10.554  18.525  0.00  0.00    +0.000 OA
ENDBRANCH  24  25
ENDBRANCH  11  24
TORSDOF 6
ENDMDL
MODEL 7
REMARK VINA RESULT:      -5.7      1.474      1.900
REMARK  Name = 
REMARK  10 active torsions:
REMARK  status: ('A' for Active; 'I' for Inactive)
REMARK    1  A    between atoms: C_1  and  N_2
REMARK    2  A    between atoms: N_2  and  S_3
REMARK    3  A    between atoms: S_3  and  C_6
REMARK    4  A    between atoms: C_8  and  S_9
REMARK    5  A    between atoms: S_9  and  N_12
REMARK    6  A    between atoms: N_12  and  C_13
REMARK    7  A    between atoms: C_17  and  C_18
REMARK    8  A    between atoms: C_21  and  O_22
REMARK    9  A    between atoms: O_22  and  S_23
REMARK   10  A    between atoms: S_23  and  C_24
REMARK                            x       y       z     vdW  Elec       q    Type
REMARK                         _______ _______ _______ _____ _____    ______ ____
ROOT
ATOM      1  C   UNL     1      -2.641  12.729  21.432  0.00  0.00    +0.000 A 
ATOM      2  C   UNL     1      -4.010  12.831  21.670  0.00  0.00    +0.000 A 
ATOM      3  C   UNL     1      -4.915  12.515  20.650  0.00  0.00    +0.000 A 
ATOM      4  C   UNL     1      -4.450  12.115  19.366  0.00  0.00    +0.000 A 
ATOM      5  C   UNL     1      -5.276  11.835  18.251  0.00  0.00    +0.000 A 
ATOM      6  C   UNL     1      -4.741  11.429  17.032  0.00  0.00    +0.000 A 
ATOM      7  C   UNL     1      -3.375  11.277  16.942  0.00  0.00    +0.000 A 
ATOM      8  C   UNL     1      -2.708  10.848  15.670  0.00  0.00    +0.000 C 
ATOM      9  N   UNL     1      -2.563  11.529  17.990  0.00  0.00    +0.000 NA
ATOM     10  C   UNL     1      -3.051  11.976  19.158  0.00  0.00    +0.000 A 
ATOM     11  C   UNL     1      -2.155  12.292  20.189  0.00  0.00    +0.000 A 
ENDROOT
BRANCH   1  12
ATOM     12  S   UNL     1      -1.508  13.221  22.708  0.00  0.00    +0.000 S 
ATOM     13  O   UNL     1      -2.254  13.374  23.937  0.00  0.00    +0.000 OA
ATOM     14  O   UNL     1      -0.701  14.294  22.168  0.00  0.00    +0.000 OA
BRANCH  12  16
ATOM     15  C   UNL     1      -1.109  10.589  23.190  0.00  0.00    +0.000 C 
ATOM     16  N   UNL     1      -0.504  11.879  22.872  0.00  0.00    +0.000 NA
ATOM     17  H   UNL     1       0.249  11.868  22.187  0.00  0.00    +0.000 HD
ENDBRANCH  12  16
ENDBRANCH   1  12
BRANCH   3  18
ATOM     18  S   UNL     1      -6.643  12.473  21.107  0.00  0.00    +0.000 S 
ATOM     19  O   UNL     1      -7.328  13.461  20.302  0.00  0.00    +0.000 OA
ATOM     20  O   UNL     1      -7.085  11.095  21.123  0.00  0.00    +0.000 OA
BRANCH  18  21
ATOM     21  N   UNL     1      -6.673  13.035  22.689  0.00  0.00    +0.000 NA
ATOM     22  C   UNL     1      -7.778  12.615  23.549  0.00  0.00    +0.000 C 
ATOM     23  H   UNL     1      -6.427  14.026  22.724  0.00  0.00    +0.000 HD
ENDBRANCH  18  21
ENDBRANCH   3  18
BRANCH  11  24
ATOM     24  O   UNL     1      -0.786  12.121  20.115  0.00  0.00    +0.000 OA
BRANCH  24  25
ATOM     25  S   UNL     1       0.203  12.914  19.086  0.00  0.00    +0.000 S 
ATOM     26  C   UNL     1       1.547  13.103  20.231  0.00  0.00    +0.000 C 
ATOM     27  O   UNL     1       0.673  11.999  18.064  0.00  0.00    +0.000 OA
ATOM     28  O   UNL     1      -0.290  14.246  18.805  0.00  0.00    +0.000 OA
ENDBRANCH  24  25
ENDBRANCH  11  24
TORSDOF 6
ENDMDL
MODEL 8
REMARK VINA RESULT:      -5.7      2.092      4.544
REMARK  Name = 
REMARK  10 active torsions:
REMARK  status: ('A' for Active; 'I' for Inactive)
REMARK    1  A    between atoms: C_1  and  N_2
REMARK    2  A    between atoms: N_2  and  S_3
REMARK    3  A    between atoms: S_3  and  C_6
REMARK    4  A    between atoms: C_8  and  S_9
REMARK    5  A    between atoms: S_9  and  N_12
REMARK    6  A    between atoms: N_12  and  C_13
REMARK    7  A    between atoms: C_17  and  C_18
REMARK    8  A    between atoms: C_21  and  O_22
REMARK    9  A    between atoms: O_22  and  S_23
REMARK   10  A    between atoms: S_23  and  C_24
REMARK                            x       y       z     vdW  Elec       q    Type
REMARK                         _______ _______ _______ _____ _____    ______ ____
ROOT
ATOM      1  C   UNL     1      -3.048  12.109  19.193  0.00  0.00    +0.000 A 
ATOM      2  C   UNL     1      -4.383  11.887  18.862  0.00  0.00    +0.000 A 
ATOM      3  C   UNL     1      -5.382  12.146  19.807  0.00  0.00    +0.000 A 
ATOM      4  C   UNL     1      -5.046  12.609  21.111  0.00  0.00    +0.000 A 
ATOM      5  C   UNL     1      -5.971  12.841  22.157  0.00  0.00    +0.000 A 
ATOM      6  C   UNL     1      -5.560  13.315  23.400  0.00  0.00    +0.000 A 
ATOM      7  C   UNL     1      -4.221  13.583  23.582  0.00  0.00    +0.000 A 
ATOM      8  C   UNL     1      -3.685  14.091  24.886  0.00  0.00    +0.000 C 
ATOM      9  N   UNL     1      -3.318  13.378  22.600  0.00  0.00    +0.000 NA
ATOM     10  C   UNL     1      -3.682  12.869  21.413  0.00  0.00    +0.000 A 
ATOM     11  C   UNL     1      -2.691  12.609  20.456  0.00  0.00    +0.000 A 
ENDROOT
BRANCH   1  12
ATOM     12  S   UNL     1      -1.790  11.688  18.013  0.00  0.00    +0.000 S 
ATOM     13  O   UNL     1      -0.857  12.789  17.938  0.00  0.00    +0.000 OA
ATOM     14  O   UNL     1      -2.464  11.179  16.838  0.00  0.00    +0.000 OA
BRANCH  12  16
ATOM     15  C   UNL     1       0.280   9.954  18.187  0.00  0.00    +0.000 C 
ATOM     16  N   UNL     1      -1.003  10.386  18.735  0.00  0.00    +0.000 NA
ATOM     17  H   UNL     1      -1.078  10.397  19.751  0.00  0.00    +0.000 HD
ENDBRANCH  12  16
ENDBRANCH   1  12
BRANCH   3  18
ATOM     18  S   UNL     1      -7.071  12.035  19.229  0.00  0.00    +0.000 S 
ATOM     19  O   UNL     1      -7.766  13.215  19.694  0.00  0.00    +0.000 OA
ATOM     20  O   UNL     1      -7.058  11.687  17.825  0.00  0.00    +0.000 OA
BRANCH  18  21
ATOM     21  N   UNL     1      -7.717  10.732  20.070  0.00  0.00    +0.000 NA
ATOM     22  C   UNL     1      -7.159   9.404  19.819  0.00  0.00    +0.000 C 
ATOM     23  H   UNL     1      -8.736  10.793  20.101  0.00  0.00    +0.000 HD
ENDBRANCH  18  21
ENDBRANCH   3  18
BRANCH  11  24
ATOM     24  O   UNL     1      -1.350  12.896  20.621  0.00  0.00    +0.000 OA
BRANCH  24  25
ATOM     25  S   UNL     1      -0.354  12.145  21.676  0.00  0.00    +0.000 S 
ATOM     26  C   UNL     1       1.140  12.446  20.765  0.00  0.00    +0.000 C 
ATOM     27  O   UNL     1      -0.250  12.933  22.888  0.00  0.00    +0.000 OA
ATOM     28  O   UNL     1      -0.563  10.711  21.666  0.00  0.00    +0.000 OA
ENDBRANCH  24  25
ENDBRANCH  11  24
TORSDOF 6
ENDMDL
MODEL 9
REMARK VINA RESULT:      -5.7      2.269      5.224
REMARK  Name = 
REMARK  10 active torsions:
REMARK  status: ('A' for Active; 'I' for Inactive)
REMARK    1  A    between atoms: C_1  and  N_2
REMARK    2  A    between atoms: N_2  and  S_3
REMARK    3  A    between atoms: S_3  and  C_6
REMARK    4  A    between atoms: C_8  and  S_9
REMARK    5  A    between atoms: S_9  and  N_12
REMARK    6  A    between atoms: N_12  and  C_13
REMARK    7  A    between atoms: C_17  and  C_18
REMARK    8  A    between atoms: C_21  and  O_22
REMARK    9  A    between atoms: O_22  and  S_23
REMARK   10  A    between atoms: S_23  and  C_24
REMARK                            x       y       z     vdW  Elec       q    Type
REMARK                         _______ _______ _______ _____ _____    ______ ____
ROOT
ATOM      1  C   UNL     1      -3.352  12.623  20.740  0.00  0.00    +0.000 A 
ATOM      2  C   UNL     1      -2.059  12.216  21.061  0.00  0.00    +0.000 A 
ATOM      3  C   UNL     1      -1.317  11.475  20.134  0.00  0.00    +0.000 A 
ATOM      4  C   UNL     1      -1.879  11.113  18.878  0.00  0.00    +0.000 A 
ATOM      5  C   UNL     1      -1.239  10.315  17.898  0.00  0.00    +0.000 A 
ATOM      6  C   UNL     1      -1.853  10.024  16.683  0.00  0.00    +0.000 A 
ATOM      7  C   UNL     1      -3.099  10.557  16.441  0.00  0.00    +0.000 A 
ATOM      8  C   UNL     1      -3.839  10.294  15.164  0.00  0.00    +0.000 C 
ATOM      9  N   UNL     1      -3.730  11.326  17.353  0.00  0.00    +0.000 NA
ATOM     10  C   UNL     1      -3.183  11.574  18.553  0.00  0.00    +0.000 A 
ATOM     11  C   UNL     1      -3.915  12.319  19.489  0.00  0.00    +0.000 A 
ENDROOT
BRANCH   1  12
ATOM     12  S   UNL     1      -4.311  13.482  21.963  0.00  0.00    +0.000 S 
ATOM     13  O   UNL     1      -3.398  14.117  22.886  0.00  0.00    +0.000 OA
ATOM     14  O   UNL     1      -5.338  12.568  22.415  0.00  0.00    +0.000 OA
BRANCH  12  16
ATOM     15  C   UNL     1      -4.357  15.933  20.820  0.00  0.00    +0.000 C 
ATOM     16  N   UNL     1      -5.078  14.689  21.075  0.00  0.00    +0.000 NA
ATOM     17  H   UNL     1      -5.625  14.318  20.300  0.00  0.00    +0.000 HD
ENDBRANCH  12  16
ENDBRANCH   1  12
BRANCH   3  18
ATOM     18  S   UNL     1       0.398  11.178  20.545  0.00  0.00    +0.000 S 
ATOM     19  O   UNL     1       1.196  11.631  19.427  0.00  0.00    +0.000 OA
ATOM     20  O   UNL     1       0.647  11.674  21.881  0.00  0.00    +0.000 OA
BRANCH  18  21
ATOM     21  N   UNL     1       0.535   9.505  20.590  0.00  0.00    +0.000 NA
ATOM     22  C   UNL     1      -0.269   8.773  21.567  0.00  0.00    +0.000 C 
ATOM     23  H   UNL     1       1.513   9.222  20.510  0.00  0.00    +0.000 HD
ENDBRANCH  18  21
ENDBRANCH   3  18
BRANCH  11  24
ATOM     24  O   UNL     1      -5.156  12.877  19.247  0.00  0.00    +0.000 OA
BRANCH  24  25
ATOM     25  S   UNL     1      -6.573  12.066  19.297  0.00  0.00    +0.000 S 
ATOM     26  C   UNL     1      -7.007  12.352  17.599  0.00  0.00    +0.000 C 
ATOM     27  O   UNL     1      -6.314  10.645  19.410  0.00  0.00    +0.000 OA
ATOM     28  O   UNL     1      -7.553  12.771  20.098  0.00  0.00    +0.000 OA
ENDBRANCH  24  25
ENDBRANCH  11  24
TORSDOF 6
ENDMDL
