MODEL 1
REMARK VINA RESULT:      -9.3      0.000      0.000
REMARK  Name = 
REMARK  9 active torsions:
REMARK  status: ('A' for Active; 'I' for Inactive)
REMARK    1  A    between atoms: C_1  and  C_2
REMARK    2  A    between atoms: C_2  and  C_3
REMARK    3  A    between atoms: C_3  and  C_4
REMARK    4  A    between atoms: C_8  and  O_9
REMARK    5  A    between atoms: O_9  and  C_10
REMARK    6  A    between atoms: C_14  and  C_15
REMARK    7  A    between atoms: N_22  and  C_23
REMARK    8  A    between atoms: C_23  and  C_24
REMARK    9  A    between atoms: C_30  and  C_31
REMARK                            x       y       z     vdW  Elec       q    Type
REMARK                         _______ _______ _______ _____ _____    ______ ____
ROOT
ATOM      1  C   UNL     1       0.294  11.974  20.971  0.00  0.00    +0.000 A 
ATOM      2  N   UNL     1       0.843  13.099  21.403  0.00  0.00    +0.000 NA
ATOM      3  C   UNL     1       1.760  13.483  20.452  0.00  0.00    +0.000 A 
ATOM      4  C   UNL     1       2.606  14.623  20.412  0.00  0.00    +0.000 A 
ATOM      5  C   UNL     1       3.452  14.824  19.310  0.00  0.00    +0.000 A 
ATOM      6  C   UNL     1       3.422  13.890  18.266  0.00  0.00    +0.000 A 
ATOM      7  C   UNL     1       2.567  12.770  18.269  0.00  0.00    +0.000 A 
ATOM      8  C   UNL     1       1.776  12.567  19.405  0.00  0.00    +0.000 A 
ATOM      9  N   UNL     1       0.907  11.559  19.800  0.00  0.00    +0.000 N 
ENDROOT
BRANCH   1  10
ATOM     10  C   UNL     1      -0.814  11.241  21.675  0.00  0.00    +0.000 C 
BRANCH  10  12
ATOM     11  C   UNL     1      -0.573   8.882  22.653  0.00  0.00    +0.000 C 
ATOM     12  C   UNL     1      -0.332  10.374  22.844  0.00  0.00    +0.000 C 
ENDBRANCH  10  12
ENDBRANCH   1  10
BRANCH   5  13
ATOM     13  O   UNL     1       4.348  15.857  19.111  0.00  0.00    +0.000 OA
BRANCH  13  14
ATOM     14  C   UNL     1       5.270  16.211  20.156  0.00  0.00    +0.000 C 
ATOM     15  C   UNL     1       6.100  17.436  19.773  0.00  0.00    +0.000 C 
ATOM     16  C   UNL     1       7.193  17.147  18.744  0.00  0.00    +0.000 C 
ATOM     17  N   UNL     1       8.077  16.064  19.196  0.00  0.00    +0.000 N 
ATOM     18  C   UNL     1       9.384  15.972  18.717  0.00  0.00    +0.000 C 
ATOM     19  C   UNL     1       9.863  16.728  17.495  0.00  0.00    +0.000 C 
ATOM     20  N   UNL     1      10.290  15.260  19.309  0.00  0.00    +0.000 NA
ATOM     21  C   UNL     1       7.357  14.814  19.500  0.00  0.00    +0.000 C 
ATOM     22  C   UNL     1       6.213  15.039  20.488  0.00  0.00    +0.000 C 
ATOM     23  H   UNL     1       9.895  14.907  20.184  0.00  0.00    +0.000 HD
ENDBRANCH  13  14
ENDBRANCH   5  13
BRANCH   9  24
ATOM     24  C   UNL     1       0.502  10.427  18.973  0.00  0.00    +0.000 C 
BRANCH  24  25
ATOM     25  C   UNL     1       1.419   9.220  18.825  0.00  0.00    +0.000 A 
ATOM     26  C   UNL     1       1.569   8.519  20.032  0.00  0.00    +0.000 A 
ATOM     27  C   UNL     1       2.065   7.239  20.041  0.00  0.00    +0.000 A 
ATOM     28  C   UNL     1       2.518   6.685  18.849  0.00  0.00    +0.000 A 
ATOM     29  C   UNL     1       2.757   5.343  18.816  0.00  0.00    +0.000 A 
ATOM     30  C   UNL     1       4.114   5.092  18.784  0.00  0.00    +0.000 A 
ATOM     31  C   UNL     1       4.888   5.894  17.953  0.00  0.00    +0.000 A 
ATOM     32  C   UNL     1       4.241   7.001  17.292  0.00  0.00    +0.000 A 
ATOM     33  C   UNL     1       2.977   7.521  17.849  0.00  0.00    +0.000 A 
ATOM     34  C   UNL     1       2.201   8.749  17.726  0.00  0.00    +0.000 A 
BRANCH  31  35
ATOM     35  C   UNL     1       6.371   5.582  18.005  0.00  0.00    +0.000 C 
ATOM     36  N   UNL     1       7.310   6.442  17.798  0.00  0.00    +0.000 NA
ATOM     37  N   UNL     1       6.850   4.345  18.353  0.00  0.00    +0.000 N 
ATOM     38  H   UNL     1       6.951   7.363  17.573  0.00  0.00    +0.000 HD
ATOM     39  H   UNL     1       6.363   3.828  19.079  0.00  0.00    +0.000 HD
ATOM     40  H   UNL     1       7.845   4.446  18.574  0.00  0.00    +0.000 HD
ENDBRANCH  31  35
ENDBRANCH  24  25
ENDBRANCH   9  24
TORSDOF 7
ENDMDL
MODEL 2
REMARK VINA RESULT:      -9.3      5.194      8.351
REMARK  Name = 
REMARK  9 active torsions:
REMARK  status: ('A' for Active; 'I' for Inactive)
REMARK    1  A    between atoms: C_1  and  C_2
REMARK    2  A    between atoms: C_2  and  C_3
REMARK    3  A    between atoms: C_3  and  C_4
REMARK    4  A    between atoms: C_8  and  O_9
REMARK    5  A    between atoms: O_9  and  C_10
REMARK    6  A    between atoms: C_14  and  C_15
REMARK    7  A    between atoms: N_22  and  C_23
REMARK    8  A    between atoms: C_23  and  C_24
REMARK    9  A    between atoms: C_30  and  C_31
REMARK                            x       y       z     vdW  Elec       q    Type
REMARK                         _______ _______ _______ _____ _____    ______ ____
ROOT
ATOM      1  C   UNL     1      -1.532  10.669  18.253  0.00  0.00    +0.000 A 
ATOM      2  N   UNL     1      -2.566  11.281  18.807  0.00  0.00    +0.000 NA
ATOM      3  C   UNL     1      -2.063  12.085  19.804  0.00  0.00    +0.000 A 
ATOM      4  C   UNL     1      -2.738  12.965  20.690  0.00  0.00    +0.000 A 
ATOM      5  C   UNL     1      -2.002  13.716  21.621  0.00  0.00    +0.000 A 
ATOM      6  C   UNL     1      -0.608  13.580  21.635  0.00  0.00    +0.000 A 
ATOM      7  C   UNL     1       0.086  12.738  20.743  0.00  0.00    +0.000 A 
ATOM      8  C   UNL     1      -0.678  11.962  19.865  0.00  0.00    +0.000 A 
ATOM      9  N   UNL     1      -0.366  10.980  18.934  0.00  0.00    +0.000 N 
ENDROOT
BRANCH   1  10
ATOM     10  C   UNL     1      -1.622   9.743  17.071  0.00  0.00    +0.000 C 
BRANCH  10  12
ATOM     11  C   UNL     1      -2.759  10.108  14.801  0.00  0.00    +0.000 C 
ATOM     12  C   UNL     1      -2.938   9.865  16.294  0.00  0.00    +0.000 C 
ENDBRANCH  10  12
ENDBRANCH   1  10
BRANCH   5  13
ATOM     13  O   UNL     1      -2.488  14.601  22.565  0.00  0.00    +0.000 OA
BRANCH  13  14
ATOM     14  C   UNL     1      -2.858  14.120  23.869  0.00  0.00    +0.000 C 
ATOM     15  C   UNL     1      -3.413  12.698  23.799  0.00  0.00    +0.000 C 
ATOM     16  C   UNL     1      -4.833  12.614  23.236  0.00  0.00    +0.000 C 
ATOM     17  N   UNL     1      -5.755  13.477  23.987  0.00  0.00    +0.000 N 
ATOM     18  C   UNL     1      -7.121  13.198  24.012  0.00  0.00    +0.000 C 
ATOM     19  C   UNL     1      -7.779  12.243  23.038  0.00  0.00    +0.000 C 
ATOM     20  N   UNL     1      -7.916  13.708  24.898  0.00  0.00    +0.000 NA
ATOM     21  C   UNL     1      -5.332  14.889  24.023  0.00  0.00    +0.000 C 
ATOM     22  C   UNL     1      -3.898  15.043  24.530  0.00  0.00    +0.000 C 
ATOM     23  H   UNL     1      -7.348  14.223  25.575  0.00  0.00    +0.000 HD
ENDBRANCH  13  14
ENDBRANCH   5  13
BRANCH   9  24
ATOM     24  C   UNL     1       0.986  10.585  18.551  0.00  0.00    +0.000 C 
BRANCH  24  25
ATOM     25  C   UNL     1       1.473   9.167  18.821  0.00  0.00    +0.000 A 
ATOM     26  C   UNL     1       1.959   8.545  17.660  0.00  0.00    +0.000 A 
ATOM     27  C   UNL     1       2.742   7.421  17.744  0.00  0.00    +0.000 A 
ATOM     28  C   UNL     1       2.959   6.844  18.990  0.00  0.00    +0.000 A 
ATOM     29  C   UNL     1       3.937   5.900  19.098  0.00  0.00    +0.000 A 
ATOM     30  C   UNL     1       3.387   4.644  19.248  0.00  0.00    +0.000 A 
ATOM     31  C   UNL     1       2.296   4.527  20.102  0.00  0.00    +0.000 A 
ATOM     32  C   UNL     1       1.747   5.737  20.664  0.00  0.00    +0.000 A 
ATOM     33  C   UNL     1       2.019   7.021  19.987  0.00  0.00    +0.000 A 
ATOM     34  C   UNL     1       1.437   8.357  19.997  0.00  0.00    +0.000 A 
BRANCH  31  35
ATOM     35  C   UNL     1       1.725   3.124  20.181  0.00  0.00    +0.000 C 
ATOM     36  N   UNL     1       0.642   2.807  20.806  0.00  0.00    +0.000 NA
ATOM     37  N   UNL     1       2.287   2.063  19.519  0.00  0.00    +0.000 N 
ATOM     38  H   UNL     1       0.212   3.601  21.266  0.00  0.00    +0.000 HD
ATOM     39  H   UNL     1       2.678   2.225  18.596  0.00  0.00    +0.000 HD
ATOM     40  H   UNL     1       1.599   1.305  19.502  0.00  0.00    +0.000 HD
ENDBRANCH  31  35
ENDBRANCH  24  25
ENDBRANCH   9  24
TORSDOF 7
ENDMDL
MODEL 3
REMARK VINA RESULT:      -9.0      1.686      2.647
REMARK  Name = 
REMARK  9 active torsions:
REMARK  status: ('A' for Active; 'I' for Inactive)
REMARK    1  A    between atoms: C_1  and  C_2
REMARK    2  A    between atoms: C_2  and  C_3
REMARK    3  A    between atoms: C_3  and  C_4
REMARK    4  A    between atoms: C_8  and  O_9
REMARK    5  A    between atoms: O_9  and  C_10
REMARK    6  A    between atoms: C_14  and  C_15
REMARK    7  A    between atoms: N_22  and  C_23
REMARK    8  A    between atoms: C_23  and  C_24
REMARK    9  A    between atoms: C_30  and  C_31
REMARK                            x       y       z     vdW  Elec       q    Type
REMARK                         _______ _______ _______ _____ _____    ______ ____
ROOT
ATOM      1  C   UNL     1      -1.040  11.572  18.832  0.00  0.00    +0.000 A 
ATOM      2  N   UNL     1      -0.830  12.817  18.438  0.00  0.00    +0.000 NA
ATOM      3  C   UNL     1       0.309  13.249  19.079  0.00  0.00    +0.000 A 
ATOM      4  C   UNL     1       0.982  14.496  18.997  0.00  0.00    +0.000 A 
ATOM      5  C   UNL     1       2.160  14.702  19.733  0.00  0.00    +0.000 A 
ATOM      6  C   UNL     1       2.646  13.651  20.521  0.00  0.00    +0.000 A 
ATOM      7  C   UNL     1       2.014  12.394  20.592  0.00  0.00    +0.000 A 
ATOM      8  C   UNL     1       0.813  12.238  19.892  0.00  0.00    +0.000 A 
ATOM      9  N   UNL     1      -0.115  11.209  19.798  0.00  0.00    +0.000 N 
ENDROOT
BRANCH   1  10
ATOM     10  C   UNL     1      -2.147  10.691  18.321  0.00  0.00    +0.000 C 
BRANCH  10  12
ATOM     11  C   UNL     1      -2.651  10.458  15.817  0.00  0.00    +0.000 C 
ATOM     12  C   UNL     1      -1.813   9.989  16.999  0.00  0.00    +0.000 C 
ENDBRANCH  10  12
ENDBRANCH   1  10
BRANCH   5  13
ATOM     13  O   UNL     1       2.931  15.848  19.789  0.00  0.00    +0.000 OA
BRANCH  13  14
ATOM     14  C   UNL     1       3.458  16.411  18.575  0.00  0.00    +0.000 C 
ATOM     15  C   UNL     1       3.722  15.328  17.530  0.00  0.00    +0.000 C 
ATOM     16  C   UNL     1       4.962  14.480  17.815  0.00  0.00    +0.000 C 
ATOM     17  N   UNL     1       6.156  15.320  17.978  0.00  0.00    +0.000 N 
ATOM     18  C   UNL     1       7.425  14.799  17.734  0.00  0.00    +0.000 C 
ATOM     19  C   UNL     1       7.693  13.311  17.629  0.00  0.00    +0.000 C 
ATOM     20  N   UNL     1       8.460  15.554  17.543  0.00  0.00    +0.000 NA
ATOM     21  C   UNL     1       6.011  16.337  19.037  0.00  0.00    +0.000 C 
ATOM     22  C   UNL     1       4.759  17.192  18.842  0.00  0.00    +0.000 C 
ATOM     23  H   UNL     1       8.141  16.525  17.504  0.00  0.00    +0.000 HD
ENDBRANCH  13  14
ENDBRANCH   5  13
BRANCH   9  24
ATOM     24  C   UNL     1       0.039   9.883  20.387  0.00  0.00    +0.000 C 
BRANCH  24  25
ATOM     25  C   UNL     1       1.034   8.894  19.793  0.00  0.00    +0.000 A 
ATOM     26  C   UNL     1       1.411   7.905  20.716  0.00  0.00    +0.000 A 
ATOM     27  C   UNL     1       2.018   6.749  20.294  0.00  0.00    +0.000 A 
ATOM     28  C   UNL     1       2.351   6.616  18.951  0.00  0.00    +0.000 A 
ATOM     29  C   UNL     1       2.705   5.380  18.497  0.00  0.00    +0.000 A 
ATOM     30  C   UNL     1       4.061   5.322  18.250  0.00  0.00    +0.000 A 
ATOM     31  C   UNL     1       4.638   6.418  17.618  0.00  0.00    +0.000 A 
ATOM     32  C   UNL     1       3.808   7.575  17.385  0.00  0.00    +0.000 A 
ATOM     33  C   UNL     1       2.590   7.752  18.201  0.00  0.00    +0.000 A 
ATOM     34  C   UNL     1       1.696   8.855  18.528  0.00  0.00    +0.000 A 
BRANCH  31  35
ATOM     35  C   UNL     1       6.136   6.295  17.419  0.00  0.00    +0.000 C 
ATOM     36  N   UNL     1       6.831   5.248  17.711  0.00  0.00    +0.000 NA
ATOM     37  N   UNL     1       6.884   7.284  16.833  0.00  0.00    +0.000 N 
ATOM     38  H   UNL     1       6.269   4.508  18.113  0.00  0.00    +0.000 HD
ATOM     39  H   UNL     1       6.475   7.803  16.062  0.00  0.00    +0.000 HD
ATOM     40  H   UNL     1       7.787   6.880  16.570  0.00  0.00    +0.000 HD
ENDBRANCH  31  35
ENDBRANCH  24  25
ENDBRANCH   9  24
TORSDOF 7
ENDMDL
MODEL 4
REMARK VINA RESULT:      -8.9      1.861      2.459
REMARK  Name = 
REMARK  9 active torsions:
REMARK  status: ('A' for Active; 'I' for Inactive)
REMARK    1  A    between atoms: C_1  and  C_2
REMARK    2  A    between atoms: C_2  and  C_3
REMARK    3  A    between atoms: C_3  and  C_4
REMARK    4  A    between atoms: C_8  and  O_9
REMARK    5  A    between atoms: O_9  and  C_10
REMARK    6  A    between atoms: C_14  and  C_15
REMARK    7  A    between atoms: N_22  and  C_23
REMARK    8  A    between atoms: C_23  and  C_24
REMARK    9  A    between atoms: C_30  and  C_31
REMARK                            x       y       z     vdW  Elec       q    Type
REMARK                         _______ _______ _______ _____ _____    ______ ____
ROOT
ATOM      1  C   UNL     1       0.733  12.384  21.048  0.00  0.00    +0.000 A 
ATOM      2  N   UNL     1       1.397  13.434  21.504  0.00  0.00    +0.000 NA
ATOM      3  C   UNL     1       2.265  13.817  20.509  0.00  0.00    +0.000 A 
ATOM      4  C   UNL     1       3.190  14.894  20.473  0.00  0.00    +0.000 A 
ATOM      5  C   UNL     1       3.963  15.111  19.321  0.00  0.00    +0.000 A 
ATOM      6  C   UNL     1       3.781  14.257  18.225  0.00  0.00    +0.000 A 
ATOM      7  C   UNL     1       2.846  13.204  18.226  0.00  0.00    +0.000 A 
ATOM      8  C   UNL     1       2.131  12.978  19.407  0.00  0.00    +0.000 A 
ATOM      9  N   UNL     1       1.220  12.009  19.806  0.00  0.00    +0.000 N 
ENDROOT
BRANCH   1  10
ATOM     10  C   UNL     1      -0.372  11.684  21.791  0.00  0.00    +0.000 C 
BRANCH  10  12
ATOM     11  C   UNL     1      -2.407  11.952  23.328  0.00  0.00    +0.000 C 
ATOM     12  C   UNL     1      -1.195  12.616  22.689  0.00  0.00    +0.000 C 
ENDBRANCH  10  12
ENDBRANCH   1  10
BRANCH   5  13
ATOM     13  O   UNL     1       4.918  16.089  19.117  0.00  0.00    +0.000 OA
BRANCH  13  14
ATOM     14  C   UNL     1       5.963  16.278  20.086  0.00  0.00    +0.000 C 
ATOM     15  C   UNL     1       6.869  17.447  19.706  0.00  0.00    +0.000 C 
ATOM     16  C   UNL     1       7.829  17.139  18.556  0.00  0.00    +0.000 C 
ATOM     17  N   UNL     1       8.641  15.949  18.845  0.00  0.00    +0.000 N 
ATOM     18  C   UNL     1       9.882  15.775  18.235  0.00  0.00    +0.000 C 
ATOM     19  C   UNL     1      10.318  16.574  17.024  0.00  0.00    +0.000 C 
ATOM     20  N   UNL     1      10.765  14.942  18.685  0.00  0.00    +0.000 NA
ATOM     21  C   UNL     1       7.833  14.750  19.136  0.00  0.00    +0.000 C 
ATOM     22  C   UNL     1       6.813  15.003  20.245  0.00  0.00    +0.000 C 
ATOM     23  H   UNL     1      10.420  14.561  19.570  0.00  0.00    +0.000 HD
ENDBRANCH  13  14
ENDBRANCH   5  13
BRANCH   9  24
ATOM     24  C   UNL     1       0.667  10.970  18.943  0.00  0.00    +0.000 C 
BRANCH  24  25
ATOM     25  C   UNL     1       1.152   9.532  19.071  0.00  0.00    +0.000 A 
ATOM     26  C   UNL     1       1.454   8.963  17.823  0.00  0.00    +0.000 A 
ATOM     27  C   UNL     1       2.212   7.822  17.739  0.00  0.00    +0.000 A 
ATOM     28  C   UNL     1       2.589   7.177  18.911  0.00  0.00    +0.000 A 
ATOM     29  C   UNL     1       3.549   6.212  18.833  0.00  0.00    +0.000 A 
ATOM     30  C   UNL     1       2.994   4.959  18.997  0.00  0.00    +0.000 A 
ATOM     31  C   UNL     1       2.032   4.817  19.991  0.00  0.00    +0.000 A 
ATOM     32  C   UNL     1       1.599   6.005  20.684  0.00  0.00    +0.000 A 
ATOM     33  C   UNL     1       1.803   7.318  20.040  0.00  0.00    +0.000 A 
ATOM     34  C   UNL     1       1.262   8.662  20.198  0.00  0.00    +0.000 A 
BRANCH  31  35
ATOM     35  C   UNL     1       1.443   3.423  20.081  0.00  0.00    +0.000 C 
ATOM     36  N   UNL     1       1.345   2.602  19.090  0.00  0.00    +0.000 NA
ATOM     37  N   UNL     1       1.018   2.879  21.266  0.00  0.00    +0.000 N 
ATOM     38  H   UNL     1       1.690   2.997  18.223  0.00  0.00    +0.000 HD
ATOM     39  H   UNL     1       1.551   3.083  22.106  0.00  0.00    +0.000 HD
ATOM     40  H   UNL     1       0.916   1.869  21.128  0.00  0.00    +0.000 HD
ENDBRANCH  31  35
ENDBRANCH  24  25
ENDBRANCH   9  24
TORSDOF 7
ENDMDL
MODEL 5
REMARK VINA RESULT:      -8.9      1.695      2.322
REMARK  Name = 
REMARK  9 active torsions:
REMARK  status: ('A' for Active; 'I' for Inactive)
REMARK    1  A    between atoms: C_1  and  C_2
REMARK    2  A    between atoms: C_2  and  C_3
REMARK    3  A    between atoms: C_3  and  C_4
REMARK    4  A    between atoms: C_8  and  O_9
REMARK    5  A    between atoms: O_9  and  C_10
REMARK    6  A    between atoms: C_14  and  C_15
REMARK    7  A    between atoms: N_22  and  C_23
REMARK    8  A    between atoms: C_23  and  C_24
REMARK    9  A    between atoms: C_30  and  C_31
REMARK                            x       y       z     vdW  Elec       q    Type
REMARK                         _______ _______ _______ _____ _____    ______ ____
ROOT
ATOM      1  C   UNL     1       0.369  11.937  20.766  0.00  0.00    +0.000 A 
ATOM      2  N   UNL     1       0.833  13.053  21.306  0.00  0.00    +0.000 NA
ATOM      3  C   UNL     1       1.797  13.536  20.452  0.00  0.00    +0.000 A 
ATOM      4  C   UNL     1       2.591  14.710  20.546  0.00  0.00    +0.000 A 
ATOM      5  C   UNL     1       3.504  15.017  19.525  0.00  0.00    +0.000 A 
ATOM      6  C   UNL     1       3.593  14.152  18.426  0.00  0.00    +0.000 A 
ATOM      7  C   UNL     1       2.792  13.000  18.296  0.00  0.00    +0.000 A 
ATOM      8  C   UNL     1       1.932  12.691  19.355  0.00  0.00    +0.000 A 
ATOM      9  N   UNL     1       1.083  11.624  19.620  0.00  0.00    +0.000 N 
ENDROOT
BRANCH   1  10
ATOM     10  C   UNL     1      -0.752  11.115  21.338  0.00  0.00    +0.000 C 
BRANCH  10  12
ATOM     11  C   UNL     1      -0.107   9.549  23.263  0.00  0.00    +0.000 C 
ATOM     12  C   UNL     1      -0.653  10.910  22.854  0.00  0.00    +0.000 C 
ENDBRANCH  10  12
ENDBRANCH   1  10
BRANCH   5  13
ATOM     13  O   UNL     1       4.364  16.097  19.458  0.00  0.00    +0.000 OA
BRANCH  13  14
ATOM     14  C   UNL     1       5.353  16.284  20.485  0.00  0.00    +0.000 C 
ATOM     15  C   UNL     1       6.225  17.507  20.200  0.00  0.00    +0.000 C 
ATOM     16  C   UNL     1       7.250  17.291  19.085  0.00  0.00    +0.000 C 
ATOM     17  N   UNL     1       8.098  16.124  19.361  0.00  0.00    +0.000 N 
ATOM     18  C   UNL     1       9.373  16.029  18.804  0.00  0.00    +0.000 C 
ATOM     19  C   UNL     1       9.829  16.900  17.652  0.00  0.00    +0.000 C 
ATOM     20  N   UNL     1      10.270  15.213  19.259  0.00  0.00    +0.000 NA
ATOM     21  C   UNL     1       7.331  14.880  19.559  0.00  0.00    +0.000 C 
ATOM     22  C   UNL     1       6.250  15.040  20.628  0.00  0.00    +0.000 C 
ATOM     23  H   UNL     1       9.901  14.778  20.109  0.00  0.00    +0.000 HD
ENDBRANCH  13  14
ENDBRANCH   5  13
BRANCH   9  24
ATOM     24  C   UNL     1       0.792  10.533  18.697  0.00  0.00    +0.000 C 
BRANCH  24  25
ATOM     25  C   UNL     1       1.323   9.133  18.975  0.00  0.00    +0.000 A 
ATOM     26  C   UNL     1       1.775   8.497  17.808  0.00  0.00    +0.000 A 
ATOM     27  C   UNL     1       2.587   7.393  17.881  0.00  0.00    +0.000 A 
ATOM     28  C   UNL     1       2.869   6.847  19.128  0.00  0.00    +0.000 A 
ATOM     29  C   UNL     1       3.873   5.929  19.216  0.00  0.00    +0.000 A 
ATOM     30  C   UNL     1       3.359   4.664  19.413  0.00  0.00    +0.000 A 
ATOM     31  C   UNL     1       2.307   4.540  20.315  0.00  0.00    +0.000 A 
ATOM     32  C   UNL     1       1.754   5.750  20.874  0.00  0.00    +0.000 A 
ATOM     33  C   UNL     1       1.967   7.025  20.160  0.00  0.00    +0.000 A 
ATOM     34  C   UNL     1       1.354   8.347  20.167  0.00  0.00    +0.000 A 
BRANCH  31  35
ATOM     35  C   UNL     1       1.773   3.128  20.446  0.00  0.00    +0.000 C 
ATOM     36  N   UNL     1       1.311   2.616  21.536  0.00  0.00    +0.000 NA
ATOM     37  N   UNL     1       1.669   2.279  19.374  0.00  0.00    +0.000 N 
ATOM     38  H   UNL     1       1.360   3.259  22.318  0.00  0.00    +0.000 HD
ATOM     39  H   UNL     1       1.396   2.668  18.477  0.00  0.00    +0.000 HD
ATOM     40  H   UNL     1       1.053   1.507  19.645  0.00  0.00    +0.000 HD
ENDBRANCH  31  35
ENDBRANCH  24  25
ENDBRANCH   9  24
TORSDOF 7
ENDMDL
MODEL 6
REMARK VINA RESULT:      -8.8      0.640      1.104
REMARK  Name = 
REMARK  9 active torsions:
REMARK  status: ('A' for Active; 'I' for Inactive)
REMARK    1  A    between atoms: C_1  and  C_2
REMARK    2  A    between atoms: C_2  and  C_3
REMARK    3  A    between atoms: C_3  and  C_4
REMARK    4  A    between atoms: C_8  and  O_9
REMARK    5  A    between atoms: O_9  and  C_10
REMARK    6  A    between atoms: C_14  and  C_15
REMARK    7  A    between atoms: N_22  and  C_23
REMARK    8  A    between atoms: C_23  and  C_24
REMARK    9  A    between atoms: C_30  and  C_31
REMARK                            x       y       z     vdW  Elec       q    Type
REMARK                         _______ _______ _______ _____ _____    ______ ____
ROOT
ATOM      1  C   UNL     1       0.512  12.274  21.074  0.00  0.00    +0.000 A 
ATOM      2  N   UNL     1       1.108  13.378  21.495  0.00  0.00    +0.000 NA
ATOM      3  C   UNL     1       1.991  13.753  20.508  0.00  0.00    +0.000 A 
ATOM      4  C   UNL     1       2.863  14.872  20.445  0.00  0.00    +0.000 A 
ATOM      5  C   UNL     1       3.663  15.067  19.308  0.00  0.00    +0.000 A 
ATOM      6  C   UNL     1       3.562  14.150  18.255  0.00  0.00    +0.000 A 
ATOM      7  C   UNL     1       2.680  13.052  18.281  0.00  0.00    +0.000 A 
ATOM      8  C   UNL     1       1.937  12.852  19.450  0.00  0.00    +0.000 A 
ATOM      9  N   UNL     1       1.060  11.860  19.870  0.00  0.00    +0.000 N 
ENDROOT
BRANCH   1  10
ATOM     10  C   UNL     1      -0.582  11.558  21.817  0.00  0.00    +0.000 C 
BRANCH  10  12
ATOM     11  C   UNL     1      -2.489  12.609  20.462  0.00  0.00    +0.000 C 
ATOM     12  C   UNL     1      -1.911  12.324  21.842  0.00  0.00    +0.000 C 
ENDBRANCH  10  12
ENDBRANCH   1  10
BRANCH   5  13
ATOM     13  O   UNL     1       4.576  16.081  19.082  0.00  0.00    +0.000 OA
BRANCH  13  14
ATOM     14  C   UNL     1       5.567  16.381  20.079  0.00  0.00    +0.000 C 
ATOM     15  C   UNL     1       6.512  17.486  19.608  0.00  0.00    +0.000 C 
ATOM     16  C   UNL     1       7.530  17.027  18.563  0.00  0.00    +0.000 C 
ATOM     17  N   UNL     1       8.306  15.877  19.046  0.00  0.00    +0.000 N 
ATOM     18  C   UNL     1       9.576  15.617  18.534  0.00  0.00    +0.000 C 
ATOM     19  C   UNL     1      10.092  16.254  17.260  0.00  0.00    +0.000 C 
ATOM     20  N   UNL     1      10.420  14.839  19.135  0.00  0.00    +0.000 NA
ATOM     21  C   UNL     1       7.464  14.731  19.437  0.00  0.00    +0.000 C 
ATOM     22  C   UNL     1       6.387  15.130  20.445  0.00  0.00    +0.000 C 
ATOM     23  H   UNL     1      10.020  14.576  20.040  0.00  0.00    +0.000 HD
ENDBRANCH  13  14
ENDBRANCH   5  13
BRANCH   9  24
ATOM     24  C   UNL     1       0.589  10.751  19.047  0.00  0.00    +0.000 C 
BRANCH  24  25
ATOM     25  C   UNL     1       1.413   9.474  18.941  0.00  0.00    +0.000 A 
ATOM     26  C   UNL     1       1.529   8.815  20.176  0.00  0.00    +0.000 A 
ATOM     27  C   UNL     1       1.929   7.504  20.236  0.00  0.00    +0.000 A 
ATOM     28  C   UNL     1       2.320   6.867  19.064  0.00  0.00    +0.000 A 
ATOM     29  C   UNL     1       2.459   5.511  19.086  0.00  0.00    +0.000 A 
ATOM     30  C   UNL     1       3.793   5.157  19.048  0.00  0.00    +0.000 A 
ATOM     31  C   UNL     1       4.611   5.863  18.174  0.00  0.00    +0.000 A 
ATOM     32  C   UNL     1       4.038   6.986  17.473  0.00  0.00    +0.000 A 
ATOM     33  C   UNL     1       2.824   7.623  18.022  0.00  0.00    +0.000 A 
ATOM     34  C   UNL     1       2.140   8.898  17.855  0.00  0.00    +0.000 A 
BRANCH  31  35
ATOM     35  C   UNL     1       6.067   5.444  18.221  0.00  0.00    +0.000 C 
ATOM     36  N   UNL     1       6.478   4.247  18.474  0.00  0.00    +0.000 NA
ATOM     37  N   UNL     1       7.091   6.306  17.923  0.00  0.00    +0.000 N 
ATOM     38  H   UNL     1       5.716   3.606  18.662  0.00  0.00    +0.000 HD
ATOM     39  H   UNL     1       6.950   6.979  17.176  0.00  0.00    +0.000 HD
ATOM     40  H   UNL     1       7.935   5.747  17.764  0.00  0.00    +0.000 HD
ENDBRANCH  31  35
ENDBRANCH  24  25
ENDBRANCH   9  24
TORSDOF 7
ENDMDL
MODEL 7
REMARK VINA RESULT:      -8.8      1.987      2.900
REMARK  Name = 
REMARK  9 active torsions:
REMARK  status: ('A' for Active; 'I' for Inactive)
REMARK    1  A    between atoms: C_1  and  C_2
REMARK    2  A    between atoms: C_2  and  C_3
REMARK    3  A    between atoms: C_3  and  C_4
REMARK    4  A    between atoms: C_8  and  O_9
REMARK    5  A    between atoms: O_9  and  C_10
REMARK    6  A    between atoms: C_14  and  C_15
REMARK    7  A    between atoms: N_22  and  C_23
REMARK    8  A    between atoms: C_23  and  C_24
REMARK    9  A    between atoms: C_30  and  C_31
REMARK                            x       y       z     vdW  Elec       q    Type
REMARK                         _______ _______ _______ _____ _____    ______ ____
ROOT
ATOM      1  C   UNL     1      -1.120  12.421  18.981  0.00  0.00    +0.000 A 
ATOM      2  N   UNL     1      -0.709  13.635  18.651  0.00  0.00    +0.000 NA
ATOM      3  C   UNL     1       0.510  13.820  19.261  0.00  0.00    +0.000 A 
ATOM      4  C   UNL     1       1.389  14.935  19.220  0.00  0.00    +0.000 A 
ATOM      5  C   UNL     1       2.610  14.886  19.911  0.00  0.00    +0.000 A 
ATOM      6  C   UNL     1       2.933  13.717  20.613  0.00  0.00    +0.000 A 
ATOM      7  C   UNL     1       2.093  12.587  20.640  0.00  0.00    +0.000 A 
ATOM      8  C   UNL     1       0.859  12.687  19.989  0.00  0.00    +0.000 A 
ATOM      9  N   UNL     1      -0.239  11.842  19.880  0.00  0.00    +0.000 N 
ENDROOT
BRANCH   1  10
ATOM     10  C   UNL     1      -2.382  11.780  18.473  0.00  0.00    +0.000 C 
BRANCH  10  12
ATOM     11  C   UNL     1      -3.113   9.762  17.070  0.00  0.00    +0.000 C 
ATOM     12  C   UNL     1      -2.182  10.961  17.192  0.00  0.00    +0.000 C 
ENDBRANCH  10  12
ENDBRANCH   1  10
BRANCH   5  13
ATOM     13  O   UNL     1       3.572  15.875  19.996  0.00  0.00    +0.000 OA
BRANCH  13  14
ATOM     14  C   UNL     1       4.098  16.462  18.794  0.00  0.00    +0.000 C 
ATOM     15  C   UNL     1       4.272  15.415  17.694  0.00  0.00    +0.000 C 
ATOM     16  C   UNL     1       5.468  14.486  17.906  0.00  0.00    +0.000 C 
ATOM     17  N   UNL     1       6.712  15.250  18.071  0.00  0.00    +0.000 N 
ATOM     18  C   UNL     1       7.943  14.671  17.768  0.00  0.00    +0.000 C 
ATOM     19  C   UNL     1       8.122  13.177  17.590  0.00  0.00    +0.000 C 
ATOM     20  N   UNL     1       9.014  15.375  17.580  0.00  0.00    +0.000 NA
ATOM     21  C   UNL     1       6.654  16.224  19.177  0.00  0.00    +0.000 C 
ATOM     22  C   UNL     1       5.448  17.156  19.056  0.00  0.00    +0.000 C 
ATOM     23  H   UNL     1       8.749  16.363  17.593  0.00  0.00    +0.000 HD
ENDBRANCH  13  14
ENDBRANCH   5  13
BRANCH   9  24
ATOM     24  C   UNL     1      -0.299  10.473  20.383  0.00  0.00    +0.000 C 
BRANCH  24  25
ATOM     25  C   UNL     1       0.620   9.405  19.805  0.00  0.00    +0.000 A 
ATOM     26  C   UNL     1       0.603   9.397  18.401  0.00  0.00    +0.000 A 
ATOM     27  C   UNL     1       1.591   8.761  17.692  0.00  0.00    +0.000 A 
ATOM     28  C   UNL     1       2.552   8.032  18.384  0.00  0.00    +0.000 A 
ATOM     29  C   UNL     1       3.664   7.630  17.706  0.00  0.00    +0.000 A 
ATOM     30  C   UNL     1       3.626   6.270  17.471  0.00  0.00    +0.000 A 
ATOM     31  C   UNL     1       3.191   5.459  18.513  0.00  0.00    +0.000 A 
ATOM     32  C   UNL     1       2.696   6.101  19.706  0.00  0.00    +0.000 A 
ATOM     33  C   UNL     1       2.232   7.500  19.620  0.00  0.00    +0.000 A 
ATOM     34  C   UNL     1       1.399   8.383  20.427  0.00  0.00    +0.000 A 
BRANCH  31  35
ATOM     35  C   UNL     1       3.139   3.984  18.163  0.00  0.00    +0.000 C 
ATOM     36  N   UNL     1       4.169   3.210  18.093  0.00  0.00    +0.000 NA
ATOM     37  N   UNL     1       1.959   3.319  17.955  0.00  0.00    +0.000 N 
ATOM     38  H   UNL     1       5.037   3.700  18.279  0.00  0.00    +0.000 HD
ATOM     39  H   UNL     1       1.160   3.564  18.533  0.00  0.00    +0.000 HD
ATOM     40  H   UNL     1       2.153   2.315  17.999  0.00  0.00    +0.000 HD
ENDBRANCH  31  35
ENDBRANCH  24  25
ENDBRANCH   9  24
TORSDOF 7
ENDMDL
MODEL 8
REMARK VINA RESULT:      -8.8      4.908      6.716
REMARK  Name = 
REMARK  9 active torsions:
REMARK  status: ('A' for Active; 'I' for Inactive)
REMARK    1  A    between atoms: C_1  and  C_2
REMARK    2  A    between atoms: C_2  and  C_3
REMARK    3  A    between atoms: C_3  and  C_4
REMARK    4  A    between atoms: C_8  and  O_9
REMARK    5  A    between atoms: O_9  and  C_10
REMARK    6  A    between atoms: C_14  and  C_15
REMARK    7  A    between atoms: N_22  and  C_23
REMARK    8  A    between atoms: C_23  and  C_24
REMARK    9  A    between atoms: C_30  and  C_31
REMARK                            x       y       z     vdW  Elec       q    Type
REMARK                         _______ _______ _______ _____ _____    ______ ____
ROOT
ATOM      1  C   UNL     1      -1.655  10.835  18.192  0.00  0.00    +0.000 A 
ATOM      2  N   UNL     1      -2.724  11.415  18.712  0.00  0.00    +0.000 NA
ATOM      3  C   UNL     1      -2.268  12.386  19.573  0.00  0.00    +0.000 A 
ATOM      4  C   UNL     1      -2.995  13.309  20.371  0.00  0.00    +0.000 A 
ATOM      5  C   UNL     1      -2.305  14.240  21.163  0.00  0.00    +0.000 A 
ATOM      6  C   UNL     1      -0.904  14.239  21.127  0.00  0.00    +0.000 A 
ATOM      7  C   UNL     1      -0.163  13.356  20.317  0.00  0.00    +0.000 A 
ATOM      8  C   UNL     1      -0.877  12.403  19.583  0.00  0.00    +0.000 A 
ATOM      9  N   UNL     1      -0.502  11.341  18.771  0.00  0.00    +0.000 N 
ENDROOT
BRANCH   1  10
ATOM     10  C   UNL     1      -1.694   9.758  17.142  0.00  0.00    +0.000 C 
BRANCH  10  12
ATOM     11  C   UNL     1      -2.888  10.033  14.889  0.00  0.00    +0.000 C 
ATOM     12  C   UNL     1      -3.018   9.701  16.370  0.00  0.00    +0.000 C 
ENDBRANCH  10  12
ENDBRANCH   1  10
BRANCH   5  13
ATOM     13  O   UNL     1      -2.842  15.192  22.009  0.00  0.00    +0.000 OA
BRANCH  13  14
ATOM     14  C   UNL     1      -3.348  14.798  23.296  0.00  0.00    +0.000 C 
ATOM     15  C   UNL     1      -3.884  15.998  24.074  0.00  0.00    +0.000 C 
ATOM     16  C   UNL     1      -2.792  16.902  24.648  0.00  0.00    +0.000 C 
ATOM     17  N   UNL     1      -1.855  16.140  25.485  0.00  0.00    +0.000 N 
ATOM     18  C   UNL     1      -1.126  16.776  26.489  0.00  0.00    +0.000 C 
ATOM     19  C   UNL     1      -0.982  18.282  26.566  0.00  0.00    +0.000 C 
ATOM     20  N   UNL     1      -0.552  16.123  27.448  0.00  0.00    +0.000 NA
ATOM     21  C   UNL     1      -1.225  15.013  24.774  0.00  0.00    +0.000 C 
ATOM     22  C   UNL     1      -2.261  14.092  24.129  0.00  0.00    +0.000 C 
ATOM     23  H   UNL     1      -0.824  15.140  27.370  0.00  0.00    +0.000 HD
ENDBRANCH  13  14
ENDBRANCH   5  13
BRANCH   9  24
ATOM     24  C   UNL     1       0.868  11.027  18.377  0.00  0.00    +0.000 C 
BRANCH  24  25
ATOM     25  C   UNL     1       1.447   9.647  18.658  0.00  0.00    +0.000 A 
ATOM     26  C   UNL     1       1.516   9.372  20.034  0.00  0.00    +0.000 A 
ATOM     27  C   UNL     1       1.682   8.087  20.484  0.00  0.00    +0.000 A 
ATOM     28  C   UNL     1       1.890   7.072  19.557  0.00  0.00    +0.000 A 
ATOM     29  C   UNL     1       1.790   5.781  19.985  0.00  0.00    +0.000 A 
ATOM     30  C   UNL     1       3.036   5.193  20.054  0.00  0.00    +0.000 A 
ATOM     31  C   UNL     1       3.916   5.447  19.007  0.00  0.00    +0.000 A 
ATOM     32  C   UNL     1       3.509   6.398  18.001  0.00  0.00    +0.000 A 
ATOM     33  C   UNL     1       2.459   7.381  18.336  0.00  0.00    +0.000 A 
ATOM     34  C   UNL     1       2.000   8.653  17.794  0.00  0.00    +0.000 A 
BRANCH  31  35
ATOM     35  C   UNL     1       5.276   4.799  19.176  0.00  0.00    +0.000 C 
ATOM     36  N   UNL     1       6.319   5.395  19.647  0.00  0.00    +0.000 NA
ATOM     37  N   UNL     1       5.499   3.475  18.902  0.00  0.00    +0.000 N 
ATOM     38  H   UNL     1       6.141   6.365  19.879  0.00  0.00    +0.000 HD
ATOM     39  H   UNL     1       4.768   2.807  19.130  0.00  0.00    +0.000 HD
ATOM     40  H   UNL     1       6.389   3.211  19.333  0.00  0.00    +0.000 HD
ENDBRANCH  31  35
ENDBRANCH  24  25
ENDBRANCH   9  24
TORSDOF 7
ENDMDL
MODEL 9
REMARK VINA RESULT:      -8.7      4.920      7.941
REMARK  Name = 
REMARK  9 active torsions:
REMARK  status: ('A' for Active; 'I' for Inactive)
REMARK    1  A    between atoms: C_1  and  C_2
REMARK    2  A    between atoms: C_2  and  C_3
REMARK    3  A    between atoms: C_3  and  C_4
REMARK    4  A    between atoms: C_8  and  O_9
REMARK    5  A    between atoms: O_9  and  C_10
REMARK    6  A    between atoms: C_14  and  C_15
REMARK    7  A    between atoms: N_22  and  C_23
REMARK    8  A    between atoms: C_23  and  C_24
REMARK    9  A    between atoms: C_30  and  C_31
REMARK                            x       y       z     vdW  Elec       q    Type
REMARK                         _______ _______ _______ _____ _____    ______ ____
ROOT
ATOM      1  C   UNL     1      -1.270  10.642  18.330  0.00  0.00    +0.000 A 
ATOM      2  N   UNL     1      -2.286  11.285  18.882  0.00  0.00    +0.000 NA
ATOM      3  C   UNL     1      -1.765  12.050  19.900  0.00  0.00    +0.000 A 
ATOM      4  C   UNL     1      -2.415  12.942  20.793  0.00  0.00    +0.000 A 
ATOM      5  C   UNL     1      -1.663  13.646  21.746  0.00  0.00    +0.000 A 
ATOM      6  C   UNL     1      -0.275  13.454  21.775  0.00  0.00    +0.000 A 
ATOM      7  C   UNL     1       0.396  12.601  20.877  0.00  0.00    +0.000 A 
ATOM      8  C   UNL     1      -0.387  11.872  19.976  0.00  0.00    +0.000 A 
ATOM      9  N   UNL     1      -0.102  10.894  19.032  0.00  0.00    +0.000 N 
ENDROOT
BRANCH   1  10
ATOM     10  C   UNL     1      -1.381   9.741  17.130  0.00  0.00    +0.000 C 
BRANCH  10  12
ATOM     11  C   UNL     1      -3.762  10.080  16.239  0.00  0.00    +0.000 C 
ATOM     12  C   UNL     1      -2.272  10.307  16.018  0.00  0.00    +0.000 C 
ENDBRANCH  10  12
ENDBRANCH   1  10
BRANCH   5  13
ATOM     13  O   UNL     1      -2.125  14.534  22.699  0.00  0.00    +0.000 OA
BRANCH  13  14
ATOM     14  C   UNL     1      -2.587  14.039  23.968  0.00  0.00    +0.000 C 
ATOM     15  C   UNL     1      -3.218  12.654  23.828  0.00  0.00    +0.000 C 
ATOM     16  C   UNL     1      -4.609  12.668  23.194  0.00  0.00    +0.000 C 
ATOM     17  N   UNL     1      -5.518  13.561  23.924  0.00  0.00    +0.000 N 
ATOM     18  C   UNL     1      -6.897  13.361  23.875  0.00  0.00    +0.000 C 
ATOM     19  C   UNL     1      -7.558  12.474  22.840  0.00  0.00    +0.000 C 
ATOM     20  N   UNL     1      -7.706  13.892  24.735  0.00  0.00    +0.000 NA
ATOM     21  C   UNL     1      -5.018  14.945  24.024  0.00  0.00    +0.000 C 
ATOM     22  C   UNL     1      -3.606  15.003  24.606  0.00  0.00    +0.000 C 
ATOM     23  H   UNL     1      -7.145  14.355  25.455  0.00  0.00    +0.000 HD
ENDBRANCH  13  14
ENDBRANCH   5  13
BRANCH   9  24
ATOM     24  C   UNL     1       1.238  10.451  18.659  0.00  0.00    +0.000 C 
BRANCH  24  25
ATOM     25  C   UNL     1       1.656   9.004  18.885  0.00  0.00    +0.000 A 
ATOM     26  C   UNL     1       1.705   8.675  20.249  0.00  0.00    +0.000 A 
ATOM     27  C   UNL     1       1.726   7.364  20.653  0.00  0.00    +0.000 A 
ATOM     28  C   UNL     1       1.805   6.365  19.690  0.00  0.00    +0.000 A 
ATOM     29  C   UNL     1       1.560   5.080  20.075  0.00  0.00    +0.000 A 
ATOM     30  C   UNL     1       2.731   4.350  20.107  0.00  0.00    +0.000 A 
ATOM     31  C   UNL     1       3.623   4.537  19.057  0.00  0.00    +0.000 A 
ATOM     32  C   UNL     1       3.321   5.564  18.091  0.00  0.00    +0.000 A 
ATOM     33  C   UNL     1       2.395   6.649  18.472  0.00  0.00    +0.000 A 
ATOM     34  C   UNL     1       2.082   7.985  17.980  0.00  0.00    +0.000 A 
BRANCH  31  35
ATOM     35  C   UNL     1       4.901   3.731  19.186  0.00  0.00    +0.000 C 
ATOM     36  N   UNL     1       6.052   4.104  18.740  0.00  0.00    +0.000 NA
ATOM     37  N   UNL     1       4.954   2.541  19.865  0.00  0.00    +0.000 N 
ATOM     38  H   UNL     1       6.014   5.000  18.267  0.00  0.00    +0.000 HD
ATOM     39  H   UNL     1       4.399   2.445  20.710  0.00  0.00    +0.000 HD
ATOM     40  H   UNL     1       5.939   2.325  20.043  0.00  0.00    +0.000 HD
ENDBRANCH  31  35
ENDBRANCH  24  25
ENDBRANCH   9  24
TORSDOF 7
ENDMDL
