MODEL 1
REMARK VINA RESULT:      -6.5      0.000      0.000
REMARK  Name = 
REMARK  2 active torsions:
REMARK  status: ('A' for Active; 'I' for Inactive)
REMARK    1  A    between atoms: O_1  and  C_2
REMARK    2  A    between atoms: C_6  and  C_7
REMARK                            x       y       z     vdW  Elec       q    Type
REMARK                         _______ _______ _______ _____ _____    ______ ____
ROOT
ATOM      1  C   UNL     1       2.007   3.470  20.780  0.00  0.00    +0.000 A 
ATOM      2  C   UNL     1       0.996   3.069  19.916  0.00  0.00    +0.000 A 
ATOM      3  C   UNL     1       1.060   3.444  18.574  0.00  0.00    +0.000 A 
ATOM      4  C   UNL     1       2.121   4.226  18.111  0.00  0.00    +0.000 A 
ATOM      5  C   UNL     1       3.134   4.654  18.982  0.00  0.00    +0.000 A 
ATOM      6  C   UNL     1       3.068   4.245  20.325  0.00  0.00    +0.000 A 
ENDROOT
BRANCH   5   7
ATOM      7  C   UNL     1       4.264   5.571  18.535  0.00  0.00    +0.000 C 
ATOM      8  C   UNL     1       4.330   5.709  17.003  0.00  0.00    +0.000 C 
ATOM      9  C   UNL     1       5.223   4.674  16.320  0.00  0.00    +0.000 C 
ATOM     10  C   UNL     1       6.558   4.501  17.034  0.00  0.00    +0.000 C 
ATOM     11  N   UNL     1       6.363   4.160  18.441  0.00  0.00    +0.000 NA
ATOM     12  C   UNL     1       5.641   5.227  19.145  0.00  0.00    +0.000 C 
ATOM     13  H   UNL     1       7.271   4.024  18.888  0.00  0.00    +0.000 HD
ENDBRANCH   5   7
BRANCH   1  14
ATOM     14  O   UNL     1       1.987   3.134  22.101  0.00  0.00    +0.000 OA
ATOM     15  H   UNL     1       2.748   3.556  22.534  0.00  0.00    +0.000 HD
ENDBRANCH   1  14
TORSDOF 2
ENDMDL
MODEL 2
REMARK VINA RESULT:      -6.3      1.201      1.309
REMARK  Name = 
REMARK  2 active torsions:
REMARK  status: ('A' for Active; 'I' for Inactive)
REMARK    1  A    between atoms: O_1  and  C_2
REMARK    2  A    between atoms: C_6  and  C_7
REMARK                            x       y       z     vdW  Elec       q    Type
REMARK                         _______ _______ _______ _____ _____    ______ ____
ROOT
ATOM      1  C   UNL     1       1.425   3.600  19.416  0.00  0.00    +0.000 A 
ATOM      2  C   UNL     1       1.385   2.426  18.675  0.00  0.00    +0.000 A 
ATOM      3  C   UNL     1       2.395   2.173  17.748  0.00  0.00    +0.000 A 
ATOM      4  C   UNL     1       3.426   3.098  17.558  0.00  0.00    +0.000 A 
ATOM      5  C   UNL     1       3.460   4.296  18.287  0.00  0.00    +0.000 A 
ATOM      6  C   UNL     1       2.449   4.524  19.236  0.00  0.00    +0.000 A 
ENDROOT
BRANCH   5   7
ATOM      7  C   UNL     1       4.521   5.364  18.054  0.00  0.00    +0.000 C 
ATOM      8  C   UNL     1       4.866   5.526  16.562  0.00  0.00    +0.000 C 
ATOM      9  C   UNL     1       6.007   4.631  16.084  0.00  0.00    +0.000 C 
ATOM     10  C   UNL     1       7.188   4.634  17.048  0.00  0.00    +0.000 C 
ATOM     11  N   UNL     1       6.770   4.254  18.395  0.00  0.00    +0.000 NA
ATOM     12  C   UNL     1       5.786   5.205  18.927  0.00  0.00    +0.000 C 
ATOM     13  H   UNL     1       7.583   4.238  19.013  0.00  0.00    +0.000 HD
ENDBRANCH   5   7
BRANCH   1  14
ATOM     14  O   UNL     1       0.457   3.897  20.330  0.00  0.00    +0.000 OA
ATOM     15  H   UNL     1      -0.298   4.283  19.859  0.00  0.00    +0.000 HD
ENDBRANCH   1  14
TORSDOF 2
ENDMDL
MODEL 3
REMARK VINA RESULT:      -6.3      1.822      1.903
REMARK  Name = 
REMARK  2 active torsions:
REMARK  status: ('A' for Active; 'I' for Inactive)
REMARK    1  A    between atoms: O_1  and  C_2
REMARK    2  A    between atoms: C_6  and  C_7
REMARK                            x       y       z     vdW  Elec       q    Type
REMARK                         _______ _______ _______ _____ _____    ______ ____
ROOT
ATOM      1  C   UNL     1       2.965   2.253  18.291  0.00  0.00    +0.000 A 
ATOM      2  C   UNL     1       1.634   2.650  18.299  0.00  0.00    +0.000 A 
ATOM      3  C   UNL     1       1.323   3.990  18.073  0.00  0.00    +0.000 A 
ATOM      4  C   UNL     1       2.341   4.923  17.856  0.00  0.00    +0.000 A 
ATOM      5  C   UNL     1       3.689   4.533  17.868  0.00  0.00    +0.000 A 
ATOM      6  C   UNL     1       3.984   3.174  18.071  0.00  0.00    +0.000 A 
ENDROOT
BRANCH   5   7
ATOM      7  C   UNL     1       4.830   5.530  17.714  0.00  0.00    +0.000 C 
ATOM      8  C   UNL     1       5.371   5.577  16.273  0.00  0.00    +0.000 C 
ATOM      9  C   UNL     1       6.510   4.597  16.000  0.00  0.00    +0.000 C 
ATOM     10  C   UNL     1       7.557   4.604  17.108  0.00  0.00    +0.000 C 
ATOM     11  N   UNL     1       6.950   4.334  18.409  0.00  0.00    +0.000 NA
ATOM     12  C   UNL     1       5.963   5.364  18.751  0.00  0.00    +0.000 C 
ATOM     13  H   UNL     1       7.675   4.317  19.126  0.00  0.00    +0.000 HD
ENDBRANCH   5   7
BRANCH   1  14
ATOM     14  O   UNL     1       3.321   0.955  18.513  0.00  0.00    +0.000 OA
ATOM     15  H   UNL     1       2.538   0.474  18.827  0.00  0.00    +0.000 HD
ENDBRANCH   1  14
TORSDOF 2
ENDMDL
MODEL 4
REMARK VINA RESULT:      -6.3      2.721      4.881
REMARK  Name = 
REMARK  2 active torsions:
REMARK  status: ('A' for Active; 'I' for Inactive)
REMARK    1  A    between atoms: O_1  and  C_2
REMARK    2  A    between atoms: C_6  and  C_7
REMARK                            x       y       z     vdW  Elec       q    Type
REMARK                         _______ _______ _______ _____ _____    ______ ____
ROOT
ATOM      1  C   UNL     1       6.693   4.748  17.071  0.00  0.00    +0.000 A 
ATOM      2  C   UNL     1       6.582   6.133  17.089  0.00  0.00    +0.000 A 
ATOM      3  C   UNL     1       5.318   6.712  17.187  0.00  0.00    +0.000 A 
ATOM      4  C   UNL     1       4.177   5.909  17.250  0.00  0.00    +0.000 A 
ATOM      5  C   UNL     1       4.279   4.510  17.210  0.00  0.00    +0.000 A 
ATOM      6  C   UNL     1       5.562   3.941  17.138  0.00  0.00    +0.000 A 
ENDROOT
BRANCH   5   7
ATOM      7  C   UNL     1       3.058   3.600  17.198  0.00  0.00    +0.000 C 
ATOM      8  C   UNL     1       1.802   4.304  17.745  0.00  0.00    +0.000 C 
ATOM      9  C   UNL     1       1.604   4.149  19.252  0.00  0.00    +0.000 C 
ATOM     10  C   UNL     1       1.823   2.714  19.718  0.00  0.00    +0.000 C 
ATOM     11  N   UNL     1       3.142   2.226  19.322  0.00  0.00    +0.000 NA
ATOM     12  C   UNL     1       3.284   2.223  17.861  0.00  0.00    +0.000 C 
ATOM     13  H   UNL     1       3.272   1.276  19.670  0.00  0.00    +0.000 HD
ENDBRANCH   5   7
BRANCH   1  14
ATOM     14  O   UNL     1       7.906   4.134  16.969  0.00  0.00    +0.000 OA
ATOM     15  H   UNL     1       8.554   4.656  17.470  0.00  0.00    +0.000 HD
ENDBRANCH   1  14
TORSDOF 2
ENDMDL
MODEL 5
REMARK VINA RESULT:      -6.2      1.356      1.722
REMARK  Name = 
REMARK  2 active torsions:
REMARK  status: ('A' for Active; 'I' for Inactive)
REMARK    1  A    between atoms: O_1  and  C_2
REMARK    2  A    between atoms: C_6  and  C_7
REMARK                            x       y       z     vdW  Elec       q    Type
REMARK                         _______ _______ _______ _____ _____    ______ ____
ROOT
ATOM      1  C   UNL     1       1.689   2.912  18.707  0.00  0.00    +0.000 A 
ATOM      2  C   UNL     1       0.925   3.229  19.822  0.00  0.00    +0.000 A 
ATOM      3  C   UNL     1       1.221   4.383  20.545  0.00  0.00    +0.000 A 
ATOM      4  C   UNL     1       2.284   5.203  20.158  0.00  0.00    +0.000 A 
ATOM      5  C   UNL     1       3.075   4.879  19.045  0.00  0.00    +0.000 A 
ATOM      6  C   UNL     1       2.747   3.726  18.313  0.00  0.00    +0.000 A 
ENDROOT
BRANCH   5   7
ATOM      7  C   UNL     1       4.290   5.702  18.637  0.00  0.00    +0.000 C 
ATOM      8  C   UNL     1       4.349   5.939  17.117  0.00  0.00    +0.000 C 
ATOM      9  C   UNL     1       5.118   4.866  16.347  0.00  0.00    +0.000 C 
ATOM     10  C   UNL     1       6.437   4.505  17.019  0.00  0.00    +0.000 C 
ATOM     11  N   UNL     1       6.227   4.089  18.404  0.00  0.00    +0.000 NA
ATOM     12  C   UNL     1       5.631   5.174  19.193  0.00  0.00    +0.000 C 
ATOM     13  H   UNL     1       7.121   3.828  18.821  0.00  0.00    +0.000 HD
ENDBRANCH   5   7
BRANCH   1  14
ATOM     14  O   UNL     1       1.444   1.791  17.971  0.00  0.00    +0.000 OA
ATOM     15  H   UNL     1       0.738   1.288  18.409  0.00  0.00    +0.000 HD
ENDBRANCH   1  14
TORSDOF 2
ENDMDL
MODEL 6
REMARK VINA RESULT:      -6.2      2.566      4.823
REMARK  Name = 
REMARK  2 active torsions:
REMARK  status: ('A' for Active; 'I' for Inactive)
REMARK    1  A    between atoms: O_1  and  C_2
REMARK    2  A    between atoms: C_6  and  C_7
REMARK                            x       y       z     vdW  Elec       q    Type
REMARK                         _______ _______ _______ _____ _____    ______ ____
ROOT
ATOM      1  C   UNL     1       7.455   5.830  19.383  0.00  0.00    +0.000 A 
ATOM      2  C   UNL     1       8.073   6.812  18.620  0.00  0.00    +0.000 A 
ATOM      3  C   UNL     1       7.434   7.286  17.476  0.00  0.00    +0.000 A 
ATOM      4  C   UNL     1       6.193   6.768  17.095  0.00  0.00    +0.000 A 
ATOM      5  C   UNL     1       5.573   5.761  17.849  0.00  0.00    +0.000 A 
ATOM      6  C   UNL     1       6.218   5.312  19.014  0.00  0.00    +0.000 A 
ENDROOT
BRANCH   5   7
ATOM      7  C   UNL     1       4.260   5.114  17.427  0.00  0.00    +0.000 C 
ATOM      8  C   UNL     1       3.128   5.380  18.437  0.00  0.00    +0.000 C 
ATOM      9  C   UNL     1       3.014   4.329  19.539  0.00  0.00    +0.000 C 
ATOM     10  C   UNL     1       3.103   2.908  18.994  0.00  0.00    +0.000 C 
ATOM     11  N   UNL     1       4.331   2.714  18.227  0.00  0.00    +0.000 NA
ATOM     12  C   UNL     1       4.375   3.615  17.070  0.00  0.00    +0.000 C 
ATOM     13  H   UNL     1       4.378   1.749  17.898  0.00  0.00    +0.000 HD
ENDBRANCH   5   7
BRANCH   1  14
ATOM     14  O   UNL     1       8.043   5.328  20.507  0.00  0.00    +0.000 OA
ATOM     15  H   UNL     1       8.735   5.947  20.790  0.00  0.00    +0.000 HD
ENDBRANCH   1  14
TORSDOF 2
ENDMDL
MODEL 7
REMARK VINA RESULT:      -6.2      2.917      5.047
REMARK  Name = 
REMARK  2 active torsions:
REMARK  status: ('A' for Active; 'I' for Inactive)
REMARK    1  A    between atoms: O_1  and  C_2
REMARK    2  A    between atoms: C_6  and  C_7
REMARK                            x       y       z     vdW  Elec       q    Type
REMARK                         _______ _______ _______ _____ _____    ______ ____
ROOT
ATOM      1  C   UNL     1       6.584   4.605  16.794  0.00  0.00    +0.000 A 
ATOM      2  C   UNL     1       6.925   5.084  18.052  0.00  0.00    +0.000 A 
ATOM      3  C   UNL     1       5.979   5.045  19.075  0.00  0.00    +0.000 A 
ATOM      4  C   UNL     1       4.698   4.543  18.831  0.00  0.00    +0.000 A 
ATOM      5  C   UNL     1       4.339   4.077  17.557  0.00  0.00    +0.000 A 
ATOM      6  C   UNL     1       5.312   4.099  16.544  0.00  0.00    +0.000 A 
ENDROOT
BRANCH   5   7
ATOM      7  C   UNL     1       2.932   3.595  17.230  0.00  0.00    +0.000 C 
ATOM      8  C   UNL     1       1.848   4.502  17.842  0.00  0.00    +0.000 C 
ATOM      9  C   UNL     1       1.405   4.087  19.244  0.00  0.00    +0.000 C 
ATOM     10  C   UNL     1       1.161   2.586  19.353  0.00  0.00    +0.000 C 
ATOM     11  N   UNL     1       2.341   1.829  18.945  0.00  0.00    +0.000 NA
ATOM     12  C   UNL     1       2.682   2.103  17.544  0.00  0.00    +0.000 C 
ATOM     13  H   UNL     1       2.160   0.831  19.053  0.00  0.00    +0.000 HD
ENDBRANCH   5   7
BRANCH   1  14
ATOM     14  O   UNL     1       7.472   4.627  15.759  0.00  0.00    +0.000 OA
ATOM     15  H   UNL     1       7.930   5.484  15.770  0.00  0.00    +0.000 HD
ENDBRANCH   1  14
TORSDOF 2
ENDMDL
MODEL 8
REMARK VINA RESULT:      -6.2      2.760      4.926
REMARK  Name = 
REMARK  2 active torsions:
REMARK  status: ('A' for Active; 'I' for Inactive)
REMARK    1  A    between atoms: O_1  and  C_2
REMARK    2  A    between atoms: C_6  and  C_7
REMARK                            x       y       z     vdW  Elec       q    Type
REMARK                         _______ _______ _______ _____ _____    ______ ____
ROOT
ATOM      1  C   UNL     1       7.145   4.507  17.241  0.00  0.00    +0.000 A 
ATOM      2  C   UNL     1       6.999   4.989  15.946  0.00  0.00    +0.000 A 
ATOM      3  C   UNL     1       5.753   5.457  15.531  0.00  0.00    +0.000 A 
ATOM      4  C   UNL     1       4.662   5.427  16.404  0.00  0.00    +0.000 A 
ATOM      5  C   UNL     1       4.797   4.921  17.706  0.00  0.00    +0.000 A 
ATOM      6  C   UNL     1       6.065   4.477  18.117  0.00  0.00    +0.000 A 
ENDROOT
BRANCH   5   7
ATOM      7  C   UNL     1       3.617   4.798  18.661  0.00  0.00    +0.000 C 
ATOM      8  C   UNL     1       3.711   3.540  19.544  0.00  0.00    +0.000 C 
ATOM      9  C   UNL     1       3.046   2.303  18.943  0.00  0.00    +0.000 C 
ATOM     10  C   UNL     1       1.670   2.611  18.363  0.00  0.00    +0.000 C 
ATOM     11  N   UNL     1       1.743   3.683  17.374  0.00  0.00    +0.000 NA
ATOM     12  C   UNL     1       2.234   4.925  17.983  0.00  0.00    +0.000 C 
ATOM     13  H   UNL     1       0.815   3.850  16.983  0.00  0.00    +0.000 HD
ENDBRANCH   5   7
BRANCH   1  14
ATOM     14  O   UNL     1       8.341   4.032  17.692  0.00  0.00    +0.000 OA
ATOM     15  H   UNL     1       9.040   4.356  17.100  0.00  0.00    +0.000 HD
ENDBRANCH   1  14
TORSDOF 2
ENDMDL
MODEL 9
REMARK VINA RESULT:      -6.2      2.321      4.596
REMARK  Name = 
REMARK  2 active torsions:
REMARK  status: ('A' for Active; 'I' for Inactive)
REMARK    1  A    between atoms: O_1  and  C_2
REMARK    2  A    between atoms: C_6  and  C_7
REMARK                            x       y       z     vdW  Elec       q    Type
REMARK                         _______ _______ _______ _____ _____    ______ ____
ROOT
ATOM      1  C   UNL     1       6.194   5.132  18.953  0.00  0.00    +0.000 A 
ATOM      2  C   UNL     1       6.626   4.627  17.734  0.00  0.00    +0.000 A 
ATOM      3  C   UNL     1       5.687   4.346  16.743  0.00  0.00    +0.000 A 
ATOM      4  C   UNL     1       4.327   4.558  16.980  0.00  0.00    +0.000 A 
ATOM      5  C   UNL     1       3.880   5.047  18.217  0.00  0.00    +0.000 A 
ATOM      6  C   UNL     1       4.842   5.350  19.196  0.00  0.00    +0.000 A 
ENDROOT
BRANCH   5   7
ATOM      7  C   UNL     1       2.403   5.218  18.545  0.00  0.00    +0.000 C 
ATOM      8  C   UNL     1       2.146   5.285  20.062  0.00  0.00    +0.000 C 
ATOM      9  C   UNL     1       1.888   3.928  20.713  0.00  0.00    +0.000 C 
ATOM     10  C   UNL     1       0.913   3.076  19.908  0.00  0.00    +0.000 C 
ATOM     11  N   UNL     1       1.376   2.904  18.533  0.00  0.00    +0.000 NA
ATOM     12  C   UNL     1       1.476   4.198  17.847  0.00  0.00    +0.000 C 
ATOM     13  H   UNL     1       0.720   2.309  18.025  0.00  0.00    +0.000 HD
ENDBRANCH   5   7
BRANCH   1  14
ATOM     14  O   UNL     1       7.073   5.416  19.956  0.00  0.00    +0.000 OA
ATOM     15  H   UNL     1       7.967   5.450  19.578  0.00  0.00    +0.000 HD
ENDBRANCH   1  14
TORSDOF 2
ENDMDL
