MODEL 1
REMARK VINA RESULT:      -7.4      0.000      0.000
REMARK  Name = 
REMARK  9 active torsions:
REMARK  status: ('A' for Active; 'I' for Inactive)
REMARK    1  A    between atoms: C_1  and  S_2
REMARK    2  A    between atoms: S_2  and  C_3
REMARK    3  A    between atoms: C_7  and  N_8
REMARK    4  A    between atoms: C_9  and  C_11
REMARK    5  A    between atoms: C_11  and  N_12
REMARK    6  A    between atoms: N_12  and  C_13
REMARK    7  A    between atoms: N_12  and  S_21
REMARK    8  A    between atoms: C_13  and  C_14
REMARK    9  A    between atoms: S_21  and  C_22
REMARK                            x       y       z     vdW  Elec       q    Type
REMARK                         _______ _______ _______ _____ _____    ______ ____
ROOT
ATOM      1  C   UNL     1       3.264   4.395  20.066  0.00  0.00    +0.000 C 
ENDROOT
BRANCH   1   3
ATOM      2  N   UNL     1       2.682   6.674  19.339  0.00  0.00    +0.000 N 
ATOM      3  C   UNL     1       2.279   5.552  20.064  0.00  0.00    +0.000 C 
ATOM      4  O   UNL     1       1.197   5.414  20.622  0.00  0.00    +0.000 OA
ATOM      5  H   UNL     1       3.565   6.596  18.847  0.00  0.00    +0.000 HD
BRANCH   2  10
ATOM      6  C   UNL     1       0.750   9.678  20.429  0.00  0.00    +0.000 A 
ATOM      7  C   UNL     1       0.547  10.319  19.201  0.00  0.00    +0.000 A 
ATOM      8  C   UNL     1       1.064   9.784  18.028  0.00  0.00    +0.000 A 
ATOM      9  C   UNL     1       1.784   8.590  18.069  0.00  0.00    +0.000 A 
ATOM     10  C   UNL     1       2.003   7.920  19.275  0.00  0.00    +0.000 A 
ATOM     11  C   UNL     1       1.488   8.481  20.462  0.00  0.00    +0.000 A 
BRANCH   6  13
ATOM     12  C   UNL     1      -0.062  12.194  21.436  0.00  0.00    +0.000 C 
ATOM     13  S   UNL     1      -0.079  10.431  21.828  0.00  0.00    +0.000 S 
ENDBRANCH   6  13
ENDBRANCH   2  10
ENDBRANCH   1   3
BRANCH   1  14
ATOM     14  N   UNL     1       3.729   3.925  18.729  0.00  0.00    +0.000 NA
BRANCH  14  15
ATOM     15  S   UNL     1       2.855   2.599  18.114  0.00  0.00    +0.000 S 
ATOM     16  C   UNL     1       1.790   2.165  19.470  0.00  0.00    +0.000 C 
ATOM     17  O   UNL     1       2.001   3.091  17.049  0.00  0.00    +0.000 OA
ATOM     18  O   UNL     1       3.779   1.512  17.891  0.00  0.00    +0.000 OA
ENDBRANCH  14  15
BRANCH  14  19
ATOM     19  C   UNL     1       5.212   3.771  18.623  0.00  0.00    +0.000 C 
BRANCH  19  20
ATOM     20  C   UNL     1       6.055   4.975  18.259  0.00  0.00    +0.000 A 
ATOM     21  C   UNL     1       5.599   5.912  17.317  0.00  0.00    +0.000 A 
ATOM     22  C   UNL     1       6.276   7.119  17.124  0.00  0.00    +0.000 A 
ATOM     23  C   UNL     1       7.419   7.399  17.868  0.00  0.00    +0.000 A 
ATOM     24 CL   UNL     1       8.183   8.934  17.721  0.00  0.00    +0.000 Cl
ATOM     25  C   UNL     1       7.925   6.454  18.758  0.00  0.00    +0.000 A 
ATOM     26  C   UNL     1       7.252   5.243  18.945  0.00  0.00    +0.000 A 
ENDBRANCH  19  20
ENDBRANCH  14  19
ENDBRANCH   1  14
TORSDOF 7
ENDMDL
MODEL 2
REMARK VINA RESULT:      -7.4      0.962      1.073
REMARK  Name = 
REMARK  9 active torsions:
REMARK  status: ('A' for Active; 'I' for Inactive)
REMARK    1  A    between atoms: C_1  and  S_2
REMARK    2  A    between atoms: S_2  and  C_3
REMARK    3  A    between atoms: C_7  and  N_8
REMARK    4  A    between atoms: C_9  and  C_11
REMARK    5  A    between atoms: C_11  and  N_12
REMARK    6  A    between atoms: N_12  and  C_13
REMARK    7  A    between atoms: N_12  and  S_21
REMARK    8  A    between atoms: C_13  and  C_14
REMARK    9  A    between atoms: S_21  and  C_22
REMARK                            x       y       z     vdW  Elec       q    Type
REMARK                         _______ _______ _______ _____ _____    ______ ____
ROOT
ATOM      1  C   UNL     1       3.000   4.693  19.920  0.00  0.00    +0.000 C 
ENDROOT
BRANCH   1   3
ATOM      2  N   UNL     1       2.137   6.874  20.665  0.00  0.00    +0.000 N 
ATOM      3  C   UNL     1       2.436   6.060  19.573  0.00  0.00    +0.000 C 
ATOM      4  O   UNL     1       2.344   6.384  18.395  0.00  0.00    +0.000 OA
ATOM      5  H   UNL     1       2.365   6.500  21.579  0.00  0.00    +0.000 HD
BRANCH   2  10
ATOM      6  C   UNL     1       0.151   9.846  21.747  0.00  0.00    +0.000 A 
ATOM      7  C   UNL     1       0.112  10.583  20.557  0.00  0.00    +0.000 A 
ATOM      8  C   UNL     1       0.757  10.121  19.416  0.00  0.00    +0.000 A 
ATOM      9  C   UNL     1       1.441   8.906  19.449  0.00  0.00    +0.000 A 
ATOM     10  C   UNL     1       1.498   8.141  20.617  0.00  0.00    +0.000 A 
ATOM     11  C   UNL     1       0.854   8.627  21.774  0.00  0.00    +0.000 A 
BRANCH   6  13
ATOM     12  C   UNL     1      -1.198  12.199  22.550  0.00  0.00    +0.000 C 
ATOM     13  S   UNL     1      -0.827  10.517  23.090  0.00  0.00    +0.000 S 
ENDBRANCH   6  13
ENDBRANCH   2  10
ENDBRANCH   1   3
BRANCH   1  14
ATOM     14  N   UNL     1       3.636   3.940  18.802  0.00  0.00    +0.000 NA
BRANCH  14  15
ATOM     15  S   UNL     1       2.843   2.487  18.400  0.00  0.00    +0.000 S 
ATOM     16  C   UNL     1       1.561   2.384  19.628  0.00  0.00    +0.000 C 
ATOM     17  O   UNL     1       2.186   2.684  17.121  0.00  0.00    +0.000 OA
ATOM     18  O   UNL     1       3.765   1.395  18.607  0.00  0.00    +0.000 OA
ENDBRANCH  14  15
BRANCH  14  19
ATOM     19  C   UNL     1       5.120   3.801  18.930  0.00  0.00    +0.000 C 
BRANCH  19  20
ATOM     20  C   UNL     1       6.009   4.938  18.473  0.00  0.00    +0.000 A 
ATOM     21  C   UNL     1       5.623   5.767  17.408  0.00  0.00    +0.000 A 
ATOM     22  C   UNL     1       6.339   6.930  17.111  0.00  0.00    +0.000 A 
ATOM     23  C   UNL     1       7.452   7.272  17.875  0.00  0.00    +0.000 A 
ATOM     24 CL   UNL     1       8.261   8.764  17.591  0.00  0.00    +0.000 Cl
ATOM     25  C   UNL     1       7.890   6.427  18.892  0.00  0.00    +0.000 A 
ATOM     26  C   UNL     1       7.178   5.260  19.183  0.00  0.00    +0.000 A 
ENDBRANCH  19  20
ENDBRANCH  14  19
ENDBRANCH   1  14
TORSDOF 7
ENDMDL
MODEL 3
REMARK VINA RESULT:      -7.4      3.373      4.692
REMARK  Name = 
REMARK  9 active torsions:
REMARK  status: ('A' for Active; 'I' for Inactive)
REMARK    1  A    between atoms: C_1  and  S_2
REMARK    2  A    between atoms: S_2  and  C_3
REMARK    3  A    between atoms: C_7  and  N_8
REMARK    4  A    between atoms: C_9  and  C_11
REMARK    5  A    between atoms: C_11  and  N_12
REMARK    6  A    between atoms: N_12  and  C_13
REMARK    7  A    between atoms: N_12  and  S_21
REMARK    8  A    between atoms: C_13  and  C_14
REMARK    9  A    between atoms: S_21  and  C_22
REMARK                            x       y       z     vdW  Elec       q    Type
REMARK                         _______ _______ _______ _____ _____    ______ ____
ROOT
ATOM      1  C   UNL     1       4.725   6.379  16.718  0.00  0.00    +0.000 C 
ENDROOT
BRANCH   1   3
ATOM      2  N   UNL     1       2.974   7.908  17.526  0.00  0.00    +0.000 N 
ATOM      3  C   UNL     1       3.887   6.911  17.868  0.00  0.00    +0.000 C 
ATOM      4  O   UNL     1       4.009   6.405  18.977  0.00  0.00    +0.000 OA
ATOM      5  H   UNL     1       2.921   8.149  16.543  0.00  0.00    +0.000 HD
BRANCH   2  10
ATOM      6  C   UNL     1       1.077  10.764  19.007  0.00  0.00    +0.000 A 
ATOM      7  C   UNL     1       0.660  10.201  20.220  0.00  0.00    +0.000 A 
ATOM      8  C   UNL     1       0.975   8.886  20.536  0.00  0.00    +0.000 A 
ATOM      9  C   UNL     1       1.725   8.118  19.645  0.00  0.00    +0.000 A 
ATOM     10  C   UNL     1       2.161   8.647  18.427  0.00  0.00    +0.000 A 
ATOM     11  C   UNL     1       1.821   9.978  18.108  0.00  0.00    +0.000 A 
BRANCH   6  13
ATOM     12  C   UNL     1       2.209  13.196  18.111  0.00  0.00    +0.000 C 
ATOM     13  S   UNL     1       0.692  12.502  18.801  0.00  0.00    +0.000 S 
ENDBRANCH   6  13
ENDBRANCH   2  10
ENDBRANCH   1   3
BRANCH   1  14
ATOM     14  N   UNL     1       5.527   5.154  17.000  0.00  0.00    +0.000 NA
BRANCH  14  15
ATOM     15  S   UNL     1       7.077   5.158  16.291  0.00  0.00    +0.000 S 
ATOM     16  C   UNL     1       6.748   4.641  14.622  0.00  0.00    +0.000 C 
ATOM     17  O   UNL     1       7.526   6.536  16.224  0.00  0.00    +0.000 OA
ATOM     18  O   UNL     1       7.872   4.141  16.938  0.00  0.00    +0.000 OA
ENDBRANCH  14  15
BRANCH  14  19
ATOM     19  C   UNL     1       4.776   3.877  16.799  0.00  0.00    +0.000 C 
BRANCH  19  20
ATOM     20  C   UNL     1       3.879   3.366  17.907  0.00  0.00    +0.000 A 
ATOM     21  C   UNL     1       4.424   2.928  19.126  0.00  0.00    +0.000 A 
ATOM     22  C   UNL     1       3.597   2.644  20.217  0.00  0.00    +0.000 A 
ATOM     23  C   UNL     1       2.218   2.792  20.098  0.00  0.00    +0.000 A 
ATOM     24 CL   UNL     1       1.209   2.562  21.473  0.00  0.00    +0.000 Cl
ATOM     25  C   UNL     1       1.655   3.160  18.878  0.00  0.00    +0.000 A 
ATOM     26  C   UNL     1       2.481   3.436  17.785  0.00  0.00    +0.000 A 
ENDBRANCH  19  20
ENDBRANCH  14  19
ENDBRANCH   1  14
TORSDOF 7
ENDMDL
MODEL 4
REMARK VINA RESULT:      -7.3      1.044      1.213
REMARK  Name = 
REMARK  9 active torsions:
REMARK  status: ('A' for Active; 'I' for Inactive)
REMARK    1  A    between atoms: C_1  and  S_2
REMARK    2  A    between atoms: S_2  and  C_3
REMARK    3  A    between atoms: C_7  and  N_8
REMARK    4  A    between atoms: C_9  and  C_11
REMARK    5  A    between atoms: C_11  and  N_12
REMARK    6  A    between atoms: N_12  and  C_13
REMARK    7  A    between atoms: N_12  and  S_21
REMARK    8  A    between atoms: C_13  and  C_14
REMARK    9  A    between atoms: S_21  and  C_22
REMARK                            x       y       z     vdW  Elec       q    Type
REMARK                         _______ _______ _______ _____ _____    ______ ____
ROOT
ATOM      1  C   UNL     1       3.515   4.924  19.938  0.00  0.00    +0.000 C 
ENDROOT
BRANCH   1   3
ATOM      2  N   UNL     1       2.632   7.106  19.220  0.00  0.00    +0.000 N 
ATOM      3  C   UNL     1       2.407   5.961  19.985  0.00  0.00    +0.000 C 
ATOM      4  O   UNL     1       1.385   5.713  20.614  0.00  0.00    +0.000 OA
ATOM      5  H   UNL     1       3.485   7.118  18.672  0.00  0.00    +0.000 HD
BRANCH   2  10
ATOM      6  C   UNL     1       0.547   9.969  20.405  0.00  0.00    +0.000 A 
ATOM      7  C   UNL     1       0.095  10.487  19.185  0.00  0.00    +0.000 A 
ATOM      8  C   UNL     1       0.493   9.917  17.982  0.00  0.00    +0.000 A 
ATOM      9  C   UNL     1       1.343   8.811  17.986  0.00  0.00    +0.000 A 
ATOM     10  C   UNL     1       1.812   8.266  19.184  0.00  0.00    +0.000 A 
ATOM     11  C   UNL     1       1.415   8.862  20.399  0.00  0.00    +0.000 A 
BRANCH   6  13
ATOM     12  C   UNL     1      -0.336   9.367  23.024  0.00  0.00    +0.000 C 
ATOM     13  S   UNL     1      -0.150  10.740  21.865  0.00  0.00    +0.000 S 
ENDBRANCH   6  13
ENDBRANCH   2  10
ENDBRANCH   1   3
BRANCH   1  14
ATOM     14  N   UNL     1       3.405   3.891  18.868  0.00  0.00    +0.000 NA
BRANCH  14  15
ATOM     15  S   UNL     1       2.627   2.457  19.361  0.00  0.00    +0.000 S 
ATOM     16  C   UNL     1       1.000   2.632  18.665  0.00  0.00    +0.000 C 
ATOM     17  O   UNL     1       3.264   1.352  18.670  0.00  0.00    +0.000 OA
ATOM     18  O   UNL     1       2.514   2.476  20.801  0.00  0.00    +0.000 OA
ENDBRANCH  14  15
BRANCH  14  19
ATOM     19  C   UNL     1       4.675   3.659  18.115  0.00  0.00    +0.000 C 
BRANCH  19  20
ATOM     20  C   UNL     1       5.598   4.829  17.846  0.00  0.00    +0.000 A 
ATOM     21  C   UNL     1       5.189   5.891  17.023  0.00  0.00    +0.000 A 
ATOM     22  C   UNL     1       5.952   7.058  16.931  0.00  0.00    +0.000 A 
ATOM     23  C   UNL     1       7.134   7.172  17.657  0.00  0.00    +0.000 A 
ATOM     24 CL   UNL     1       8.011   8.653  17.642  0.00  0.00    +0.000 Cl
ATOM     25  C   UNL     1       7.590   6.104  18.426  0.00  0.00    +0.000 A 
ATOM     26  C   UNL     1       6.831   4.933  18.512  0.00  0.00    +0.000 A 
ENDBRANCH  19  20
ENDBRANCH  14  19
ENDBRANCH   1  14
TORSDOF 7
ENDMDL
MODEL 5
REMARK VINA RESULT:      -7.3      1.535      2.144
REMARK  Name = 
REMARK  9 active torsions:
REMARK  status: ('A' for Active; 'I' for Inactive)
REMARK    1  A    between atoms: C_1  and  S_2
REMARK    2  A    between atoms: S_2  and  C_3
REMARK    3  A    between atoms: C_7  and  N_8
REMARK    4  A    between atoms: C_9  and  C_11
REMARK    5  A    between atoms: C_11  and  N_12
REMARK    6  A    between atoms: N_12  and  C_13
REMARK    7  A    between atoms: N_12  and  S_21
REMARK    8  A    between atoms: C_13  and  C_14
REMARK    9  A    between atoms: S_21  and  C_22
REMARK                            x       y       z     vdW  Elec       q    Type
REMARK                         _______ _______ _______ _____ _____    ______ ____
ROOT
ATOM      1  C   UNL     1       3.290   5.026  19.725  0.00  0.00    +0.000 C 
ENDROOT
BRANCH   1   3
ATOM      2  N   UNL     1       2.356   7.284  20.021  0.00  0.00    +0.000 N 
ATOM      3  C   UNL     1       2.151   5.915  20.194  0.00  0.00    +0.000 C 
ATOM      4  O   UNL     1       1.126   5.396  20.620  0.00  0.00    +0.000 OA
ATOM      5  H   UNL     1       3.217   7.553  19.559  0.00  0.00    +0.000 HD
BRANCH   2  10
ATOM      6  C   UNL     1       0.099  10.258  19.946  0.00  0.00    +0.000 A 
ATOM      7  C   UNL     1      -0.094  10.476  21.316  0.00  0.00    +0.000 A 
ATOM      8  C   UNL     1       0.489   9.635  22.256  0.00  0.00    +0.000 A 
ATOM      9  C   UNL     1       1.286   8.571  21.835  0.00  0.00    +0.000 A 
ATOM     10  C   UNL     1       1.504   8.325  20.477  0.00  0.00    +0.000 A 
ATOM     11  C   UNL     1       0.893   9.174  19.531  0.00  0.00    +0.000 A 
BRANCH   6  13
ATOM     12  C   UNL     1      -1.651  10.533  17.741  0.00  0.00    +0.000 C 
ATOM     13  S   UNL     1      -0.621  11.496  18.869  0.00  0.00    +0.000 S 
ENDBRANCH   6  13
ENDBRANCH   2  10
ENDBRANCH   1   3
BRANCH   1  14
ATOM     14  N   UNL     1       2.935   3.972  18.732  0.00  0.00    +0.000 NA
BRANCH  14  15
ATOM     15  S   UNL     1       2.557   2.462  19.424  0.00  0.00    +0.000 S 
ATOM     16  C   UNL     1       3.627   1.346  18.545  0.00  0.00    +0.000 C 
ATOM     17  O   UNL     1       3.012   2.483  20.801  0.00  0.00    +0.000 OA
ATOM     18  O   UNL     1       1.189   2.142  19.091  0.00  0.00    +0.000 OA
ENDBRANCH  14  15
BRANCH  14  19
ATOM     19  C   UNL     1       3.880   3.886  17.575  0.00  0.00    +0.000 C 
BRANCH  19  20
ATOM     20  C   UNL     1       5.002   4.896  17.462  0.00  0.00    +0.000 A 
ATOM     21  C   UNL     1       4.783   6.148  16.865  0.00  0.00    +0.000 A 
ATOM     22  C   UNL     1       5.752   7.152  16.934  0.00  0.00    +0.000 A 
ATOM     23  C   UNL     1       6.953   6.911  17.597  0.00  0.00    +0.000 A 
ATOM     24 CL   UNL     1       8.096   8.183  17.790  0.00  0.00    +0.000 Cl
ATOM     25  C   UNL     1       7.216   5.655  18.137  0.00  0.00    +0.000 A 
ATOM     26  C   UNL     1       6.249   4.648  18.061  0.00  0.00    +0.000 A 
ENDBRANCH  19  20
ENDBRANCH  14  19
ENDBRANCH   1  14
TORSDOF 7
ENDMDL
MODEL 6
REMARK VINA RESULT:      -7.2      1.354      1.841
REMARK  Name = 
REMARK  9 active torsions:
REMARK  status: ('A' for Active; 'I' for Inactive)
REMARK    1  A    between atoms: C_1  and  S_2
REMARK    2  A    between atoms: S_2  and  C_3
REMARK    3  A    between atoms: C_7  and  N_8
REMARK    4  A    between atoms: C_9  and  C_11
REMARK    5  A    between atoms: C_11  and  N_12
REMARK    6  A    between atoms: N_12  and  C_13
REMARK    7  A    between atoms: N_12  and  S_21
REMARK    8  A    between atoms: C_13  and  C_14
REMARK    9  A    between atoms: S_21  and  C_22
REMARK                            x       y       z     vdW  Elec       q    Type
REMARK                         _______ _______ _______ _____ _____    ______ ____
ROOT
ATOM      1  C   UNL     1       3.467   4.883  19.659  0.00  0.00    +0.000 C 
ENDROOT
BRANCH   1   3
ATOM      2  N   UNL     1       2.455   7.113  19.902  0.00  0.00    +0.000 N 
ATOM      3  C   UNL     1       2.303   5.744  20.119  0.00  0.00    +0.000 C 
ATOM      4  O   UNL     1       1.304   5.201  20.576  0.00  0.00    +0.000 OA
ATOM      5  H   UNL     1       3.300   7.399  19.419  0.00  0.00    +0.000 HD
BRANCH   2  10
ATOM      6  C   UNL     1       0.373  10.213  19.846  0.00  0.00    +0.000 A 
ATOM      7  C   UNL     1      -0.072  10.254  21.173  0.00  0.00    +0.000 A 
ATOM      8  C   UNL     1       0.285   9.256  22.071  0.00  0.00    +0.000 A 
ATOM      9  C   UNL     1       1.106   8.208  21.654  0.00  0.00    +0.000 A 
ATOM     10  C   UNL     1       1.572   8.136  20.340  0.00  0.00    +0.000 A 
ATOM     11  C   UNL     1       1.190   9.145  19.431  0.00  0.00    +0.000 A 
BRANCH   6  13
ATOM     12  C   UNL     1      -1.669  12.144  19.528  0.00  0.00    +0.000 C 
ATOM     13  S   UNL     1      -0.076  11.631  18.848  0.00  0.00    +0.000 S 
ENDBRANCH   6  13
ENDBRANCH   2  10
ENDBRANCH   1   3
BRANCH   1  14
ATOM     14  N   UNL     1       3.158   3.859  18.620  0.00  0.00    +0.000 NA
BRANCH  14  15
ATOM     15  S   UNL     1       2.705   2.342  19.249  0.00  0.00    +0.000 S 
ATOM     16  C   UNL     1       0.998   2.210  18.771  0.00  0.00    +0.000 C 
ATOM     17  O   UNL     1       3.429   1.326  18.509  0.00  0.00    +0.000 OA
ATOM     18  O   UNL     1       2.774   2.411  20.690  0.00  0.00    +0.000 OA
ENDBRANCH  14  15
BRANCH  14  19
ATOM     19  C   UNL     1       4.173   3.779  17.526  0.00  0.00    +0.000 C 
BRANCH  19  20
ATOM     20  C   UNL     1       5.218   4.869  17.407  0.00  0.00    +0.000 A 
ATOM     21  C   UNL     1       4.890   6.120  16.857  0.00  0.00    +0.000 A 
ATOM     22  C   UNL     1       5.789   7.188  16.925  0.00  0.00    +0.000 A 
ATOM     23  C   UNL     1       7.026   7.014  17.541  0.00  0.00    +0.000 A 
ATOM     24 CL   UNL     1       8.083   8.358  17.736  0.00  0.00    +0.000 Cl
ATOM     25  C   UNL     1       7.395   5.764  18.032  0.00  0.00    +0.000 A 
ATOM     26  C   UNL     1       6.499   4.693  17.956  0.00  0.00    +0.000 A 
ENDBRANCH  19  20
ENDBRANCH  14  19
ENDBRANCH   1  14
TORSDOF 7
ENDMDL
MODEL 7
REMARK VINA RESULT:      -7.2      2.105      2.566
REMARK  Name = 
REMARK  9 active torsions:
REMARK  status: ('A' for Active; 'I' for Inactive)
REMARK    1  A    between atoms: C_1  and  S_2
REMARK    2  A    between atoms: S_2  and  C_3
REMARK    3  A    between atoms: C_7  and  N_8
REMARK    4  A    between atoms: C_9  and  C_11
REMARK    5  A    between atoms: C_11  and  N_12
REMARK    6  A    between atoms: N_12  and  C_13
REMARK    7  A    between atoms: N_12  and  S_21
REMARK    8  A    between atoms: C_13  and  C_14
REMARK    9  A    between atoms: S_21  and  C_22
REMARK                            x       y       z     vdW  Elec       q    Type
REMARK                         _______ _______ _______ _____ _____    ______ ____
ROOT
ATOM      1  C   UNL     1       2.616   5.196  20.332  0.00  0.00    +0.000 C 
ENDROOT
BRANCH   1   3
ATOM      2  N   UNL     1       1.707   7.409  20.912  0.00  0.00    +0.000 N 
ATOM      3  C   UNL     1       2.132   6.565  19.886  0.00  0.00    +0.000 C 
ATOM      4  O   UNL     1       2.203   6.865  18.700  0.00  0.00    +0.000 OA
ATOM      5  H   UNL     1       1.804   7.051  21.855  0.00  0.00    +0.000 HD
BRANCH   2  10
ATOM      6  C   UNL     1      -0.235  10.496  21.713  0.00  0.00    +0.000 A 
ATOM      7  C   UNL     1      -0.207  11.152  20.476  0.00  0.00    +0.000 A 
ATOM      8  C   UNL     1       0.469  10.598  19.395  0.00  0.00    +0.000 A 
ATOM      9  C   UNL     1       1.116   9.371  19.537  0.00  0.00    +0.000 A 
ATOM     10  C   UNL     1       1.106   8.686  20.754  0.00  0.00    +0.000 A 
ATOM     11  C   UNL     1       0.432   9.265  21.849  0.00  0.00    +0.000 A 
BRANCH   6  13
ATOM     12  C   UNL     1      -2.331  12.371  22.023  0.00  0.00    +0.000 C 
ATOM     13  S   UNL     1      -1.244  11.281  22.968  0.00  0.00    +0.000 S 
ENDBRANCH   6  13
ENDBRANCH   2  10
ENDBRANCH   1   3
BRANCH   1  14
ATOM     14  N   UNL     1       3.549   4.494  19.406  0.00  0.00    +0.000 NA
BRANCH  14  15
ATOM     15  S   UNL     1       3.615   2.806  19.629  0.00  0.00    +0.000 S 
ATOM     16  C   UNL     1       3.423   2.182  17.975  0.00  0.00    +0.000 C 
ATOM     17  O   UNL     1       4.961   2.471  20.052  0.00  0.00    +0.000 OA
ATOM     18  O   UNL     1       2.464   2.407  20.405  0.00  0.00    +0.000 OA
ENDBRANCH  14  15
BRANCH  14  19
ATOM     19  C   UNL     1       4.893   5.139  19.294  0.00  0.00    +0.000 C 
BRANCH  19  20
ATOM     20  C   UNL     1       5.552   5.242  17.934  0.00  0.00    +0.000 A 
ATOM     21  C   UNL     1       6.812   4.667  17.703  0.00  0.00    +0.000 A 
ATOM     22  C   UNL     1       7.335   4.587  16.409  0.00  0.00    +0.000 A 
ATOM     23  C   UNL     1       6.602   5.085  15.335  0.00  0.00    +0.000 A 
ATOM     24 CL   UNL     1       7.186   4.876  13.729  0.00  0.00    +0.000 Cl
ATOM     25  C   UNL     1       5.381   5.718  15.552  0.00  0.00    +0.000 A 
ATOM     26  C   UNL     1       4.863   5.806  16.848  0.00  0.00    +0.000 A 
ENDBRANCH  19  20
ENDBRANCH  14  19
ENDBRANCH   1  14
TORSDOF 7
ENDMDL
MODEL 8
REMARK VINA RESULT:      -7.2      1.291      1.824
REMARK  Name = 
REMARK  9 active torsions:
REMARK  status: ('A' for Active; 'I' for Inactive)
REMARK    1  A    between atoms: C_1  and  S_2
REMARK    2  A    between atoms: S_2  and  C_3
REMARK    3  A    between atoms: C_7  and  N_8
REMARK    4  A    between atoms: C_9  and  C_11
REMARK    5  A    between atoms: C_11  and  N_12
REMARK    6  A    between atoms: N_12  and  C_13
REMARK    7  A    between atoms: N_12  and  S_21
REMARK    8  A    between atoms: C_13  and  C_14
REMARK    9  A    between atoms: S_21  and  C_22
REMARK                            x       y       z     vdW  Elec       q    Type
REMARK                         _______ _______ _______ _____ _____    ______ ____
ROOT
ATOM      1  C   UNL     1       3.449   5.139  19.583  0.00  0.00    +0.000 C 
ENDROOT
BRANCH   1   3
ATOM      2  N   UNL     1       2.275   7.071  20.555  0.00  0.00    +0.000 N 
ATOM      3  C   UNL     1       2.520   6.327  19.401  0.00  0.00    +0.000 C 
ATOM      4  O   UNL     1       2.109   6.596  18.279  0.00  0.00    +0.000 OA
ATOM      5  H   UNL     1       2.772   6.780  21.390  0.00  0.00    +0.000 HD
BRANCH   2  10
ATOM      6  C   UNL     1       0.596  10.341  19.896  0.00  0.00    +0.000 A 
ATOM      7  C   UNL     1      -0.334  10.374  20.942  0.00  0.00    +0.000 A 
ATOM      8  C   UNL     1      -0.429   9.318  21.840  0.00  0.00    +0.000 A 
ATOM      9  C   UNL     1       0.418   8.217  21.708  0.00  0.00    +0.000 A 
ATOM     10  C   UNL     1       1.361   8.151  20.680  0.00  0.00    +0.000 A 
ATOM     11  C   UNL     1       1.438   9.221  19.764  0.00  0.00    +0.000 A 
BRANCH   6  13
ATOM     12  C   UNL     1       2.316  11.756  18.152  0.00  0.00    +0.000 C 
ATOM     13  S   UNL     1       0.674  11.828  18.899  0.00  0.00    +0.000 S 
ENDBRANCH   6  13
ENDBRANCH   2  10
ENDBRANCH   1   3
BRANCH   1  14
ATOM     14  N   UNL     1       3.603   4.239  18.404  0.00  0.00    +0.000 NA
BRANCH  14  15
ATOM     15  S   UNL     1       2.628   2.843  18.460  0.00  0.00    +0.000 S 
ATOM     16  C   UNL     1       2.289   2.669  20.196  0.00  0.00    +0.000 C 
ATOM     17  O   UNL     1       1.368   3.161  17.815  0.00  0.00    +0.000 OA
ATOM     18  O   UNL     1       3.425   1.717  18.033  0.00  0.00    +0.000 OA
ENDBRANCH  14  15
BRANCH  14  19
ATOM     19  C   UNL     1       5.026   3.966  18.031  0.00  0.00    +0.000 C 
BRANCH  19  20
ATOM     20  C   UNL     1       5.989   5.126  17.895  0.00  0.00    +0.000 A 
ATOM     21  C   UNL     1       5.716   6.185  17.013  0.00  0.00    +0.000 A 
ATOM     22  C   UNL     1       6.494   7.345  17.027  0.00  0.00    +0.000 A 
ATOM     23  C   UNL     1       7.557   7.456  17.920  0.00  0.00    +0.000 A 
ATOM     24 CL   UNL     1       8.439   8.930  18.025  0.00  0.00    +0.000 Cl
ATOM     25  C   UNL     1       7.884   6.391  18.755  0.00  0.00    +0.000 A 
ATOM     26  C   UNL     1       7.110   5.226  18.736  0.00  0.00    +0.000 A 
ENDBRANCH  19  20
ENDBRANCH  14  19
ENDBRANCH   1  14
TORSDOF 7
ENDMDL
MODEL 9
REMARK VINA RESULT:      -7.1      1.713      2.090
REMARK  Name = 
REMARK  9 active torsions:
REMARK  status: ('A' for Active; 'I' for Inactive)
REMARK    1  A    between atoms: C_1  and  S_2
REMARK    2  A    between atoms: S_2  and  C_3
REMARK    3  A    between atoms: C_7  and  N_8
REMARK    4  A    between atoms: C_9  and  C_11
REMARK    5  A    between atoms: C_11  and  N_12
REMARK    6  A    between atoms: N_12  and  C_13
REMARK    7  A    between atoms: N_12  and  S_21
REMARK    8  A    between atoms: C_13  and  C_14
REMARK    9  A    between atoms: S_21  and  C_22
REMARK                            x       y       z     vdW  Elec       q    Type
REMARK                         _______ _______ _______ _____ _____    ______ ____
ROOT
ATOM      1  C   UNL     1       3.039   4.530  20.473  0.00  0.00    +0.000 C 
ENDROOT
BRANCH   1   3
ATOM      2  N   UNL     1       2.605   6.838  19.737  0.00  0.00    +0.000 N 
ATOM      3  C   UNL     1       2.052   5.661  20.242  0.00  0.00    +0.000 C 
ATOM      4  O   UNL     1       0.859   5.461  20.440  0.00  0.00    +0.000 OA
ATOM      5  H   UNL     1       3.596   6.813  19.529  0.00  0.00    +0.000 HD
BRANCH   2  10
ATOM      6  C   UNL     1       0.616   9.906  20.497  0.00  0.00    +0.000 A 
ATOM      7  C   UNL     1       0.462  10.444  19.213  0.00  0.00    +0.000 A 
ATOM      8  C   UNL     1       1.031   9.818  18.110  0.00  0.00    +0.000 A 
ATOM      9  C   UNL     1       1.753   8.637  18.278  0.00  0.00    +0.000 A 
ATOM     10  C   UNL     1       1.924   8.069  19.543  0.00  0.00    +0.000 A 
ATOM     11  C   UNL     1       1.357   8.721  20.658  0.00  0.00    +0.000 A 
BRANCH   6  13
ATOM     12  C   UNL     1      -0.239   9.603  23.176  0.00  0.00    +0.000 C 
ATOM     13  S   UNL     1      -0.274  10.764  21.793  0.00  0.00    +0.000 S 
ENDBRANCH   6  13
ENDBRANCH   2  10
ENDBRANCH   1   3
BRANCH   1  14
ATOM     14  N   UNL     1       3.647   3.927  19.252  0.00  0.00    +0.000 NA
BRANCH  14  15
ATOM     15  S   UNL     1       3.213   2.301  18.987  0.00  0.00    +0.000 S 
ATOM     16  C   UNL     1       1.769   2.107  20.007  0.00  0.00    +0.000 C 
ATOM     17  O   UNL     1       2.773   2.183  17.610  0.00  0.00    +0.000 OA
ATOM     18  O   UNL     1       4.262   1.461  19.514  0.00  0.00    +0.000 OA
ENDBRANCH  14  15
BRANCH  14  19
ATOM     19  C   UNL     1       5.112   4.191  19.111  0.00  0.00    +0.000 C 
BRANCH  19  20
ATOM     20  C   UNL     1       5.663   4.589  17.758  0.00  0.00    +0.000 A 
ATOM     21  C   UNL     1       7.043   4.539  17.502  0.00  0.00    +0.000 A 
ATOM     22  C   UNL     1       7.537   4.714  16.206  0.00  0.00    +0.000 A 
ATOM     23  C   UNL     1       6.654   4.945  15.154  0.00  0.00    +0.000 A 
ATOM     24 CL   UNL     1       7.248   5.037  13.542  0.00  0.00    +0.000 Cl
ATOM     25  C   UNL     1       5.288   5.064  15.399  0.00  0.00    +0.000 A 
ATOM     26  C   UNL     1       4.795   4.897  16.696  0.00  0.00    +0.000 A 
ENDBRANCH  19  20
ENDBRANCH  14  19
ENDBRANCH   1  14
TORSDOF 7
ENDMDL
