MODEL 1
REMARK VINA RESULT:      -7.5      0.000      0.000
REMARK  Name = 
REMARK  12 active torsions:
REMARK  status: ('A' for Active; 'I' for Inactive)
REMARK    1  A    between atoms: C_1  and  C_2
REMARK    2  A    between atoms: C_5  and  C_6
REMARK    3  A    between atoms: C_6  and  C_7
REMARK    4  A    between atoms: C_6  and  C_8
REMARK    5  A    between atoms: C_9  and  O_10
REMARK    6  A    between atoms: O_10  and  C_11
REMARK    7  A    between atoms: C_11  and  C_12
REMARK    8  A    between atoms: C_12  and  O_13
REMARK    9  A    between atoms: C_12  and  C_14
REMARK   10  A    between atoms: C_14  and  N_15
REMARK   11  A    between atoms: N_18  and  C_19
REMARK   12  A    between atoms: C_19  and  C_20
REMARK                            x       y       z     vdW  Elec       q    Type
REMARK                         _______ _______ _______ _____ _____    ______ ____
ROOT
ATOM      1  C   UNL     1       1.740   6.719  20.415  0.00  0.00    +0.000 C 
ENDROOT
BRANCH   1   2
ATOM      2  O   UNL     1       2.277   5.724  21.249  0.00  0.00    +0.000 OA
ATOM      3  H   UNL     1       1.765   5.736  22.100  0.00  0.00    +0.000 HD
ENDBRANCH   1   2
BRANCH   1   4
ATOM      4  C   UNL     1       2.616   6.954  19.195  0.00  0.00    +0.000 C 
BRANCH   4   5
ATOM      5  O   UNL     1       3.283   5.752  18.896  0.00  0.00    +0.000 OA
BRANCH   5  11
ATOM      6  C   UNL     1       0.620   2.348  18.944  0.00  0.00    +0.000 C 
ATOM      7  C   UNL     1       1.893   3.172  18.734  0.00  0.00    +0.000 C 
ATOM      8  C   UNL     1       3.066   2.321  18.220  0.00  0.00    +0.000 C 
ATOM      9  C   UNL     1       4.331   3.177  18.047  0.00  0.00    +0.000 C 
ATOM     10  C   UNL     1       4.097   4.393  17.098  0.00  0.00    +0.000 C 
ATOM     11  C   UNL     1       2.895   5.220  17.640  0.00  0.00    +0.000 C 
ATOM     12  C   UNL     1       1.643   4.309  17.731  0.00  0.00    +0.000 C 
BRANCH  10  13
ATOM     13  C   UNL     1       5.397   5.268  16.963  0.00  0.00    +0.000 C 
ATOM     14  C   UNL     1       6.592   4.453  16.436  0.00  0.00    +0.000 C 
ATOM     15  C   UNL     1       5.201   6.479  16.030  0.00  0.00    +0.000 C 
ENDBRANCH  10  13
ENDBRANCH   5  11
ENDBRANCH   4   5
ENDBRANCH   1   4
BRANCH   1  16
ATOM     16  C   UNL     1       1.530   8.043  21.169  0.00  0.00    +0.000 C 
BRANCH  16  17
ATOM     17  N   UNL     1       0.252   8.704  20.836  0.00  0.00    +0.000 NA
ATOM     18  C   UNL     1      -0.605   8.826  22.040  0.00  0.00    +0.000 C 
ATOM     19  C   UNL     1      -0.141   9.969  22.973  0.00  0.00    +0.000 C 
ATOM     20  N   UNL     1      -0.050  11.263  22.259  0.00  0.00    +0.000 NA
ATOM     21  C   UNL     1       0.861  11.123  21.105  0.00  0.00    +0.000 C 
ATOM     22  C   UNL     1       0.386  10.011  20.147  0.00  0.00    +0.000 C 
BRANCH  20  23
ATOM     23  C   UNL     1      -1.369  11.809  21.842  0.00  0.00    +0.000 C 
BRANCH  23  24
ATOM     24  C   UNL     1      -1.991  12.667  22.909  0.00  0.00    +0.000 A 
ATOM     25  C   UNL     1      -1.345  13.828  23.348  0.00  0.00    +0.000 A 
ATOM     26  C   UNL     1      -1.942  14.628  24.328  0.00  0.00    +0.000 A 
ATOM     27  C   UNL     1      -3.178  14.269  24.873  0.00  0.00    +0.000 A 
ATOM     28  C   UNL     1      -3.822  13.107  24.439  0.00  0.00    +0.000 A 
ATOM     29  C   UNL     1      -3.233  12.308  23.459  0.00  0.00    +0.000 A 
ENDBRANCH  23  24
ENDBRANCH  20  23
ENDBRANCH  16  17
ENDBRANCH   1  16
TORSDOF 9
ENDMDL
MODEL 2
REMARK VINA RESULT:      -7.0      1.436      3.255
REMARK  Name = 
REMARK  12 active torsions:
REMARK  status: ('A' for Active; 'I' for Inactive)
REMARK    1  A    between atoms: C_1  and  C_2
REMARK    2  A    between atoms: C_5  and  C_6
REMARK    3  A    between atoms: C_6  and  C_7
REMARK    4  A    between atoms: C_6  and  C_8
REMARK    5  A    between atoms: C_9  and  O_10
REMARK    6  A    between atoms: O_10  and  C_11
REMARK    7  A    between atoms: C_11  and  C_12
REMARK    8  A    between atoms: C_12  and  O_13
REMARK    9  A    between atoms: C_12  and  C_14
REMARK   10  A    between atoms: C_14  and  N_15
REMARK   11  A    between atoms: N_18  and  C_19
REMARK   12  A    between atoms: C_19  and  C_20
REMARK                            x       y       z     vdW  Elec       q    Type
REMARK                         _______ _______ _______ _____ _____    ______ ____
ROOT
ATOM      1  C   UNL     1       2.210   8.756  18.553  0.00  0.00    +0.000 C 
ENDROOT
BRANCH   1   2
ATOM      2  O   UNL     1       2.343   8.503  17.178  0.00  0.00    +0.000 OA
ATOM      3  H   UNL     1       1.724   7.761  16.948  0.00  0.00    +0.000 HD
ENDBRANCH   1   2
BRANCH   1   4
ATOM      4  C   UNL     1       2.186   7.465  19.356  0.00  0.00    +0.000 C 
BRANCH   4   5
ATOM      5  O   UNL     1       2.532   6.407  18.496  0.00  0.00    +0.000 OA
BRANCH   5  11
ATOM      6  C   UNL     1       6.353   5.759  16.581  0.00  0.00    +0.000 C 
ATOM      7  C   UNL     1       4.937   5.478  17.094  0.00  0.00    +0.000 C 
ATOM      8  C   UNL     1       4.446   4.069  16.722  0.00  0.00    +0.000 C 
ATOM      9  C   UNL     1       3.015   3.835  17.230  0.00  0.00    +0.000 C 
ATOM     10  C   UNL     1       2.892   4.053  18.771  0.00  0.00    +0.000 C 
ATOM     11  C   UNL     1       3.412   5.481  19.111  0.00  0.00    +0.000 C 
ATOM     12  C   UNL     1       4.878   5.624  18.623  0.00  0.00    +0.000 C 
BRANCH  10  13
ATOM     13  C   UNL     1       1.412   3.838  19.259  0.00  0.00    +0.000 C 
ATOM     14  C   UNL     1       0.837   2.491  18.786  0.00  0.00    +0.000 C 
ATOM     15  C   UNL     1       1.282   3.895  20.795  0.00  0.00    +0.000 C 
ENDBRANCH  10  13
ENDBRANCH   5  11
ENDBRANCH   4   5
ENDBRANCH   1   4
BRANCH   1  16
ATOM     16  C   UNL     1       0.951   9.585  18.861  0.00  0.00    +0.000 C 
BRANCH  16  17
ATOM     17  N   UNL     1       1.218  10.740  19.743  0.00  0.00    +0.000 NA
ATOM     18  C   UNL     1       0.350  11.886  19.383  0.00  0.00    +0.000 C 
ATOM     19  C   UNL     1      -1.099  11.703  19.893  0.00  0.00    +0.000 C 
ATOM     20  N   UNL     1      -1.144  11.447  21.350  0.00  0.00    +0.000 NA
ATOM     21  C   UNL     1      -0.323  10.260  21.665  0.00  0.00    +0.000 C 
ATOM     22  C   UNL     1       1.135  10.447  21.195  0.00  0.00    +0.000 C 
BRANCH  20  23
ATOM     23  C   UNL     1      -0.742  12.616  22.175  0.00  0.00    +0.000 C 
BRANCH  23  24
ATOM     24  C   UNL     1      -1.824  13.037  23.130  0.00  0.00    +0.000 A 
ATOM     25  C   UNL     1      -1.730  14.254  23.815  0.00  0.00    +0.000 A 
ATOM     26  C   UNL     1      -2.752  14.643  24.687  0.00  0.00    +0.000 A 
ATOM     27  C   UNL     1      -3.863  13.817  24.881  0.00  0.00    +0.000 A 
ATOM     28  C   UNL     1      -3.956  12.599  24.203  0.00  0.00    +0.000 A 
ATOM     29  C   UNL     1      -2.942  12.209  23.328  0.00  0.00    +0.000 A 
ENDBRANCH  23  24
ENDBRANCH  20  23
ENDBRANCH  16  17
ENDBRANCH   1  16
TORSDOF 9
ENDMDL
MODEL 3
REMARK VINA RESULT:      -6.8      1.718      3.530
REMARK  Name = 
REMARK  12 active torsions:
REMARK  status: ('A' for Active; 'I' for Inactive)
REMARK    1  A    between atoms: C_1  and  C_2
REMARK    2  A    between atoms: C_5  and  C_6
REMARK    3  A    between atoms: C_6  and  C_7
REMARK    4  A    between atoms: C_6  and  C_8
REMARK    5  A    between atoms: C_9  and  O_10
REMARK    6  A    between atoms: O_10  and  C_11
REMARK    7  A    between atoms: C_11  and  C_12
REMARK    8  A    between atoms: C_12  and  O_13
REMARK    9  A    between atoms: C_12  and  C_14
REMARK   10  A    between atoms: C_14  and  N_15
REMARK   11  A    between atoms: N_18  and  C_19
REMARK   12  A    between atoms: C_19  and  C_20
REMARK                            x       y       z     vdW  Elec       q    Type
REMARK                         _______ _______ _______ _____ _____    ______ ____
ROOT
ATOM      1  C   UNL     1       2.478   8.669  18.304  0.00  0.00    +0.000 C 
ENDROOT
BRANCH   1   2
ATOM      2  O   UNL     1       2.896   8.250  17.030  0.00  0.00    +0.000 OA
ATOM      3  H   UNL     1       2.127   7.797  16.595  0.00  0.00    +0.000 HD
ENDBRANCH   1   2
BRANCH   1   4
ATOM      4  C   UNL     1       2.200   7.482  19.214  0.00  0.00    +0.000 C 
BRANCH   4   5
ATOM      5  O   UNL     1       2.424   6.304  18.480  0.00  0.00    +0.000 OA
BRANCH   5  11
ATOM      6  C   UNL     1       6.102   5.616  16.314  0.00  0.00    +0.000 C 
ATOM      7  C   UNL     1       4.744   5.336  16.965  0.00  0.00    +0.000 C 
ATOM      8  C   UNL     1       4.280   3.885  16.753  0.00  0.00    +0.000 C 
ATOM      9  C   UNL     1       2.904   3.649  17.396  0.00  0.00    +0.000 C 
ATOM     10  C   UNL     1       2.896   3.995  18.917  0.00  0.00    +0.000 C 
ATOM     11  C   UNL     1       3.387   5.463  19.094  0.00  0.00    +0.000 C 
ATOM     12  C   UNL     1       4.801   5.610  18.476  0.00  0.00    +0.000 C 
BRANCH  10  13
ATOM     13  C   UNL     1       1.471   3.775  19.543  0.00  0.00    +0.000 C 
ATOM     14  C   UNL     1       0.708   2.627  18.857  0.00  0.00    +0.000 C 
ATOM     15  C   UNL     1       1.528   3.469  21.054  0.00  0.00    +0.000 C 
ENDBRANCH  10  13
ENDBRANCH   5  11
ENDBRANCH   4   5
ENDBRANCH   1   4
BRANCH   1  16
ATOM     16  C   UNL     1       1.235   9.571  18.229  0.00  0.00    +0.000 C 
BRANCH  16  17
ATOM     17  N   UNL     1       1.238  10.648  19.239  0.00  0.00    +0.000 NA
ATOM     18  C   UNL     1       0.566  11.861  18.715  0.00  0.00    +0.000 C 
ATOM     19  C   UNL     1      -0.975  11.723  18.719  0.00  0.00    +0.000 C 
ATOM     20  N   UNL     1      -1.493  11.373  20.061  0.00  0.00    +0.000 NA
ATOM     21  C   UNL     1      -0.853  10.126  20.525  0.00  0.00    +0.000 C 
ATOM     22  C   UNL     1       0.684  10.265  20.561  0.00  0.00    +0.000 C 
BRANCH  20  23
ATOM     23  C   UNL     1      -1.344  12.462  21.062  0.00  0.00    +0.000 C 
BRANCH  23  24
ATOM     24  C   UNL     1      -2.574  12.627  21.911  0.00  0.00    +0.000 A 
ATOM     25  C   UNL     1      -2.553  12.268  23.263  0.00  0.00    +0.000 A 
ATOM     26  C   UNL     1      -3.699  12.443  24.047  0.00  0.00    +0.000 A 
ATOM     27  C   UNL     1      -4.864  12.970  23.482  0.00  0.00    +0.000 A 
ATOM     28  C   UNL     1      -4.888  13.324  22.130  0.00  0.00    +0.000 A 
ATOM     29  C   UNL     1      -3.747  13.156  21.346  0.00  0.00    +0.000 A 
ENDBRANCH  23  24
ENDBRANCH  20  23
ENDBRANCH  16  17
ENDBRANCH   1  16
TORSDOF 9
ENDMDL
MODEL 4
REMARK VINA RESULT:      -6.8      2.585      5.029
REMARK  Name = 
REMARK  12 active torsions:
REMARK  status: ('A' for Active; 'I' for Inactive)
REMARK    1  A    between atoms: C_1  and  C_2
REMARK    2  A    between atoms: C_5  and  C_6
REMARK    3  A    between atoms: C_6  and  C_7
REMARK    4  A    between atoms: C_6  and  C_8
REMARK    5  A    between atoms: C_9  and  O_10
REMARK    6  A    between atoms: O_10  and  C_11
REMARK    7  A    between atoms: C_11  and  C_12
REMARK    8  A    between atoms: C_12  and  O_13
REMARK    9  A    between atoms: C_12  and  C_14
REMARK   10  A    between atoms: C_14  and  N_15
REMARK   11  A    between atoms: N_18  and  C_19
REMARK   12  A    between atoms: C_19  and  C_20
REMARK                            x       y       z     vdW  Elec       q    Type
REMARK                         _______ _______ _______ _____ _____    ______ ____
ROOT
ATOM      1  C   UNL     1       4.100   2.798  18.458  0.00  0.00    +0.000 C 
ENDROOT
BRANCH   1   2
ATOM      2  O   UNL     1       5.279   3.084  19.166  0.00  0.00    +0.000 OA
ATOM      3  H   UNL     1       5.279   4.057  19.369  0.00  0.00    +0.000 HD
ENDBRANCH   1   2
BRANCH   1   4
ATOM      4  C   UNL     1       4.244   3.133  16.981  0.00  0.00    +0.000 C 
BRANCH   4   5
ATOM      5  O   UNL     1       5.426   3.877  16.814  0.00  0.00    +0.000 OA
BRANCH   5  11
ATOM      6  C   UNL     1       5.701   3.428  12.523  0.00  0.00    +0.000 C 
ATOM      7  C   UNL     1       6.052   3.872  13.946  0.00  0.00    +0.000 C 
ATOM      8  C   UNL     1       7.352   4.691  14.002  0.00  0.00    +0.000 C 
ATOM      9  C   UNL     1       7.684   5.096  15.448  0.00  0.00    +0.000 C 
ATOM     10  C   UNL     1       6.522   5.892  16.120  0.00  0.00    +0.000 C 
ATOM     11  C   UNL     1       5.221   5.040  16.029  0.00  0.00    +0.000 C 
ATOM     12  C   UNL     1       4.918   4.721  14.542  0.00  0.00    +0.000 C 
BRANCH  10  13
ATOM     13  C   UNL     1       6.875   6.266  17.606  0.00  0.00    +0.000 C 
ATOM     14  C   UNL     1       7.766   5.204  18.274  0.00  0.00    +0.000 C 
ATOM     15  C   UNL     1       7.592   7.626  17.719  0.00  0.00    +0.000 C 
ENDBRANCH  10  13
ENDBRANCH   5  11
ENDBRANCH   4   5
ENDBRANCH   1   4
BRANCH   1  16
ATOM     16  C   UNL     1       2.887   3.539  19.045  0.00  0.00    +0.000 C 
BRANCH  16  17
ATOM     17  N   UNL     1       3.255   4.531  20.075  0.00  0.00    +0.000 NA
ATOM     18  C   UNL     1       3.667   5.809  19.448  0.00  0.00    +0.000 C 
ATOM     19  C   UNL     1       2.456   6.631  18.946  0.00  0.00    +0.000 C 
ATOM     20  N   UNL     1       1.466   6.867  20.022  0.00  0.00    +0.000 NA
ATOM     21  C   UNL     1       1.028   5.572  20.579  0.00  0.00    +0.000 C 
ATOM     22  C   UNL     1       2.225   4.760  21.118  0.00  0.00    +0.000 C 
BRANCH  20  23
ATOM     23  C   UNL     1       1.952   7.779  21.091  0.00  0.00    +0.000 C 
BRANCH  23  24
ATOM     24  C   UNL     1       0.998   8.912  21.349  0.00  0.00    +0.000 A 
ATOM     25  C   UNL     1       0.594   9.749  20.303  0.00  0.00    +0.000 A 
ATOM     26  C   UNL     1      -0.308  10.788  20.552  0.00  0.00    +0.000 A 
ATOM     27  C   UNL     1      -0.802  10.997  21.844  0.00  0.00    +0.000 A 
ATOM     28  C   UNL     1      -0.395  10.166  22.891  0.00  0.00    +0.000 A 
ATOM     29  C   UNL     1       0.501   9.125  22.646  0.00  0.00    +0.000 A 
ENDBRANCH  23  24
ENDBRANCH  20  23
ENDBRANCH  16  17
ENDBRANCH   1  16
TORSDOF 9
ENDMDL
MODEL 5
REMARK VINA RESULT:      -6.7      1.846      3.590
REMARK  Name = 
REMARK  12 active torsions:
REMARK  status: ('A' for Active; 'I' for Inactive)
REMARK    1  A    between atoms: C_1  and  C_2
REMARK    2  A    between atoms: C_5  and  C_6
REMARK    3  A    between atoms: C_6  and  C_7
REMARK    4  A    between atoms: C_6  and  C_8
REMARK    5  A    between atoms: C_9  and  O_10
REMARK    6  A    between atoms: O_10  and  C_11
REMARK    7  A    between atoms: C_11  and  C_12
REMARK    8  A    between atoms: C_12  and  O_13
REMARK    9  A    between atoms: C_12  and  C_14
REMARK   10  A    between atoms: C_14  and  N_15
REMARK   11  A    between atoms: N_18  and  C_19
REMARK   12  A    between atoms: C_19  and  C_20
REMARK                            x       y       z     vdW  Elec       q    Type
REMARK                         _______ _______ _______ _____ _____    ______ ____
ROOT
ATOM      1  C   UNL     1       2.368   8.731  18.341  0.00  0.00    +0.000 C 
ENDROOT
BRANCH   1   2
ATOM      2  O   UNL     1       2.581   8.235  17.044  0.00  0.00    +0.000 OA
ATOM      3  H   UNL     1       2.278   8.930  16.403  0.00  0.00    +0.000 HD
ENDBRANCH   1   2
BRANCH   1   4
ATOM      4  C   UNL     1       2.210   7.603  19.348  0.00  0.00    +0.000 C 
BRANCH   4   5
ATOM      5  O   UNL     1       2.397   6.383  18.674  0.00  0.00    +0.000 OA
BRANCH   5  11
ATOM      6  C   UNL     1       5.662   5.531  15.972  0.00  0.00    +0.000 C 
ATOM      7  C   UNL     1       4.454   5.298  16.884  0.00  0.00    +0.000 C 
ATOM      8  C   UNL     1       4.025   3.821  16.923  0.00  0.00    +0.000 C 
ATOM      9  C   UNL     1       2.796   3.631  17.826  0.00  0.00    +0.000 C 
ATOM     10  C   UNL     1       3.041   4.154  19.275  0.00  0.00    +0.000 C 
ATOM     11  C   UNL     1       3.489   5.643  19.195  0.00  0.00    +0.000 C 
ATOM     12  C   UNL     1       4.765   5.750  18.319  0.00  0.00    +0.000 C 
BRANCH  10  13
ATOM     13  C   UNL     1       1.759   3.976  20.168  0.00  0.00    +0.000 C 
ATOM     14  C   UNL     1       0.759   2.979  19.554  0.00  0.00    +0.000 C 
ATOM     15  C   UNL     1       2.093   3.493  21.594  0.00  0.00    +0.000 C 
ENDBRANCH  10  13
ENDBRANCH   5  11
ENDBRANCH   4   5
ENDBRANCH   1   4
BRANCH   1  16
ATOM     16  C   UNL     1       1.145   9.661  18.402  0.00  0.00    +0.000 C 
BRANCH  16  17
ATOM     17  N   UNL     1       1.103  10.486  19.627  0.00  0.00    +0.000 NA
ATOM     18  C   UNL     1       1.336  11.914  19.305  0.00  0.00    +0.000 C 
ATOM     19  C   UNL     1       0.085  12.585  18.689  0.00  0.00    +0.000 C 
ATOM     20  N   UNL     1      -1.106  12.429  19.553  0.00  0.00    +0.000 NA
ATOM     21  C   UNL     1      -1.349  10.993  19.800  0.00  0.00    +0.000 C 
ATOM     22  C   UNL     1      -0.120  10.321  20.449  0.00  0.00    +0.000 C 
BRANCH  20  23
ATOM     23  C   UNL     1      -1.024  13.189  20.828  0.00  0.00    +0.000 C 
BRANCH  23  24
ATOM     24  C   UNL     1      -2.293  13.094  21.629  0.00  0.00    +0.000 A 
ATOM     25  C   UNL     1      -3.501  13.562  21.100  0.00  0.00    +0.000 A 
ATOM     26  C   UNL     1      -4.678  13.451  21.848  0.00  0.00    +0.000 A 
ATOM     27  C   UNL     1      -4.649  12.880  23.124  0.00  0.00    +0.000 A 
ATOM     28  C   UNL     1      -3.443  12.418  23.657  0.00  0.00    +0.000 A 
ATOM     29  C   UNL     1      -2.268  12.522  22.912  0.00  0.00    +0.000 A 
ENDBRANCH  23  24
ENDBRANCH  20  23
ENDBRANCH  16  17
ENDBRANCH   1  16
TORSDOF 9
ENDMDL
MODEL 6
REMARK VINA RESULT:      -6.7      1.126      1.420
REMARK  Name = 
REMARK  12 active torsions:
REMARK  status: ('A' for Active; 'I' for Inactive)
REMARK    1  A    between atoms: C_1  and  C_2
REMARK    2  A    between atoms: C_5  and  C_6
REMARK    3  A    between atoms: C_6  and  C_7
REMARK    4  A    between atoms: C_6  and  C_8
REMARK    5  A    between atoms: C_9  and  O_10
REMARK    6  A    between atoms: O_10  and  C_11
REMARK    7  A    between atoms: C_11  and  C_12
REMARK    8  A    between atoms: C_12  and  O_13
REMARK    9  A    between atoms: C_12  and  C_14
REMARK   10  A    between atoms: C_14  and  N_15
REMARK   11  A    between atoms: N_18  and  C_19
REMARK   12  A    between atoms: C_19  and  C_20
REMARK                            x       y       z     vdW  Elec       q    Type
REMARK                         _______ _______ _______ _____ _____    ______ ____
ROOT
ATOM      1  C   UNL     1       1.606   7.620  19.767  0.00  0.00    +0.000 C 
ENDROOT
BRANCH   1   2
ATOM      2  O   UNL     1       2.191   6.991  20.878  0.00  0.00    +0.000 OA
ATOM      3  H   UNL     1       3.142   6.810  20.655  0.00  0.00    +0.000 HD
ENDBRANCH   1   2
BRANCH   1   4
ATOM      4  C   UNL     1       2.475   7.477  18.527  0.00  0.00    +0.000 C 
BRANCH   4   5
ATOM      5  O   UNL     1       3.254   6.315  18.668  0.00  0.00    +0.000 OA
BRANCH   5  11
ATOM      6  C   UNL     1       0.971   2.982  20.207  0.00  0.00    +0.000 C 
ATOM      7  C   UNL     1       2.142   3.766  19.608  0.00  0.00    +0.000 C 
ATOM      8  C   UNL     1       3.381   2.886  19.377  0.00  0.00    +0.000 C 
ATOM      9  C   UNL     1       4.542   3.712  18.801  0.00  0.00    +0.000 C 
ATOM     10  C   UNL     1       4.150   4.438  17.476  0.00  0.00    +0.000 C 
ATOM     11  C   UNL     1       2.884   5.305  17.743  0.00  0.00    +0.000 C 
ATOM     12  C   UNL     1       1.740   4.397  18.265  0.00  0.00    +0.000 C 
BRANCH  10  13
ATOM     13  C   UNL     1       5.344   5.300  16.925  0.00  0.00    +0.000 C 
ATOM     14  C   UNL     1       6.663   4.998  17.659  0.00  0.00    +0.000 C 
ATOM     15  C   UNL     1       5.582   5.085  15.416  0.00  0.00    +0.000 C 
ENDBRANCH  10  13
ENDBRANCH   5  11
ENDBRANCH   4   5
ENDBRANCH   1   4
BRANCH   1  16
ATOM     16  C   UNL     1       1.322   9.107  20.037  0.00  0.00    +0.000 C 
BRANCH  16  17
ATOM     17  N   UNL     1      -0.079   9.370  20.424  0.00  0.00    +0.000 NA
ATOM     18  C   UNL     1      -0.367   8.806  21.764  0.00  0.00    +0.000 C 
ATOM     19  C   UNL     1       0.217   9.677  22.902  0.00  0.00    +0.000 C 
ATOM     20  N   UNL     1      -0.242  11.082  22.812  0.00  0.00    +0.000 NA
ATOM     21  C   UNL     1       0.119  11.633  21.490  0.00  0.00    +0.000 C 
ATOM     22  C   UNL     1      -0.491  10.793  20.348  0.00  0.00    +0.000 C 
BRANCH  20  23
ATOM     23  C   UNL     1      -1.692  11.255  23.092  0.00  0.00    +0.000 C 
BRANCH  23  24
ATOM     24  C   UNL     1      -2.128  12.688  22.961  0.00  0.00    +0.000 A 
ATOM     25  C   UNL     1      -3.272  13.015  22.224  0.00  0.00    +0.000 A 
ATOM     26  C   UNL     1      -3.678  14.350  22.125  0.00  0.00    +0.000 A 
ATOM     27  C   UNL     1      -2.942  15.358  22.755  0.00  0.00    +0.000 A 
ATOM     28  C   UNL     1      -1.796  15.034  23.486  0.00  0.00    +0.000 A 
ATOM     29  C   UNL     1      -1.390  13.704  23.592  0.00  0.00    +0.000 A 
ENDBRANCH  23  24
ENDBRANCH  20  23
ENDBRANCH  16  17
ENDBRANCH   1  16
TORSDOF 9
ENDMDL
MODEL 7
REMARK VINA RESULT:      -6.7      1.297      1.688
REMARK  Name = 
REMARK  12 active torsions:
REMARK  status: ('A' for Active; 'I' for Inactive)
REMARK    1  A    between atoms: C_1  and  C_2
REMARK    2  A    between atoms: C_5  and  C_6
REMARK    3  A    between atoms: C_6  and  C_7
REMARK    4  A    between atoms: C_6  and  C_8
REMARK    5  A    between atoms: C_9  and  O_10
REMARK    6  A    between atoms: O_10  and  C_11
REMARK    7  A    between atoms: C_11  and  C_12
REMARK    8  A    between atoms: C_12  and  O_13
REMARK    9  A    between atoms: C_12  and  C_14
REMARK   10  A    between atoms: C_14  and  N_15
REMARK   11  A    between atoms: N_18  and  C_19
REMARK   12  A    between atoms: C_19  and  C_20
REMARK                            x       y       z     vdW  Elec       q    Type
REMARK                         _______ _______ _______ _____ _____    ______ ____
ROOT
ATOM      1  C   UNL     1       1.752   8.057  19.330  0.00  0.00    +0.000 C 
ENDROOT
BRANCH   1   2
ATOM      2  O   UNL     1       2.225   7.670  20.596  0.00  0.00    +0.000 OA
ATOM      3  H   UNL     1       1.638   8.091  21.277  0.00  0.00    +0.000 HD
ENDBRANCH   1   2
BRANCH   1   4
ATOM      4  C   UNL     1       2.753   7.716  18.236  0.00  0.00    +0.000 C 
BRANCH   4   5
ATOM      5  O   UNL     1       3.449   6.557  18.623  0.00  0.00    +0.000 OA
BRANCH   5  11
ATOM      6  C   UNL     1       1.182   3.356  20.441  0.00  0.00    +0.000 C 
ATOM      7  C   UNL     1       2.357   4.099  19.800  0.00  0.00    +0.000 C 
ATOM      8  C   UNL     1       3.623   3.231  19.711  0.00  0.00    +0.000 C 
ATOM      9  C   UNL     1       4.787   4.018  19.087  0.00  0.00    +0.000 C 
ATOM     10  C   UNL     1       4.428   4.584  17.678  0.00  0.00    +0.000 C 
ATOM     11  C   UNL     1       3.135   5.443  17.804  0.00  0.00    +0.000 C 
ATOM     12  C   UNL     1       1.992   4.569  18.383  0.00  0.00    +0.000 C 
BRANCH  10  13
ATOM     13  C   UNL     1       5.623   5.411  17.077  0.00  0.00    +0.000 C 
ATOM     14  C   UNL     1       6.892   4.555  16.908  0.00  0.00    +0.000 C 
ATOM     15  C   UNL     1       5.284   6.030  15.706  0.00  0.00    +0.000 C 
ENDBRANCH  10  13
ENDBRANCH   5  11
ENDBRANCH   4   5
ENDBRANCH   1   4
BRANCH   1  16
ATOM     16  C   UNL     1       1.417   9.557  19.281  0.00  0.00    +0.000 C 
BRANCH  16  17
ATOM     17  N   UNL     1      -0.027   9.834  19.427  0.00  0.00    +0.000 NA
ATOM     18  C   UNL     1      -0.400   9.932  20.857  0.00  0.00    +0.000 C 
ATOM     19  C   UNL     1       0.024  11.283  21.480  0.00  0.00    +0.000 C 
ATOM     20  N   UNL     1      -0.508  12.434  20.718  0.00  0.00    +0.000 NA
ATOM     21  C   UNL     1      -0.063  12.341  19.313  0.00  0.00    +0.000 C 
ATOM     22  C   UNL     1      -0.514  11.013  18.669  0.00  0.00    +0.000 C 
BRANCH  20  23
ATOM     23  C   UNL     1      -1.985  12.578  20.808  0.00  0.00    +0.000 C 
BRANCH  23  24
ATOM     24  C   UNL     1      -2.423  13.125  22.139  0.00  0.00    +0.000 A 
ATOM     25  C   UNL     1      -3.390  12.454  22.896  0.00  0.00    +0.000 A 
ATOM     26  C   UNL     1      -3.776  12.962  24.140  0.00  0.00    +0.000 A 
ATOM     27  C   UNL     1      -3.202  14.141  24.627  0.00  0.00    +0.000 A 
ATOM     28  C   UNL     1      -2.241  14.815  23.870  0.00  0.00    +0.000 A 
ATOM     29  C   UNL     1      -1.849  14.309  22.631  0.00  0.00    +0.000 A 
ENDBRANCH  23  24
ENDBRANCH  20  23
ENDBRANCH  16  17
ENDBRANCH   1  16
TORSDOF 9
ENDMDL
MODEL 8
REMARK VINA RESULT:      -6.7      1.663      3.436
REMARK  Name = 
REMARK  12 active torsions:
REMARK  status: ('A' for Active; 'I' for Inactive)
REMARK    1  A    between atoms: C_1  and  C_2
REMARK    2  A    between atoms: C_5  and  C_6
REMARK    3  A    between atoms: C_6  and  C_7
REMARK    4  A    between atoms: C_6  and  C_8
REMARK    5  A    between atoms: C_9  and  O_10
REMARK    6  A    between atoms: O_10  and  C_11
REMARK    7  A    between atoms: C_11  and  C_12
REMARK    8  A    between atoms: C_12  and  O_13
REMARK    9  A    between atoms: C_12  and  C_14
REMARK   10  A    between atoms: C_14  and  N_15
REMARK   11  A    between atoms: N_18  and  C_19
REMARK   12  A    between atoms: C_19  and  C_20
REMARK                            x       y       z     vdW  Elec       q    Type
REMARK                         _______ _______ _______ _____ _____    ______ ____
ROOT
ATOM      1  C   UNL     1       2.348   8.733  18.242  0.00  0.00    +0.000 C 
ENDROOT
BRANCH   1   2
ATOM      2  O   UNL     1       3.025   8.430  17.050  0.00  0.00    +0.000 OA
ATOM      3  H   UNL     1       3.996   8.395  17.256  0.00  0.00    +0.000 HD
ENDBRANCH   1   2
BRANCH   1   4
ATOM      4  C   UNL     1       2.255   7.518  19.152  0.00  0.00    +0.000 C 
BRANCH   4   5
ATOM      5  O   UNL     1       2.487   6.369  18.376  0.00  0.00    +0.000 OA
BRANCH   5  11
ATOM      6  C   UNL     1       6.325   5.736  16.490  0.00  0.00    +0.000 C 
ATOM      7  C   UNL     1       4.911   5.447  17.000  0.00  0.00    +0.000 C 
ATOM      8  C   UNL     1       4.437   4.027  16.647  0.00  0.00    +0.000 C 
ATOM      9  C   UNL     1       3.006   3.784  17.151  0.00  0.00    +0.000 C 
ATOM     10  C   UNL     1       2.872   4.024  18.688  0.00  0.00    +0.000 C 
ATOM     11  C   UNL     1       3.375   5.463  19.009  0.00  0.00    +0.000 C 
ATOM     12  C   UNL     1       4.841   5.615  18.526  0.00  0.00    +0.000 C 
BRANCH  10  13
ATOM     13  C   UNL     1       1.393   3.799  19.172  0.00  0.00    +0.000 C 
ATOM     14  C   UNL     1       0.856   2.414  18.768  0.00  0.00    +0.000 C 
ATOM     15  C   UNL     1       1.243   3.938  20.700  0.00  0.00    +0.000 C 
ENDBRANCH  10  13
ENDBRANCH   5  11
ENDBRANCH   4   5
ENDBRANCH   1   4
BRANCH   1  16
ATOM     16  C   UNL     1       0.940   9.292  17.973  0.00  0.00    +0.000 C 
BRANCH  16  17
ATOM     17  N   UNL     1       0.770  10.685  18.433  0.00  0.00    +0.000 NA
ATOM     18  C   UNL     1      -0.662  11.068  18.427  0.00  0.00    +0.000 C 
ATOM     19  C   UNL     1      -1.431  10.470  19.629  0.00  0.00    +0.000 C 
ATOM     20  N   UNL     1      -0.799  10.823  20.920  0.00  0.00    +0.000 NA
ATOM     21  C   UNL     1       0.607  10.368  20.917  0.00  0.00    +0.000 C 
ATOM     22  C   UNL     1       1.394  10.989  19.744  0.00  0.00    +0.000 C 
BRANCH  20  23
ATOM     23  C   UNL     1      -0.899  12.266  21.260  0.00  0.00    +0.000 C 
BRANCH  23  24
ATOM     24  C   UNL     1      -2.198  12.601  21.939  0.00  0.00    +0.000 A 
ATOM     25  C   UNL     1      -3.151  13.396  21.292  0.00  0.00    +0.000 A 
ATOM     26  C   UNL     1      -4.363  13.686  21.927  0.00  0.00    +0.000 A 
ATOM     27  C   UNL     1      -4.623  13.188  23.208  0.00  0.00    +0.000 A 
ATOM     28  C   UNL     1      -3.671  12.398  23.858  0.00  0.00    +0.000 A 
ATOM     29  C   UNL     1      -2.462  12.103  23.226  0.00  0.00    +0.000 A 
ENDBRANCH  23  24
ENDBRANCH  20  23
ENDBRANCH  16  17
ENDBRANCH   1  16
TORSDOF 9
ENDMDL
MODEL 9
REMARK VINA RESULT:      -6.7      1.503      3.137
REMARK  Name = 
REMARK  12 active torsions:
REMARK  status: ('A' for Active; 'I' for Inactive)
REMARK    1  A    between atoms: C_1  and  C_2
REMARK    2  A    between atoms: C_5  and  C_6
REMARK    3  A    between atoms: C_6  and  C_7
REMARK    4  A    between atoms: C_6  and  C_8
REMARK    5  A    between atoms: C_9  and  O_10
REMARK    6  A    between atoms: O_10  and  C_11
REMARK    7  A    between atoms: C_11  and  C_12
REMARK    8  A    between atoms: C_12  and  O_13
REMARK    9  A    between atoms: C_12  and  C_14
REMARK   10  A    between atoms: C_14  and  N_15
REMARK   11  A    between atoms: N_18  and  C_19
REMARK   12  A    between atoms: C_19  and  C_20
REMARK                            x       y       z     vdW  Elec       q    Type
REMARK                         _______ _______ _______ _____ _____    ______ ____
ROOT
ATOM      1  C   UNL     1       1.547   8.227  19.661  0.00  0.00    +0.000 C 
ENDROOT
BRANCH   1   2
ATOM      2  O   UNL     1       2.049   8.013  20.956  0.00  0.00    +0.000 OA
ATOM      3  H   UNL     1       1.482   8.528  21.587  0.00  0.00    +0.000 HD
ENDBRANCH   1   2
BRANCH   1   4
ATOM      4  C   UNL     1       2.516   7.728  18.600  0.00  0.00    +0.000 C 
BRANCH   4   5
ATOM      5  O   UNL     1       2.391   6.330  18.514  0.00  0.00    +0.000 OA
BRANCH   5  11
ATOM      6  C   UNL     1       5.654   5.346  15.855  0.00  0.00    +0.000 C 
ATOM      7  C   UNL     1       4.458   5.156  16.793  0.00  0.00    +0.000 C 
ATOM      8  C   UNL     1       4.062   3.678  16.947  0.00  0.00    +0.000 C 
ATOM      9  C   UNL     1       2.843   3.531  17.873  0.00  0.00    +0.000 C 
ATOM     10  C   UNL     1       3.088   4.167  19.277  0.00  0.00    +0.000 C 
ATOM     11  C   UNL     1       3.503   5.655  19.080  0.00  0.00    +0.000 C 
ATOM     12  C   UNL     1       4.769   5.722  18.187  0.00  0.00    +0.000 C 
BRANCH  10  13
ATOM     13  C   UNL     1       1.817   4.030  20.192  0.00  0.00    +0.000 C 
ATOM     14  C   UNL     1       0.774   3.068  19.595  0.00  0.00    +0.000 C 
ATOM     15  C   UNL     1       2.160   3.532  21.611  0.00  0.00    +0.000 C 
ENDBRANCH  10  13
ENDBRANCH   5  11
ENDBRANCH   4   5
ENDBRANCH   1   4
BRANCH   1  16
ATOM     16  C   UNL     1       1.220   9.709  19.414  0.00  0.00    +0.000 C 
BRANCH  16  17
ATOM     17  N   UNL     1      -0.220  10.014  19.529  0.00  0.00    +0.000 NA
ATOM     18  C   UNL     1      -0.621  10.121  20.952  0.00  0.00    +0.000 C 
ATOM     19  C   UNL     1      -0.184  11.465  21.582  0.00  0.00    +0.000 C 
ATOM     20  N   UNL     1      -0.680  12.624  20.807  0.00  0.00    +0.000 NA
ATOM     21  C   UNL     1      -0.207  12.520  19.411  0.00  0.00    +0.000 C 
ATOM     22  C   UNL     1      -0.671  11.199  18.760  0.00  0.00    +0.000 C 
BRANCH  20  23
ATOM     23  C   UNL     1      -2.155  12.796  20.866  0.00  0.00    +0.000 C 
BRANCH  23  24
ATOM     24  C   UNL     1      -2.617  13.278  22.214  0.00  0.00    +0.000 A 
ATOM     25  C   UNL     1      -3.456  12.482  23.001  0.00  0.00    +0.000 A 
ATOM     26  C   UNL     1      -3.865  12.933  24.260  0.00  0.00    +0.000 A 
ATOM     27  C   UNL     1      -3.442  14.180  24.731  0.00  0.00    +0.000 A 
ATOM     28  C   UNL     1      -2.610  14.980  23.944  0.00  0.00    +0.000 A 
ATOM     29  C   UNL     1      -2.196  14.531  22.689  0.00  0.00    +0.000 A 
ENDBRANCH  23  24
ENDBRANCH  20  23
ENDBRANCH  16  17
ENDBRANCH   1  16
TORSDOF 9
ENDMDL
