MODEL 1
REMARK VINA RESULT:      -8.6      0.000      0.000
REMARK  Name = 
REMARK  9 active torsions:
REMARK  status: ('A' for Active; 'I' for Inactive)
REMARK    1  A    between atoms: C_1  and  C_2
REMARK    2  A    between atoms: C_2  and  C_3
REMARK    3  A    between atoms: C_4  and  C_5
REMARK    4  A    between atoms: C_5  and  N_6
REMARK    5  A    between atoms: C_17  and  S_18
REMARK    6  A    between atoms: S_18  and  C_19
REMARK    7  A    between atoms: C_19  and  C_20
REMARK    8  A    between atoms: C_23  and  O_24
REMARK    9  A    between atoms: O_24  and  C_25
REMARK                            x       y       z     vdW  Elec       q    Type
REMARK                         _______ _______ _______ _____ _____    ______ ____
ROOT
ATOM      1  C   UNL     1       2.837   4.061  18.827  0.00  0.00    +0.000 A 
ATOM      2  C   UNL     1       3.140   5.102  19.642  0.00  0.00    +0.000 A 
ATOM      3  N   UNL     1       4.447   5.519  19.887  0.00  0.00    +0.000 NA
ATOM      4  C   UNL     1       5.398   4.882  19.297  0.00  0.00    +0.000 A 
ATOM      5  N   UNL     1       5.214   3.823  18.485  0.00  0.00    +0.000 N 
ATOM      6  C   UNL     1       3.990   3.272  18.305  0.00  0.00    +0.000 A 
ATOM      7  O   UNL     1       3.854   2.186  17.750  0.00  0.00    +0.000 OA
ATOM      8  H   UNL     1       6.011   3.324  18.128  0.00  0.00    +0.000 HD
ENDROOT
BRANCH   1  10
ATOM      9  C   UNL     1       0.811   2.633  19.457  0.00  0.00    +0.000 C 
ATOM     10  C   UNL     1       1.478   3.542  18.424  0.00  0.00    +0.000 C 
ENDBRANCH   1  10
BRANCH   2  11
ATOM     11  C   UNL     1       2.089   5.990  20.326  0.00  0.00    +0.000 C 
BRANCH  11  12
ATOM     12  N   UNL     1       2.010   7.328  19.711  0.00  0.00    +0.000 N 
ATOM     13  C   UNL     1       2.670   7.500  18.411  0.00  0.00    +0.000 C 
ATOM     14  C   UNL     1       1.879   8.416  17.494  0.00  0.00    +0.000 C 
ATOM     15  C   UNL     1       1.693   9.769  18.151  0.00  0.00    +0.000 C 
ATOM     16  C   UNL     1       1.238   9.641  19.582  0.00  0.00    +0.000 A 
ATOM     17  C   UNL     1       0.658  10.777  20.184  0.00  0.00    +0.000 A 
ATOM     18  C   UNL     1       0.236  10.743  21.506  0.00  0.00    +0.000 A 
ATOM     19  C   UNL     1       0.375   9.569  22.227  0.00  0.00    +0.000 A 
ATOM     20  C   UNL     1       0.930   8.436  21.620  0.00  0.00    +0.000 A 
ATOM     21  C   UNL     1       1.411   8.436  20.302  0.00  0.00    +0.000 A 
ENDBRANCH  11  12
ENDBRANCH   2  11
BRANCH   4  22
ATOM     22  S   UNL     1       7.074   5.297  19.425  0.00  0.00    +0.000 S 
BRANCH  22  23
ATOM     23  C   UNL     1       7.275   6.406  18.006  0.00  0.00    +0.000 C 
BRANCH  23  24
ATOM     24  C   UNL     1       6.696   5.783  16.754  0.00  0.00    +0.000 A 
ATOM     25  C   UNL     1       7.318   4.679  16.157  0.00  0.00    +0.000 A 
ATOM     26  C   UNL     1       6.813   4.133  14.974  0.00  0.00    +0.000 A 
ATOM     27  C   UNL     1       5.672   4.665  14.373  0.00  0.00    +0.000 A 
ATOM     28  C   UNL     1       5.050   5.771  14.951  0.00  0.00    +0.000 A 
ATOM     29  C   UNL     1       5.561   6.328  16.133  0.00  0.00    +0.000 A 
BRANCH  27  30
ATOM     30  O   UNL     1       5.296   4.059  13.206  0.00  0.00    +0.000 OA
ATOM     31  C   UNL     1       6.337   3.440  12.459  0.00  0.00    +0.000 C 
ENDBRANCH  27  30
ENDBRANCH  23  24
ENDBRANCH  22  23
ENDBRANCH   4  22
TORSDOF 7
ENDMDL
MODEL 2
REMARK VINA RESULT:      -8.6      2.197      3.230
REMARK  Name = 
REMARK  9 active torsions:
REMARK  status: ('A' for Active; 'I' for Inactive)
REMARK    1  A    between atoms: C_1  and  C_2
REMARK    2  A    between atoms: C_2  and  C_3
REMARK    3  A    between atoms: C_4  and  C_5
REMARK    4  A    between atoms: C_5  and  N_6
REMARK    5  A    between atoms: C_17  and  S_18
REMARK    6  A    between atoms: S_18  and  C_19
REMARK    7  A    between atoms: C_19  and  C_20
REMARK    8  A    between atoms: C_23  and  O_24
REMARK    9  A    between atoms: O_24  and  C_25
REMARK                            x       y       z     vdW  Elec       q    Type
REMARK                         _______ _______ _______ _____ _____    ______ ____
ROOT
ATOM      1  C   UNL     1       1.944   4.129  19.026  0.00  0.00    +0.000 A 
ATOM      2  C   UNL     1       2.813   5.171  19.067  0.00  0.00    +0.000 A 
ATOM      3  N   UNL     1       3.786   5.387  18.092  0.00  0.00    +0.000 NA
ATOM      4  C   UNL     1       3.842   4.556  17.110  0.00  0.00    +0.000 A 
ATOM      5  N   UNL     1       3.045   3.479  16.979  0.00  0.00    +0.000 N 
ATOM      6  C   UNL     1       2.170   3.122  17.949  0.00  0.00    +0.000 A 
ATOM      7  O   UNL     1       1.608   2.031  17.934  0.00  0.00    +0.000 OA
ATOM      8  H   UNL     1       3.205   2.828  16.228  0.00  0.00    +0.000 HD
ENDROOT
BRANCH   1  10
ATOM      9  C   UNL     1       1.231   3.077  21.244  0.00  0.00    +0.000 C 
ATOM     10  C   UNL     1       0.810   3.809  19.969  0.00  0.00    +0.000 C 
ENDBRANCH   1  10
BRANCH   2  11
ATOM     11  C   UNL     1       2.782   6.272  20.137  0.00  0.00    +0.000 C 
BRANCH  11  12
ATOM     12  N   UNL     1       2.230   7.536  19.615  0.00  0.00    +0.000 N 
ATOM     13  C   UNL     1       2.624   7.919  18.254  0.00  0.00    +0.000 C 
ATOM     14  C   UNL     1       1.480   8.572  17.499  0.00  0.00    +0.000 C 
ATOM     15  C   UNL     1       0.998   9.797  18.250  0.00  0.00    +0.000 C 
ATOM     16  C   UNL     1       0.803   9.514  19.718  0.00  0.00    +0.000 A 
ATOM     17  C   UNL     1       0.004  10.416  20.452  0.00  0.00    +0.000 A 
ATOM     18  C   UNL     1      -0.202  10.235  21.813  0.00  0.00    +0.000 A 
ATOM     19  C   UNL     1       0.373   9.144  22.442  0.00  0.00    +0.000 A 
ATOM     20  C   UNL     1       1.147   8.238  21.706  0.00  0.00    +0.000 A 
ATOM     21  C   UNL     1       1.420   8.404  20.340  0.00  0.00    +0.000 A 
ENDBRANCH  11  12
ENDBRANCH   2  11
BRANCH   4  22
ATOM     22  S   UNL     1       4.935   4.700  15.774  0.00  0.00    +0.000 S 
BRANCH  22  23
ATOM     23  C   UNL     1       6.514   4.287  16.561  0.00  0.00    +0.000 C 
BRANCH  23  24
ATOM     24  C   UNL     1       7.092   5.494  17.268  0.00  0.00    +0.000 A 
ATOM     25  C   UNL     1       7.060   6.756  16.660  0.00  0.00    +0.000 A 
ATOM     26  C   UNL     1       7.636   7.862  17.291  0.00  0.00    +0.000 A 
ATOM     27  C   UNL     1       8.239   7.736  18.542  0.00  0.00    +0.000 A 
ATOM     28  C   UNL     1       8.287   6.484  19.153  0.00  0.00    +0.000 A 
ATOM     29  C   UNL     1       7.719   5.369  18.518  0.00  0.00    +0.000 A 
BRANCH  27  30
ATOM     30  O   UNL     1       8.790   8.886  19.038  0.00  0.00    +0.000 OA
ATOM     31  C   UNL     1       8.715  10.030  18.195  0.00  0.00    +0.000 C 
ENDBRANCH  27  30
ENDBRANCH  23  24
ENDBRANCH  22  23
ENDBRANCH   4  22
TORSDOF 7
ENDMDL
MODEL 3
REMARK VINA RESULT:      -8.5      0.738      1.098
REMARK  Name = 
REMARK  9 active torsions:
REMARK  status: ('A' for Active; 'I' for Inactive)
REMARK    1  A    between atoms: C_1  and  C_2
REMARK    2  A    between atoms: C_2  and  C_3
REMARK    3  A    between atoms: C_4  and  C_5
REMARK    4  A    between atoms: C_5  and  N_6
REMARK    5  A    between atoms: C_17  and  S_18
REMARK    6  A    between atoms: S_18  and  C_19
REMARK    7  A    between atoms: C_19  and  C_20
REMARK    8  A    between atoms: C_23  and  O_24
REMARK    9  A    between atoms: O_24  and  C_25
REMARK                            x       y       z     vdW  Elec       q    Type
REMARK                         _______ _______ _______ _____ _____    ______ ____
ROOT
ATOM      1  C   UNL     1       3.018   3.520  19.835  0.00  0.00    +0.000 A 
ATOM      2  C   UNL     1       3.170   4.845  20.083  0.00  0.00    +0.000 A 
ATOM      3  N   UNL     1       4.371   5.523  19.881  0.00  0.00    +0.000 NA
ATOM      4  C   UNL     1       5.369   4.847  19.429  0.00  0.00    +0.000 A 
ATOM      5  N   UNL     1       5.336   3.526  19.168  0.00  0.00    +0.000 N 
ATOM      6  C   UNL     1       4.253   2.771  19.466  0.00  0.00    +0.000 A 
ATOM      7  O   UNL     1       4.300   1.544  19.436  0.00  0.00    +0.000 OA
ATOM      8  H   UNL     1       6.181   3.050  18.897  0.00  0.00    +0.000 HD
ENDROOT
BRANCH   1  10
ATOM      9  C   UNL     1       0.949   2.582  18.661  0.00  0.00    +0.000 C 
ATOM     10  C   UNL     1       1.771   2.676  19.947  0.00  0.00    +0.000 C 
ENDBRANCH   1  10
BRANCH   2  11
ATOM     11  C   UNL     1       2.029   5.769  20.537  0.00  0.00    +0.000 C 
BRANCH  11  12
ATOM     12  N   UNL     1       2.031   7.051  19.807  0.00  0.00    +0.000 N 
ATOM     13  C   UNL     1       2.714   7.072  18.508  0.00  0.00    +0.000 C 
ATOM     14  C   UNL     1       1.985   7.945  17.502  0.00  0.00    +0.000 C 
ATOM     15  C   UNL     1       1.865   9.359  18.036  0.00  0.00    +0.000 C 
ATOM     16  C   UNL     1       1.388   9.381  19.465  0.00  0.00    +0.000 A 
ATOM     17  C   UNL     1       0.864  10.595  19.956  0.00  0.00    +0.000 A 
ATOM     18  C   UNL     1       0.426  10.700  21.269  0.00  0.00    +0.000 A 
ATOM     19  C   UNL     1       0.492   9.588  22.092  0.00  0.00    +0.000 A 
ATOM     20  C   UNL     1       0.991   8.377  21.595  0.00  0.00    +0.000 A 
ATOM     21  C   UNL     1       1.487   8.236  20.290  0.00  0.00    +0.000 A 
ENDBRANCH  11  12
ENDBRANCH   2  11
BRANCH   4  22
ATOM     22  S   UNL     1       6.916   5.528  19.052  0.00  0.00    +0.000 S 
BRANCH  22  23
ATOM     23  C   UNL     1       6.499   6.606  17.657  0.00  0.00    +0.000 C 
BRANCH  23  24
ATOM     24  C   UNL     1       6.323   5.798  16.389  0.00  0.00    +0.000 A 
ATOM     25  C   UNL     1       5.042   5.453  15.939  0.00  0.00    +0.000 A 
ATOM     26  C   UNL     1       4.879   4.667  14.795  0.00  0.00    +0.000 A 
ATOM     27  C   UNL     1       5.987   4.223  14.072  0.00  0.00    +0.000 A 
ATOM     28  C   UNL     1       7.267   4.550  14.515  0.00  0.00    +0.000 A 
ATOM     29  C   UNL     1       7.433   5.331  15.669  0.00  0.00    +0.000 A 
BRANCH  27  30
ATOM     30  O   UNL     1       5.695   3.439  12.990  0.00  0.00    +0.000 OA
ATOM     31  C   UNL     1       6.643   3.457  11.929  0.00  0.00    +0.000 C 
ENDBRANCH  27  30
ENDBRANCH  23  24
ENDBRANCH  22  23
ENDBRANCH   4  22
TORSDOF 7
ENDMDL
MODEL 4
REMARK VINA RESULT:      -8.2      3.606      8.057
REMARK  Name = 
REMARK  9 active torsions:
REMARK  status: ('A' for Active; 'I' for Inactive)
REMARK    1  A    between atoms: C_1  and  C_2
REMARK    2  A    between atoms: C_2  and  C_3
REMARK    3  A    between atoms: C_4  and  C_5
REMARK    4  A    between atoms: C_5  and  N_6
REMARK    5  A    between atoms: C_17  and  S_18
REMARK    6  A    between atoms: S_18  and  C_19
REMARK    7  A    between atoms: C_19  and  C_20
REMARK    8  A    between atoms: C_23  and  O_24
REMARK    9  A    between atoms: O_24  and  C_25
REMARK                            x       y       z     vdW  Elec       q    Type
REMARK                         _______ _______ _______ _____ _____    ______ ____
ROOT
ATOM      1  C   UNL     1       2.100   6.057  20.078  0.00  0.00    +0.000 A 
ATOM      2  C   UNL     1       2.546   6.141  18.800  0.00  0.00    +0.000 A 
ATOM      3  N   UNL     1       2.489   7.317  18.052  0.00  0.00    +0.000 NA
ATOM      4  C   UNL     1       1.997   8.362  18.619  0.00  0.00    +0.000 A 
ATOM      5  N   UNL     1       1.507   8.387  19.874  0.00  0.00    +0.000 N 
ATOM      6  C   UNL     1       1.400   7.259  20.615  0.00  0.00    +0.000 A 
ATOM      7  O   UNL     1       0.757   7.240  21.661  0.00  0.00    +0.000 OA
ATOM      8  H   UNL     1       1.061   9.221  20.219  0.00  0.00    +0.000 HD
ENDROOT
BRANCH   1  10
ATOM      9  C   UNL     1       1.146   3.772  20.715  0.00  0.00    +0.000 C 
ATOM     10  C   UNL     1       2.155   4.879  21.021  0.00  0.00    +0.000 C 
ENDBRANCH   1  10
BRANCH   2  11
ATOM     11  C   UNL     1       3.233   4.988  18.053  0.00  0.00    +0.000 C 
BRANCH  11  12
ATOM     12  N   UNL     1       4.682   5.216  17.895  0.00  0.00    +0.000 N 
ATOM     13  C   UNL     1       5.386   5.814  19.036  0.00  0.00    +0.000 C 
ATOM     14  C   UNL     1       6.775   5.227  19.211  0.00  0.00    +0.000 C 
ATOM     15  C   UNL     1       7.587   5.435  17.948  0.00  0.00    +0.000 C 
ATOM     16  C   UNL     1       6.812   5.053  16.713  0.00  0.00    +0.000 A 
ATOM     17  C   UNL     1       7.545   4.822  15.531  0.00  0.00    +0.000 A 
ATOM     18  C   UNL     1       6.899   4.490  14.348  0.00  0.00    +0.000 A 
ATOM     19  C   UNL     1       5.521   4.369  14.345  0.00  0.00    +0.000 A 
ATOM     20  C   UNL     1       4.796   4.577  15.525  0.00  0.00    +0.000 A 
ATOM     21  C   UNL     1       5.401   4.958  16.733  0.00  0.00    +0.000 A 
ENDBRANCH  11  12
ENDBRANCH   2  11
BRANCH   4  22
ATOM     22  S   UNL     1       1.907   9.923  17.874  0.00  0.00    +0.000 S 
BRANCH  22  23
ATOM     23  C   UNL     1       0.892  10.829  19.072  0.00  0.00    +0.000 C 
BRANCH  23  24
ATOM     24  C   UNL     1      -0.564  10.812  18.662  0.00  0.00    +0.000 A 
ATOM     25  C   UNL     1      -1.015   9.921  17.678  0.00  0.00    +0.000 A 
ATOM     26  C   UNL     1      -2.350   9.936  17.264  0.00  0.00    +0.000 A 
ATOM     27  C   UNL     1      -3.262  10.826  17.832  0.00  0.00    +0.000 A 
ATOM     28  C   UNL     1      -2.825  11.724  18.804  0.00  0.00    +0.000 A 
ATOM     29  C   UNL     1      -1.483  11.718  19.213  0.00  0.00    +0.000 A 
BRANCH  27  30
ATOM     30  O   UNL     1      -4.529  10.760  17.320  0.00  0.00    +0.000 OA
ATOM     31  C   UNL     1      -5.164  12.007  17.058  0.00  0.00    +0.000 C 
ENDBRANCH  27  30
ENDBRANCH  23  24
ENDBRANCH  22  23
ENDBRANCH   4  22
TORSDOF 7
ENDMDL
MODEL 5
REMARK VINA RESULT:      -8.2      4.012      6.165
REMARK  Name = 
REMARK  9 active torsions:
REMARK  status: ('A' for Active; 'I' for Inactive)
REMARK    1  A    between atoms: C_1  and  C_2
REMARK    2  A    between atoms: C_2  and  C_3
REMARK    3  A    between atoms: C_4  and  C_5
REMARK    4  A    between atoms: C_5  and  N_6
REMARK    5  A    between atoms: C_17  and  S_18
REMARK    6  A    between atoms: S_18  and  C_19
REMARK    7  A    between atoms: C_19  and  C_20
REMARK    8  A    between atoms: C_23  and  O_24
REMARK    9  A    between atoms: O_24  and  C_25
REMARK                            x       y       z     vdW  Elec       q    Type
REMARK                         _______ _______ _______ _____ _____    ______ ____
ROOT
ATOM      1  C   UNL     1      -0.298  10.611  20.917  0.00  0.00    +0.000 A 
ATOM      2  C   UNL     1      -0.201  11.137  19.670  0.00  0.00    +0.000 A 
ATOM      3  N   UNL     1       0.592  10.577  18.669  0.00  0.00    +0.000 NA
ATOM      4  C   UNL     1       1.248   9.507  18.955  0.00  0.00    +0.000 A 
ATOM      5  N   UNL     1       1.242   8.912  20.164  0.00  0.00    +0.000 N 
ATOM      6  C   UNL     1       0.609   9.468  21.224  0.00  0.00    +0.000 A 
ATOM      7  O   UNL     1       0.785   9.050  22.365  0.00  0.00    +0.000 OA
ATOM      8  H   UNL     1       1.847   8.127  20.336  0.00  0.00    +0.000 HD
ENDROOT
BRANCH   1  10
ATOM      9  C   UNL     1      -0.757  12.421  22.664  0.00  0.00    +0.000 C 
ATOM     10  C   UNL     1      -1.157  11.070  22.070  0.00  0.00    +0.000 C 
ENDBRANCH   1  10
BRANCH   2  11
ATOM     11  C   UNL     1      -1.004  12.354  19.188  0.00  0.00    +0.000 C 
BRANCH  11  12
ATOM     12  N   UNL     1      -2.300  11.965  18.600  0.00  0.00    +0.000 N 
ATOM     13  C   UNL     1      -2.273  11.420  17.237  0.00  0.00    +0.000 C 
ATOM     14  C   UNL     1      -3.284  10.302  17.057  0.00  0.00    +0.000 C 
ATOM     15  C   UNL     1      -4.677  10.810  17.373  0.00  0.00    +0.000 C 
ATOM     16  C   UNL     1      -4.712  11.590  18.661  0.00  0.00    +0.000 A 
ATOM     17  C   UNL     1      -5.969  11.781  19.271  0.00  0.00    +0.000 A 
ATOM     18  C   UNL     1      -6.084  12.509  20.448  0.00  0.00    +0.000 A 
ATOM     19  C   UNL     1      -4.943  13.034  21.029  0.00  0.00    +0.000 A 
ATOM     20  C   UNL     1      -3.693  12.823  20.434  0.00  0.00    +0.000 A 
ATOM     21  C   UNL     1      -3.533  12.133  19.222  0.00  0.00    +0.000 A 
ENDBRANCH  11  12
ENDBRANCH   2  11
BRANCH   4  22
ATOM     22  S   UNL     1       2.229   8.634  17.826  0.00  0.00    +0.000 S 
BRANCH  22  23
ATOM     23  C   UNL     1       2.510   7.085  18.723  0.00  0.00    +0.000 C 
BRANCH  23  24
ATOM     24  C   UNL     1       3.398   6.156  17.923  0.00  0.00    +0.000 A 
ATOM     25  C   UNL     1       4.416   6.672  17.110  0.00  0.00    +0.000 A 
ATOM     26  C   UNL     1       5.205   5.819  16.334  0.00  0.00    +0.000 A 
ATOM     27  C   UNL     1       5.006   4.438  16.365  0.00  0.00    +0.000 A 
ATOM     28  C   UNL     1       3.989   3.914  17.161  0.00  0.00    +0.000 A 
ATOM     29  C   UNL     1       3.188   4.769  17.933  0.00  0.00    +0.000 A 
BRANCH  27  30
ATOM     30  O   UNL     1       5.824   3.717  15.539  0.00  0.00    +0.000 OA
ATOM     31  C   UNL     1       6.154   4.327  14.296  0.00  0.00    +0.000 C 
ENDBRANCH  27  30
ENDBRANCH  23  24
ENDBRANCH  22  23
ENDBRANCH   4  22
TORSDOF 7
ENDMDL
MODEL 6
REMARK VINA RESULT:      -8.1      0.914      1.133
REMARK  Name = 
REMARK  9 active torsions:
REMARK  status: ('A' for Active; 'I' for Inactive)
REMARK    1  A    between atoms: C_1  and  C_2
REMARK    2  A    between atoms: C_2  and  C_3
REMARK    3  A    between atoms: C_4  and  C_5
REMARK    4  A    between atoms: C_5  and  N_6
REMARK    5  A    between atoms: C_17  and  S_18
REMARK    6  A    between atoms: S_18  and  C_19
REMARK    7  A    between atoms: C_19  and  C_20
REMARK    8  A    between atoms: C_23  and  O_24
REMARK    9  A    between atoms: O_24  and  C_25
REMARK                            x       y       z     vdW  Elec       q    Type
REMARK                         _______ _______ _______ _____ _____    ______ ____
ROOT
ATOM      1  C   UNL     1       2.789   3.514  19.644  0.00  0.00    +0.000 A 
ATOM      2  C   UNL     1       3.194   4.773  19.943  0.00  0.00    +0.000 A 
ATOM      3  N   UNL     1       4.434   5.283  19.561  0.00  0.00    +0.000 NA
ATOM      4  C   UNL     1       5.214   4.513  18.886  0.00  0.00    +0.000 A 
ATOM      5  N   UNL     1       4.923   3.241  18.552  0.00  0.00    +0.000 N 
ATOM      6  C   UNL     1       3.802   2.629  19.001  0.00  0.00    +0.000 A 
ATOM      7  O   UNL     1       3.645   1.417  18.884  0.00  0.00    +0.000 OA
ATOM      8  H   UNL     1       5.619   2.673  18.097  0.00  0.00    +0.000 HD
ENDROOT
BRANCH   1  10
ATOM      9  C   UNL     1       0.580   2.631  18.706  0.00  0.00    +0.000 C 
ATOM     10  C   UNL     1       1.462   2.855  19.934  0.00  0.00    +0.000 C 
ENDBRANCH   1  10
BRANCH   2  11
ATOM     11  C   UNL     1       2.316   5.809  20.662  0.00  0.00    +0.000 C 
BRANCH  11  12
ATOM     12  N   UNL     1       2.158   7.045  19.873  0.00  0.00    +0.000 N 
ATOM     13  C   UNL     1       2.746   7.051  18.527  0.00  0.00    +0.000 C 
ATOM     14  C   UNL     1       1.877   7.806  17.538  0.00  0.00    +0.000 C 
ATOM     15  C   UNL     1       1.675   9.233  18.010  0.00  0.00    +0.000 C 
ATOM     16  C   UNL     1       1.298   9.294  19.467  0.00  0.00    +0.000 A 
ATOM     17  C   UNL     1       0.709  10.486  19.937  0.00  0.00    +0.000 A 
ATOM     18  C   UNL     1       0.356  10.626  21.272  0.00  0.00    +0.000 A 
ATOM     19  C   UNL     1       0.573   9.570  22.140  0.00  0.00    +0.000 A 
ATOM     20  C   UNL     1       1.137   8.378  21.667  0.00  0.00    +0.000 A 
ATOM     21  C   UNL     1       1.551   8.207  20.337  0.00  0.00    +0.000 A 
ENDBRANCH  11  12
ENDBRANCH   2  11
BRANCH   4  22
ATOM     22  S   UNL     1       6.760   4.991  18.269  0.00  0.00    +0.000 S 
BRANCH  22  23
ATOM     23  C   UNL     1       6.275   6.064  16.891  0.00  0.00    +0.000 C 
BRANCH  23  24
ATOM     24  C   UNL     1       6.307   5.303  15.583  0.00  0.00    +0.000 A 
ATOM     25  C   UNL     1       7.441   5.352  14.761  0.00  0.00    +0.000 A 
ATOM     26  C   UNL     1       7.454   4.689  13.530  0.00  0.00    +0.000 A 
ATOM     27  C   UNL     1       6.347   3.955  13.104  0.00  0.00    +0.000 A 
ATOM     28  C   UNL     1       5.209   3.907  13.908  0.00  0.00    +0.000 A 
ATOM     29  C   UNL     1       5.189   4.580  15.139  0.00  0.00    +0.000 A 
BRANCH  27  30
ATOM     30  O   UNL     1       6.476   3.378  11.870  0.00  0.00    +0.000 OA
ATOM     31  C   UNL     1       5.830   2.121  11.697  0.00  0.00    +0.000 C 
ENDBRANCH  27  30
ENDBRANCH  23  24
ENDBRANCH  22  23
ENDBRANCH   4  22
TORSDOF 7
ENDMDL
MODEL 7
REMARK VINA RESULT:      -8.1      4.229      7.385
REMARK  Name = 
REMARK  9 active torsions:
REMARK  status: ('A' for Active; 'I' for Inactive)
REMARK    1  A    between atoms: C_1  and  C_2
REMARK    2  A    between atoms: C_2  and  C_3
REMARK    3  A    between atoms: C_4  and  C_5
REMARK    4  A    between atoms: C_5  and  N_6
REMARK    5  A    between atoms: C_17  and  S_18
REMARK    6  A    between atoms: S_18  and  C_19
REMARK    7  A    between atoms: C_19  and  C_20
REMARK    8  A    between atoms: C_23  and  O_24
REMARK    9  A    between atoms: O_24  and  C_25
REMARK                            x       y       z     vdW  Elec       q    Type
REMARK                         _______ _______ _______ _____ _____    ______ ____
ROOT
ATOM      1  C   UNL     1      -0.766  11.248  22.020  0.00  0.00    +0.000 A 
ATOM      2  C   UNL     1      -0.661  11.572  20.707  0.00  0.00    +0.000 A 
ATOM      3  N   UNL     1       0.061  10.809  19.791  0.00  0.00    +0.000 NA
ATOM      4  C   UNL     1       0.641   9.745  20.226  0.00  0.00    +0.000 A 
ATOM      5  N   UNL     1       0.621   9.340  21.511  0.00  0.00    +0.000 N 
ATOM      6  C   UNL     1       0.059  10.096  22.484  0.00  0.00    +0.000 A 
ATOM      7  O   UNL     1       0.233   9.841  23.672  0.00  0.00    +0.000 OA
ATOM      8  H   UNL     1       1.169   8.544  21.792  0.00  0.00    +0.000 HD
ENDROOT
BRANCH   1  10
ATOM      9  C   UNL     1      -1.152  13.393  23.358  0.00  0.00    +0.000 C 
ATOM     10  C   UNL     1      -1.558  11.940  23.103  0.00  0.00    +0.000 C 
ENDBRANCH   1  10
BRANCH   2  11
ATOM     11  C   UNL     1      -1.382  12.763  20.057  0.00  0.00    +0.000 C 
BRANCH  11  12
ATOM     12  N   UNL     1      -2.756  12.420  19.643  0.00  0.00    +0.000 N 
ATOM     13  C   UNL     1      -3.813  12.592  20.647  0.00  0.00    +0.000 C 
ATOM     14  C   UNL     1      -5.101  13.103  20.027  0.00  0.00    +0.000 C 
ATOM     15  C   UNL     1      -5.574  12.142  18.953  0.00  0.00    +0.000 C 
ATOM     16  C   UNL     1      -4.455  11.743  18.026  0.00  0.00    +0.000 A 
ATOM     17  C   UNL     1      -4.811  11.186  16.780  0.00  0.00    +0.000 A 
ATOM     18  C   UNL     1      -3.836  10.772  15.882  0.00  0.00    +0.000 A 
ATOM     19  C   UNL     1      -2.502  10.930  16.217  0.00  0.00    +0.000 A 
ATOM     20  C   UNL     1      -2.151  11.505  17.445  0.00  0.00    +0.000 A 
ATOM     21  C   UNL     1      -3.100  11.897  18.402  0.00  0.00    +0.000 A 
ENDBRANCH  11  12
ENDBRANCH   2  11
BRANCH   4  22
ATOM     22  S   UNL     1       1.524   8.639  19.228  0.00  0.00    +0.000 S 
BRANCH  22  23
ATOM     23  C   UNL     1       2.042   7.400  20.444  0.00  0.00    +0.000 C 
BRANCH  23  24
ATOM     24  C   UNL     1       2.055   6.017  19.828  0.00  0.00    +0.000 A 
ATOM     25  C   UNL     1       1.540   4.920  20.533  0.00  0.00    +0.000 A 
ATOM     26  C   UNL     1       1.595   3.636  19.985  0.00  0.00    +0.000 A 
ATOM     27  C   UNL     1       2.148   3.422  18.722  0.00  0.00    +0.000 A 
ATOM     28  C   UNL     1       2.673   4.503  18.016  0.00  0.00    +0.000 A 
ATOM     29  C   UNL     1       2.629   5.792  18.567  0.00  0.00    +0.000 A 
BRANCH  27  30
ATOM     30  O   UNL     1       2.168   2.117  18.312  0.00  0.00    +0.000 OA
ATOM     31  C   UNL     1       3.444   1.487  18.290  0.00  0.00    +0.000 C 
ENDBRANCH  27  30
ENDBRANCH  23  24
ENDBRANCH  22  23
ENDBRANCH   4  22
TORSDOF 7
ENDMDL
MODEL 8
REMARK VINA RESULT:      -8.0      3.994      6.331
REMARK  Name = 
REMARK  9 active torsions:
REMARK  status: ('A' for Active; 'I' for Inactive)
REMARK    1  A    between atoms: C_1  and  C_2
REMARK    2  A    between atoms: C_2  and  C_3
REMARK    3  A    between atoms: C_4  and  C_5
REMARK    4  A    between atoms: C_5  and  N_6
REMARK    5  A    between atoms: C_17  and  S_18
REMARK    6  A    between atoms: S_18  and  C_19
REMARK    7  A    between atoms: C_19  and  C_20
REMARK    8  A    between atoms: C_23  and  O_24
REMARK    9  A    between atoms: O_24  and  C_25
REMARK                            x       y       z     vdW  Elec       q    Type
REMARK                         _______ _______ _______ _____ _____    ______ ____
ROOT
ATOM      1  C   UNL     1      -0.493  10.929  21.795  0.00  0.00    +0.000 A 
ATOM      2  C   UNL     1      -0.138  10.889  20.487  0.00  0.00    +0.000 A 
ATOM      3  N   UNL     1       0.599   9.843  19.932  0.00  0.00    +0.000 NA
ATOM      4  C   UNL     1       0.941   8.875  20.709  0.00  0.00    +0.000 A 
ATOM      5  N   UNL     1       0.660   8.822  22.025  0.00  0.00    +0.000 N 
ATOM      6  C   UNL     1       0.070   9.858  22.667  0.00  0.00    +0.000 A 
ATOM      7  O   UNL     1       0.015   9.903  23.892  0.00  0.00    +0.000 OA
ATOM      8  H   UNL     1       1.034   8.073  22.585  0.00  0.00    +0.000 HD
ENDROOT
BRANCH   1  10
ATOM      9  C   UNL     1      -0.623  13.281  22.790  0.00  0.00    +0.000 C 
ATOM     10  C   UNL     1      -1.335  11.956  22.514  0.00  0.00    +0.000 C 
ENDBRANCH   1  10
BRANCH   2  11
ATOM     11  C   UNL     1      -0.565  11.939  19.450  0.00  0.00    +0.000 C 
BRANCH  11  12
ATOM     12  N   UNL     1      -1.846  11.592  18.806  0.00  0.00    +0.000 N 
ATOM     13  C   UNL     1      -1.778  10.751  17.605  0.00  0.00    +0.000 C 
ATOM     14  C   UNL     1      -2.926   9.758  17.547  0.00  0.00    +0.000 C 
ATOM     15  C   UNL     1      -4.250  10.496  17.576  0.00  0.00    +0.000 C 
ATOM     16  C   UNL     1      -4.282  11.548  18.654  0.00  0.00    +0.000 A 
ATOM     17  C   UNL     1      -5.547  12.031  19.051  0.00  0.00    +0.000 A 
ATOM     18  C   UNL     1      -5.656  13.018  20.022  0.00  0.00    +0.000 A 
ATOM     19  C   UNL     1      -4.506  13.513  20.612  0.00  0.00    +0.000 A 
ATOM     20  C   UNL     1      -3.253  13.016  20.231  0.00  0.00    +0.000 A 
ATOM     21  C   UNL     1      -3.090  12.052  19.224  0.00  0.00    +0.000 A 
ENDBRANCH  11  12
ENDBRANCH   2  11
BRANCH   4  22
ATOM     22  S   UNL     1       1.796   7.463  20.186  0.00  0.00    +0.000 S 
BRANCH  22  23
ATOM     23  C   UNL     1       2.437   8.009  18.582  0.00  0.00    +0.000 C 
BRANCH  23  24
ATOM     24  C   UNL     1       3.193   6.891  17.898  0.00  0.00    +0.000 A 
ATOM     25  C   UNL     1       2.822   5.554  18.101  0.00  0.00    +0.000 A 
ATOM     26  C   UNL     1       3.549   4.518  17.509  0.00  0.00    +0.000 A 
ATOM     27  C   UNL     1       4.647   4.793  16.693  0.00  0.00    +0.000 A 
ATOM     28  C   UNL     1       5.032   6.117  16.491  0.00  0.00    +0.000 A 
ATOM     29  C   UNL     1       4.311   7.159  17.093  0.00  0.00    +0.000 A 
BRANCH  27  30
ATOM     30  O   UNL     1       5.289   3.692  16.197  0.00  0.00    +0.000 OA
ATOM     31  C   UNL     1       6.182   3.923  15.113  0.00  0.00    +0.000 C 
ENDBRANCH  27  30
ENDBRANCH  23  24
ENDBRANCH  22  23
ENDBRANCH   4  22
TORSDOF 7
ENDMDL
MODEL 9
REMARK VINA RESULT:      -8.0      4.352      6.728
REMARK  Name = 
REMARK  9 active torsions:
REMARK  status: ('A' for Active; 'I' for Inactive)
REMARK    1  A    between atoms: C_1  and  C_2
REMARK    2  A    between atoms: C_2  and  C_3
REMARK    3  A    between atoms: C_4  and  C_5
REMARK    4  A    between atoms: C_5  and  N_6
REMARK    5  A    between atoms: C_17  and  S_18
REMARK    6  A    between atoms: S_18  and  C_19
REMARK    7  A    between atoms: C_19  and  C_20
REMARK    8  A    between atoms: C_23  and  O_24
REMARK    9  A    between atoms: O_24  and  C_25
REMARK                            x       y       z     vdW  Elec       q    Type
REMARK                         _______ _______ _______ _____ _____    ______ ____
ROOT
ATOM      1  C   UNL     1       5.792   5.150  16.415  0.00  0.00    +0.000 A 
ATOM      2  C   UNL     1       5.226   6.161  17.121  0.00  0.00    +0.000 A 
ATOM      3  N   UNL     1       5.968   7.072  17.871  0.00  0.00    +0.000 NA
ATOM      4  C   UNL     1       7.248   6.940  17.875  0.00  0.00    +0.000 A 
ATOM      5  N   UNL     1       7.913   5.963  17.229  0.00  0.00    +0.000 N 
ATOM      6  C   UNL     1       7.260   4.962  16.592  0.00  0.00    +0.000 A 
ATOM      7  O   UNL     1       7.853   3.962  16.197  0.00  0.00    +0.000 OA
ATOM      8  H   UNL     1       8.909   5.874  17.348  0.00  0.00    +0.000 HD
ENDROOT
BRANCH   1  10
ATOM      9  C   UNL     1       5.479   4.270  14.035  0.00  0.00    +0.000 C 
ATOM     10  C   UNL     1       5.125   4.137  15.516  0.00  0.00    +0.000 C 
ENDBRANCH   1  10
BRANCH   2  11
ATOM     11  C   UNL     1       3.721   6.471  17.118  0.00  0.00    +0.000 C 
BRANCH  11  12
ATOM     12  N   UNL     1       3.060   6.018  18.356  0.00  0.00    +0.000 N 
ATOM     13  C   UNL     1       3.058   6.956  19.486  0.00  0.00    +0.000 C 
ATOM     14  C   UNL     1       1.755   6.896  20.264  0.00  0.00    +0.000 C 
ATOM     15  C   UNL     1       1.521   5.487  20.773  0.00  0.00    +0.000 C 
ATOM     16  C   UNL     1       1.746   4.457  19.697  0.00  0.00    +0.000 A 
ATOM     17  C   UNL     1       1.200   3.173  19.902  0.00  0.00    +0.000 A 
ATOM     18  C   UNL     1       1.386   2.164  18.966  0.00  0.00    +0.000 A 
ATOM     19  C   UNL     1       2.102   2.439  17.814  0.00  0.00    +0.000 A 
ATOM     20  C   UNL     1       2.624   3.721  17.601  0.00  0.00    +0.000 A 
ATOM     21  C   UNL     1       2.500   4.759  18.538  0.00  0.00    +0.000 A 
ENDBRANCH  11  12
ENDBRANCH   2  11
BRANCH   4  22
ATOM     22  S   UNL     1       8.336   8.013  18.691  0.00  0.00    +0.000 S 
BRANCH  22  23
ATOM     23  C   UNL     1       8.091   9.545  17.755  0.00  0.00    +0.000 C 
BRANCH  23  24
ATOM     24  C   UNL     1       8.866  10.684  18.381  0.00  0.00    +0.000 A 
ATOM     25  C   UNL     1       8.894  11.945  17.769  0.00  0.00    +0.000 A 
ATOM     26  C   UNL     1       9.648  12.985  18.321  0.00  0.00    +0.000 A 
ATOM     27  C   UNL     1      10.374  12.794  19.496  0.00  0.00    +0.000 A 
ATOM     28  C   UNL     1      10.363  11.541  20.109  0.00  0.00    +0.000 A 
ATOM     29  C   UNL     1       9.616  10.493  19.552  0.00  0.00    +0.000 A 
BRANCH  27  30
ATOM     30  O   UNL     1      11.092  13.880  19.916  0.00  0.00    +0.000 OA
ATOM     31  C   UNL     1      10.982  15.051  19.115  0.00  0.00    +0.000 C 
ENDBRANCH  27  30
ENDBRANCH  23  24
ENDBRANCH  22  23
ENDBRANCH   4  22
TORSDOF 7
ENDMDL
