MODEL 1
REMARK VINA RESULT:      -8.4      0.000      0.000
REMARK  Name = 
REMARK  10 active torsions:
REMARK  status: ('A' for Active; 'I' for Inactive)
REMARK    1  A    between atoms: C_1  and  N_2
REMARK    2  A    between atoms: N_2  and  C_3
REMARK    3  A    between atoms: N_2  and  C_24
REMARK    4  A    between atoms: C_3  and  C_4
REMARK    5  A    between atoms: C_4  and  O_5
REMARK    6  A    between atoms: O_5  and  C_6
REMARK    7  A    between atoms: C_9  and  C_10
REMARK    8  A    between atoms: C_17  and  C_18
REMARK    9  A    between atoms: C_24  and  C_25
REMARK   10  A    between atoms: C_25  and  O_27
REMARK                            x       y       z     vdW  Elec       q    Type
REMARK                         _______ _______ _______ _____ _____    ______ ____
ROOT
ATOM      1  C   UNL     1       2.549   6.937  18.544  0.00  0.00    +0.000 A 
ATOM      2  C   UNL     1       2.435   8.301  18.218  0.00  0.00    +0.000 A 
ATOM      3  C   UNL     1       1.748   9.195  19.035  0.00  0.00    +0.000 A 
ATOM      4  C   UNL     1       1.155   8.765  20.218  0.00  0.00    +0.000 A 
ATOM      5  C   UNL     1       1.264   7.394  20.528  0.00  0.00    +0.000 A 
ATOM      6  C   UNL     1       1.913   6.437  19.702  0.00  0.00    +0.000 A 
ENDROOT
BRANCH   4   7
ATOM      7  C   UNL     1       0.432   9.704  21.098  0.00  0.00    +0.000 A 
ATOM      8  C   UNL     1       0.264  11.054  20.745  0.00  0.00    +0.000 A 
ATOM      9  C   UNL     1      -0.437  11.939  21.567  0.00  0.00    +0.000 A 
ATOM     10  C   UNL     1      -0.969  11.496  22.773  0.00  0.00    +0.000 A 
ATOM     11  C   UNL     1      -0.801  10.171  23.158  0.00  0.00    +0.000 A 
ATOM     12  C   UNL     1      -0.111   9.284  22.326  0.00  0.00    +0.000 A 
ENDBRANCH   4   7
BRANCH   6  13
ATOM     13  C   UNL     1       1.872   4.999  20.118  0.00  0.00    +0.000 A 
ATOM     14  C   UNL     1       1.312   4.016  19.269  0.00  0.00    +0.000 A 
ATOM     15  C   UNL     1       1.210   2.671  19.645  0.00  0.00    +0.000 A 
ATOM     16  C   UNL     1       1.699   2.258  20.876  0.00  0.00    +0.000 A 
ATOM     17  C   UNL     1       2.275   3.194  21.730  0.00  0.00    +0.000 A 
ATOM     18  C   UNL     1       2.345   4.546  21.360  0.00  0.00    +0.000 A 
ENDBRANCH   6  13
BRANCH   1  19
ATOM     19  O   UNL     1       3.227   6.070  17.710  0.00  0.00    +0.000 OA
BRANCH  19  20
ATOM     20  C   UNL     1       4.322   6.673  17.003  0.00  0.00    +0.000 C 
BRANCH  20  21
ATOM     21  C   UNL     1       5.017   5.641  16.105  0.00  0.00    +0.000 C 
BRANCH  21  23
ATOM     22  C   UNL     1       7.082   4.971  14.951  0.00  0.00    +0.000 C 
ATOM     23  N   UNL     1       6.445   5.926  15.867  0.00  0.00    +0.000 NA
BRANCH  23  24
ATOM     24  C   UNL     1       7.223   6.039  17.120  0.00  0.00    +0.000 C 
BRANCH  24  25
ATOM     25  C   UNL     1       7.279   4.746  17.934  0.00  0.00    +0.000 C 
ATOM     26  O   UNL     1       6.421   4.398  18.733  0.00  0.00    +0.000 OA
BRANCH  25  27
ATOM     27  O   UNL     1       8.406   4.023  17.725  0.00  0.00    +0.000 OA
ATOM     28  H   UNL     1       9.091   4.505  17.225  0.00  0.00    +0.000 HD
ENDBRANCH  25  27
ENDBRANCH  24  25
ENDBRANCH  23  24
ENDBRANCH  21  23
ENDBRANCH  20  21
ENDBRANCH  19  20
ENDBRANCH   1  19
TORSDOF 9
ENDMDL
MODEL 2
REMARK VINA RESULT:      -8.3      0.970      1.416
REMARK  Name = 
REMARK  10 active torsions:
REMARK  status: ('A' for Active; 'I' for Inactive)
REMARK    1  A    between atoms: C_1  and  N_2
REMARK    2  A    between atoms: N_2  and  C_3
REMARK    3  A    between atoms: N_2  and  C_24
REMARK    4  A    between atoms: C_3  and  C_4
REMARK    5  A    between atoms: C_4  and  O_5
REMARK    6  A    between atoms: O_5  and  C_6
REMARK    7  A    between atoms: C_9  and  C_10
REMARK    8  A    between atoms: C_17  and  C_18
REMARK    9  A    between atoms: C_24  and  C_25
REMARK   10  A    between atoms: C_25  and  O_27
REMARK                            x       y       z     vdW  Elec       q    Type
REMARK                         _______ _______ _______ _____ _____    ______ ____
ROOT
ATOM      1  C   UNL     1       2.593   6.834  18.478  0.00  0.00    +0.000 A 
ATOM      2  C   UNL     1       2.523   8.205  18.168  0.00  0.00    +0.000 A 
ATOM      3  C   UNL     1       1.852   9.108  18.988  0.00  0.00    +0.000 A 
ATOM      4  C   UNL     1       1.233   8.682  20.159  0.00  0.00    +0.000 A 
ATOM      5  C   UNL     1       1.299   7.305  20.453  0.00  0.00    +0.000 A 
ATOM      6  C   UNL     1       1.929   6.339  19.623  0.00  0.00    +0.000 A 
ENDROOT
BRANCH   4   7
ATOM      7  C   UNL     1       0.528   9.631  21.042  0.00  0.00    +0.000 A 
ATOM      8  C   UNL     1       0.408  10.991  20.707  0.00  0.00    +0.000 A 
ATOM      9  C   UNL     1      -0.276  11.886  21.532  0.00  0.00    +0.000 A 
ATOM     10  C   UNL     1      -0.840  11.442  22.724  0.00  0.00    +0.000 A 
ATOM     11  C   UNL     1      -0.720  10.107  23.091  0.00  0.00    +0.000 A 
ATOM     12  C   UNL     1      -0.047   9.211  22.256  0.00  0.00    +0.000 A 
ENDBRANCH   4   7
BRANCH   6  13
ATOM     13  C   UNL     1       1.841   4.898  20.020  0.00  0.00    +0.000 A 
ATOM     14  C   UNL     1       2.324   4.463  21.277  0.00  0.00    +0.000 A 
ATOM     15  C   UNL     1       2.306   3.117  21.662  0.00  0.00    +0.000 A 
ATOM     16  C   UNL     1       1.768   2.162  20.811  0.00  0.00    +0.000 A 
ATOM     17  C   UNL     1       1.265   2.555  19.574  0.00  0.00    +0.000 A 
ATOM     18  C   UNL     1       1.316   3.902  19.182  0.00  0.00    +0.000 A 
ENDBRANCH   6  13
BRANCH   1  19
ATOM     19  O   UNL     1       3.256   5.958  17.641  0.00  0.00    +0.000 OA
BRANCH  19  20
ATOM     20  C   UNL     1       4.618   5.706  18.017  0.00  0.00    +0.000 C 
BRANCH  20  21
ATOM     21  C   UNL     1       5.582   6.405  17.049  0.00  0.00    +0.000 C 
BRANCH  21  23
ATOM     22  C   UNL     1       6.689   4.671  15.703  0.00  0.00    +0.000 C 
ATOM     23  N   UNL     1       6.821   5.647  16.793  0.00  0.00    +0.000 NA
BRANCH  23  24
ATOM     24  C   UNL     1       7.355   4.995  18.008  0.00  0.00    +0.000 C 
BRANCH  24  25
ATOM     25  C   UNL     1       7.896   5.973  19.051  0.00  0.00    +0.000 C 
ATOM     26  O   UNL     1       8.356   7.075  18.788  0.00  0.00    +0.000 OA
BRANCH  25  27
ATOM     27  O   UNL     1       7.864   5.488  20.316  0.00  0.00    +0.000 OA
ATOM     28  H   UNL     1       8.685   5.653  20.817  0.00  0.00    +0.000 HD
ENDBRANCH  25  27
ENDBRANCH  24  25
ENDBRANCH  23  24
ENDBRANCH  21  23
ENDBRANCH  20  21
ENDBRANCH  19  20
ENDBRANCH   1  19
TORSDOF 9
ENDMDL
MODEL 3
REMARK VINA RESULT:      -8.3      0.996      1.441
REMARK  Name = 
REMARK  10 active torsions:
REMARK  status: ('A' for Active; 'I' for Inactive)
REMARK    1  A    between atoms: C_1  and  N_2
REMARK    2  A    between atoms: N_2  and  C_3
REMARK    3  A    between atoms: N_2  and  C_24
REMARK    4  A    between atoms: C_3  and  C_4
REMARK    5  A    between atoms: C_4  and  O_5
REMARK    6  A    between atoms: O_5  and  C_6
REMARK    7  A    between atoms: C_9  and  C_10
REMARK    8  A    between atoms: C_17  and  C_18
REMARK    9  A    between atoms: C_24  and  C_25
REMARK   10  A    between atoms: C_25  and  O_27
REMARK                            x       y       z     vdW  Elec       q    Type
REMARK                         _______ _______ _______ _____ _____    ______ ____
ROOT
ATOM      1  C   UNL     1       2.620   6.856  18.456  0.00  0.00    +0.000 A 
ATOM      2  C   UNL     1       2.529   8.222  18.135  0.00  0.00    +0.000 A 
ATOM      3  C   UNL     1       1.854   9.124  18.954  0.00  0.00    +0.000 A 
ATOM      4  C   UNL     1       1.252   8.700  20.134  0.00  0.00    +0.000 A 
ATOM      5  C   UNL     1       1.339   7.327  20.440  0.00  0.00    +0.000 A 
ATOM      6  C   UNL     1       1.973   6.362  19.612  0.00  0.00    +0.000 A 
ENDROOT
BRANCH   4   7
ATOM      7  C   UNL     1       0.543   9.648  21.016  0.00  0.00    +0.000 A 
ATOM      8  C   UNL     1      -0.086   9.216  22.197  0.00  0.00    +0.000 A 
ATOM      9  C   UNL     1      -0.741  10.114  23.043  0.00  0.00    +0.000 A 
ATOM     10  C   UNL     1      -0.796  11.465  22.714  0.00  0.00    +0.000 A 
ATOM     11  C   UNL     1      -0.200  11.917  21.543  0.00  0.00    +0.000 A 
ATOM     12  C   UNL     1       0.466  11.018  20.706  0.00  0.00    +0.000 A 
ENDBRANCH   4   7
BRANCH   6  13
ATOM     13  C   UNL     1       1.908   4.924  20.023  0.00  0.00    +0.000 A 
ATOM     14  C   UNL     1       1.352   3.949  19.161  0.00  0.00    +0.000 A 
ATOM     15  C   UNL     1       1.227   2.605  19.532  0.00  0.00    +0.000 A 
ATOM     16  C   UNL     1       1.690   2.183  20.770  0.00  0.00    +0.000 A 
ATOM     17  C   UNL     1       2.261   3.109  21.637  0.00  0.00    +0.000 A 
ATOM     18  C   UNL     1       2.354   4.462  21.271  0.00  0.00    +0.000 A 
ENDBRANCH   6  13
BRANCH   1  19
ATOM     19  O   UNL     1       3.286   5.980  17.621  0.00  0.00    +0.000 OA
BRANCH  19  20
ATOM     20  C   UNL     1       4.621   5.666  18.046  0.00  0.00    +0.000 C 
BRANCH  20  21
ATOM     21  C   UNL     1       5.649   6.411  17.184  0.00  0.00    +0.000 C 
BRANCH  21  23
ATOM     22  C   UNL     1       6.546   4.577  15.812  0.00  0.00    +0.000 C 
ATOM     23  N   UNL     1       6.828   5.597  16.831  0.00  0.00    +0.000 NA
BRANCH  23  24
ATOM     24  C   UNL     1       7.475   4.984  18.011  0.00  0.00    +0.000 C 
BRANCH  24  25
ATOM     25  C   UNL     1       7.950   5.995  19.055  0.00  0.00    +0.000 C 
ATOM     26  O   UNL     1       8.402   7.099  18.788  0.00  0.00    +0.000 OA
BRANCH  25  27
ATOM     27  O   UNL     1       7.868   5.538  20.328  0.00  0.00    +0.000 OA
ATOM     28  H   UNL     1       6.951   5.404  20.635  0.00  0.00    +0.000 HD
ENDBRANCH  25  27
ENDBRANCH  24  25
ENDBRANCH  23  24
ENDBRANCH  21  23
ENDBRANCH  20  21
ENDBRANCH  19  20
ENDBRANCH   1  19
TORSDOF 9
ENDMDL
MODEL 4
REMARK VINA RESULT:      -8.3      0.863      1.640
REMARK  Name = 
REMARK  10 active torsions:
REMARK  status: ('A' for Active; 'I' for Inactive)
REMARK    1  A    between atoms: C_1  and  N_2
REMARK    2  A    between atoms: N_2  and  C_3
REMARK    3  A    between atoms: N_2  and  C_24
REMARK    4  A    between atoms: C_3  and  C_4
REMARK    5  A    between atoms: C_4  and  O_5
REMARK    6  A    between atoms: O_5  and  C_6
REMARK    7  A    between atoms: C_9  and  C_10
REMARK    8  A    between atoms: C_17  and  C_18
REMARK    9  A    between atoms: C_24  and  C_25
REMARK   10  A    between atoms: C_25  and  O_27
REMARK                            x       y       z     vdW  Elec       q    Type
REMARK                         _______ _______ _______ _____ _____    ______ ____
ROOT
ATOM      1  C   UNL     1       2.427   6.872  18.572  0.00  0.00    +0.000 A 
ATOM      2  C   UNL     1       2.326   8.232  18.224  0.00  0.00    +0.000 A 
ATOM      3  C   UNL     1       1.674   9.151  19.042  0.00  0.00    +0.000 A 
ATOM      4  C   UNL     1       1.106   8.753  20.247  0.00  0.00    +0.000 A 
ATOM      5  C   UNL     1       1.201   7.386  20.580  0.00  0.00    +0.000 A 
ATOM      6  C   UNL     1       1.813   6.403  19.755  0.00  0.00    +0.000 A 
ENDROOT
BRANCH   4   7
ATOM      7  C   UNL     1       0.421   9.719  21.128  0.00  0.00    +0.000 A 
ATOM      8  C   UNL     1      -0.222   9.304  22.308  0.00  0.00    +0.000 A 
ATOM      9  C   UNL     1      -0.853  10.220  23.152  0.00  0.00    +0.000 A 
ATOM     10  C   UNL     1      -0.871  11.572  22.824  0.00  0.00    +0.000 A 
ATOM     11  C   UNL     1      -0.261  12.008  21.654  0.00  0.00    +0.000 A 
ATOM     12  C   UNL     1       0.381  11.091  20.818  0.00  0.00    +0.000 A 
ENDBRANCH   4   7
BRANCH   6  13
ATOM     13  C   UNL     1       1.760   4.974  20.199  0.00  0.00    +0.000 A 
ATOM     14  C   UNL     1       2.345   4.574  21.423  0.00  0.00    +0.000 A 
ATOM     15  C   UNL     1       2.360   3.239  21.845  0.00  0.00    +0.000 A 
ATOM     16  C   UNL     1       1.755   2.262  21.069  0.00  0.00    +0.000 A 
ATOM     17  C   UNL     1       1.150   2.620  19.868  0.00  0.00    +0.000 A 
ATOM     18  C   UNL     1       1.168   3.956  19.435  0.00  0.00    +0.000 A 
ENDBRANCH   6  13
BRANCH   1  19
ATOM     19  O   UNL     1       3.069   5.979  17.737  0.00  0.00    +0.000 OA
BRANCH  19  20
ATOM     20  C   UNL     1       4.459   6.272  17.524  0.00  0.00    +0.000 C 
BRANCH  20  21
ATOM     21  C   UNL     1       5.225   4.999  17.140  0.00  0.00    +0.000 C 
BRANCH  21  23
ATOM     22  C   UNL     1       6.976   4.663  15.447  0.00  0.00    +0.000 C 
ATOM     23  N   UNL     1       6.626   5.244  16.750  0.00  0.00    +0.000 NA
BRANCH  23  24
ATOM     24  C   UNL     1       7.592   4.813  17.784  0.00  0.00    +0.000 C 
BRANCH  24  25
ATOM     25  C   UNL     1       7.788   5.826  18.911  0.00  0.00    +0.000 C 
ATOM     26  O   UNL     1       8.236   6.953  18.755  0.00  0.00    +0.000 OA
BRANCH  25  27
ATOM     27  O   UNL     1       7.456   5.346  20.135  0.00  0.00    +0.000 OA
ATOM     28  H   UNL     1       7.894   4.502  20.353  0.00  0.00    +0.000 HD
ENDBRANCH  25  27
ENDBRANCH  24  25
ENDBRANCH  23  24
ENDBRANCH  21  23
ENDBRANCH  20  21
ENDBRANCH  19  20
ENDBRANCH   1  19
TORSDOF 9
ENDMDL
MODEL 5
REMARK VINA RESULT:      -8.2      0.827      1.281
REMARK  Name = 
REMARK  10 active torsions:
REMARK  status: ('A' for Active; 'I' for Inactive)
REMARK    1  A    between atoms: C_1  and  N_2
REMARK    2  A    between atoms: N_2  and  C_3
REMARK    3  A    between atoms: N_2  and  C_24
REMARK    4  A    between atoms: C_3  and  C_4
REMARK    5  A    between atoms: C_4  and  O_5
REMARK    6  A    between atoms: O_5  and  C_6
REMARK    7  A    between atoms: C_9  and  C_10
REMARK    8  A    between atoms: C_17  and  C_18
REMARK    9  A    between atoms: C_24  and  C_25
REMARK   10  A    between atoms: C_25  and  O_27
REMARK                            x       y       z     vdW  Elec       q    Type
REMARK                         _______ _______ _______ _____ _____    ______ ____
ROOT
ATOM      1  C   UNL     1       2.606   7.137  18.412  0.00  0.00    +0.000 A 
ATOM      2  C   UNL     1       2.315   8.478  18.102  0.00  0.00    +0.000 A 
ATOM      3  C   UNL     1       1.598   9.293  18.974  0.00  0.00    +0.000 A 
ATOM      4  C   UNL     1       1.151   8.805  20.198  0.00  0.00    +0.000 A 
ATOM      5  C   UNL     1       1.437   7.457  20.493  0.00  0.00    +0.000 A 
ATOM      6  C   UNL     1       2.122   6.574  19.615  0.00  0.00    +0.000 A 
ENDROOT
BRANCH   4   7
ATOM      7  C   UNL     1       0.400   9.662  21.136  0.00  0.00    +0.000 A 
ATOM      8  C   UNL     1       0.022   9.197  22.409  0.00  0.00    +0.000 A 
ATOM      9  C   UNL     1      -0.672  10.012  23.305  0.00  0.00    +0.000 A 
ATOM     10  C   UNL     1      -1.021  11.308  22.939  0.00  0.00    +0.000 A 
ATOM     11  C   UNL     1      -0.678  11.788  21.681  0.00  0.00    +0.000 A 
ATOM     12  C   UNL     1       0.028  10.974  20.791  0.00  0.00    +0.000 A 
ENDBRANCH   4   7
BRANCH   6  13
ATOM     13  C   UNL     1       2.275   5.143  20.027  0.00  0.00    +0.000 A 
ATOM     14  C   UNL     1       1.176   4.418  20.545  0.00  0.00    +0.000 A 
ATOM     15  C   UNL     1       1.293   3.095  20.989  0.00  0.00    +0.000 A 
ATOM     16  C   UNL     1       2.512   2.439  20.893  0.00  0.00    +0.000 A 
ATOM     17  C   UNL     1       3.611   3.113  20.370  0.00  0.00    +0.000 A 
ATOM     18  C   UNL     1       3.494   4.450  19.957  0.00  0.00    +0.000 A 
ENDBRANCH   6  13
BRANCH   1  19
ATOM     19  O   UNL     1       3.309   6.347  17.524  0.00  0.00    +0.000 OA
BRANCH  19  20
ATOM     20  C   UNL     1       4.669   6.761  17.322  0.00  0.00    +0.000 C 
BRANCH  20  21
ATOM     21  C   UNL     1       5.109   6.478  15.880  0.00  0.00    +0.000 C 
BRANCH  21  23
ATOM     22  C   UNL     1       6.408   4.908  14.503  0.00  0.00    +0.000 C 
ATOM     23  N   UNL     1       6.309   5.624  15.782  0.00  0.00    +0.000 NA
BRANCH  23  24
ATOM     24  C   UNL     1       6.434   4.681  16.914  0.00  0.00    +0.000 C 
BRANCH  24  25
ATOM     25  C   UNL     1       7.637   4.952  17.818  0.00  0.00    +0.000 C 
ATOM     26  O   UNL     1       7.822   5.999  18.422  0.00  0.00    +0.000 OA
BRANCH  25  27
ATOM     27  O   UNL     1       8.524   3.929  17.862  0.00  0.00    +0.000 OA
ATOM     28  H   UNL     1       8.445   3.380  18.665  0.00  0.00    +0.000 HD
ENDBRANCH  25  27
ENDBRANCH  24  25
ENDBRANCH  23  24
ENDBRANCH  21  23
ENDBRANCH  20  21
ENDBRANCH  19  20
ENDBRANCH   1  19
TORSDOF 9
ENDMDL
MODEL 6
REMARK VINA RESULT:      -8.2      1.294      1.910
REMARK  Name = 
REMARK  10 active torsions:
REMARK  status: ('A' for Active; 'I' for Inactive)
REMARK    1  A    between atoms: C_1  and  N_2
REMARK    2  A    between atoms: N_2  and  C_3
REMARK    3  A    between atoms: N_2  and  C_24
REMARK    4  A    between atoms: C_3  and  C_4
REMARK    5  A    between atoms: C_4  and  O_5
REMARK    6  A    between atoms: O_5  and  C_6
REMARK    7  A    between atoms: C_9  and  C_10
REMARK    8  A    between atoms: C_17  and  C_18
REMARK    9  A    between atoms: C_24  and  C_25
REMARK   10  A    between atoms: C_25  and  O_27
REMARK                            x       y       z     vdW  Elec       q    Type
REMARK                         _______ _______ _______ _____ _____    ______ ____
ROOT
ATOM      1  C   UNL     1       2.450   6.861  18.604  0.00  0.00    +0.000 A 
ATOM      2  C   UNL     1       2.323   8.218  18.253  0.00  0.00    +0.000 A 
ATOM      3  C   UNL     1       1.658   9.128  19.070  0.00  0.00    +0.000 A 
ATOM      4  C   UNL     1       1.101   8.723  20.279  0.00  0.00    +0.000 A 
ATOM      5  C   UNL     1       1.223   7.360  20.615  0.00  0.00    +0.000 A 
ATOM      6  C   UNL     1       1.849   6.386  19.791  0.00  0.00    +0.000 A 
ENDROOT
BRANCH   4   7
ATOM      7  C   UNL     1       0.402   9.680  21.159  0.00  0.00    +0.000 A 
ATOM      8  C   UNL     1      -0.188   9.266  22.366  0.00  0.00    +0.000 A 
ATOM      9  C   UNL     1      -0.832  10.173  23.210  0.00  0.00    +0.000 A 
ATOM     10  C   UNL     1      -0.916  11.515  22.854  0.00  0.00    +0.000 A 
ATOM     11  C   UNL     1      -0.360  11.950  21.657  0.00  0.00    +0.000 A 
ATOM     12  C   UNL     1       0.296  11.041  20.821  0.00  0.00    +0.000 A 
ENDBRANCH   4   7
BRANCH   6  13
ATOM     13  C   UNL     1       1.823   4.957  20.240  0.00  0.00    +0.000 A 
ATOM     14  C   UNL     1       1.108   3.981  19.506  0.00  0.00    +0.000 A 
ATOM     15  C   UNL     1       1.019   2.647  19.923  0.00  0.00    +0.000 A 
ATOM     16  C   UNL     1       1.676   2.237  21.074  0.00  0.00    +0.000 A 
ATOM     17  C   UNL     1       2.406   3.164  21.811  0.00  0.00    +0.000 A 
ATOM     18  C   UNL     1       2.465   4.507  21.405  0.00  0.00    +0.000 A 
ENDBRANCH   6  13
BRANCH   1  19
ATOM     19  O   UNL     1       3.105   5.977  17.770  0.00  0.00    +0.000 OA
BRANCH  19  20
ATOM     20  C   UNL     1       4.534   5.985  17.914  0.00  0.00    +0.000 C 
BRANCH  20  21
ATOM     21  C   UNL     1       5.100   4.569  17.747  0.00  0.00    +0.000 C 
BRANCH  21  23
ATOM     22  C   UNL     1       7.549   4.761  17.858  0.00  0.00    +0.000 C 
ATOM     23  N   UNL     1       6.375   4.523  17.007  0.00  0.00    +0.000 NA
BRANCH  23  24
ATOM     24  C   UNL     1       6.392   5.428  15.838  0.00  0.00    +0.000 C 
BRANCH  24  25
ATOM     25  C   UNL     1       6.835   4.756  14.538  0.00  0.00    +0.000 C 
ATOM     26  O   UNL     1       7.553   5.283  13.701  0.00  0.00    +0.000 OA
BRANCH  25  27
ATOM     27  O   UNL     1       6.317   3.515  14.366  0.00  0.00    +0.000 OA
ATOM     28  H   UNL     1       5.804   3.419  13.542  0.00  0.00    +0.000 HD
ENDBRANCH  25  27
ENDBRANCH  24  25
ENDBRANCH  23  24
ENDBRANCH  21  23
ENDBRANCH  20  21
ENDBRANCH  19  20
ENDBRANCH   1  19
TORSDOF 9
ENDMDL
MODEL 7
REMARK VINA RESULT:      -8.1      1.078      1.674
REMARK  Name = 
REMARK  10 active torsions:
REMARK  status: ('A' for Active; 'I' for Inactive)
REMARK    1  A    between atoms: C_1  and  N_2
REMARK    2  A    between atoms: N_2  and  C_3
REMARK    3  A    between atoms: N_2  and  C_24
REMARK    4  A    between atoms: C_3  and  C_4
REMARK    5  A    between atoms: C_4  and  O_5
REMARK    6  A    between atoms: O_5  and  C_6
REMARK    7  A    between atoms: C_9  and  C_10
REMARK    8  A    between atoms: C_17  and  C_18
REMARK    9  A    between atoms: C_24  and  C_25
REMARK   10  A    between atoms: C_25  and  O_27
REMARK                            x       y       z     vdW  Elec       q    Type
REMARK                         _______ _______ _______ _____ _____    ______ ____
ROOT
ATOM      1  C   UNL     1       2.551   6.979  18.524  0.00  0.00    +0.000 A 
ATOM      2  C   UNL     1       2.443   8.352  18.236  0.00  0.00    +0.000 A 
ATOM      3  C   UNL     1       1.742   9.222  19.067  0.00  0.00    +0.000 A 
ATOM      4  C   UNL     1       1.129   8.759  20.226  0.00  0.00    +0.000 A 
ATOM      5  C   UNL     1       1.233   7.380  20.498  0.00  0.00    +0.000 A 
ATOM      6  C   UNL     1       1.895   6.447  19.656  0.00  0.00    +0.000 A 
ENDROOT
BRANCH   4   7
ATOM      7  C   UNL     1       0.392   9.673  21.121  0.00  0.00    +0.000 A 
ATOM      8  C   UNL     1       0.085  10.989  20.730  0.00  0.00    +0.000 A 
ATOM      9  C   UNL     1      -0.629  11.848  21.567  0.00  0.00    +0.000 A 
ATOM     10  C   UNL     1      -1.037  11.415  22.825  0.00  0.00    +0.000 A 
ATOM     11  C   UNL     1      -0.731  10.126  23.246  0.00  0.00    +0.000 A 
ATOM     12  C   UNL     1      -0.027   9.264  22.400  0.00  0.00    +0.000 A 
ENDBRANCH   4   7
BRANCH   6  13
ATOM     13  C   UNL     1       1.846   4.997  20.030  0.00  0.00    +0.000 A 
ATOM     14  C   UNL     1       2.354   4.553  21.273  0.00  0.00    +0.000 A 
ATOM     15  C   UNL     1       2.372   3.200  21.635  0.00  0.00    +0.000 A 
ATOM     16  C   UNL     1       1.847   2.247  20.774  0.00  0.00    +0.000 A 
ATOM     17  C   UNL     1       1.320   2.649  19.551  0.00  0.00    +0.000 A 
ATOM     18  C   UNL     1       1.335   4.003  19.181  0.00  0.00    +0.000 A 
ENDBRANCH   6  13
BRANCH   1  19
ATOM     19  O   UNL     1       3.243   6.136  17.677  0.00  0.00    +0.000 OA
BRANCH  19  20
ATOM     20  C   UNL     1       4.635   6.459  17.538  0.00  0.00    +0.000 C 
BRANCH  20  21
ATOM     21  C   UNL     1       5.483   5.606  18.491  0.00  0.00    +0.000 C 
BRANCH  21  23
ATOM     22  C   UNL     1       7.298   7.039  17.654  0.00  0.00    +0.000 C 
ATOM     23  N   UNL     1       6.937   5.768  18.297  0.00  0.00    +0.000 NA
BRANCH  23  24
ATOM     24  C   UNL     1       7.549   4.632  17.577  0.00  0.00    +0.000 C 
BRANCH  24  25
ATOM     25  C   UNL     1       7.075   4.486  16.131  0.00  0.00    +0.000 C 
ATOM     26  O   UNL     1       7.461   5.185  15.205  0.00  0.00    +0.000 OA
BRANCH  25  27
ATOM     27  O   UNL     1       6.136   3.523  15.963  0.00  0.00    +0.000 OA
ATOM     28  H   UNL     1       6.360   2.680  16.401  0.00  0.00    +0.000 HD
ENDBRANCH  25  27
ENDBRANCH  24  25
ENDBRANCH  23  24
ENDBRANCH  21  23
ENDBRANCH  20  21
ENDBRANCH  19  20
ENDBRANCH   1  19
TORSDOF 9
ENDMDL
MODEL 8
REMARK VINA RESULT:      -8.1      1.046      1.318
REMARK  Name = 
REMARK  10 active torsions:
REMARK  status: ('A' for Active; 'I' for Inactive)
REMARK    1  A    between atoms: C_1  and  N_2
REMARK    2  A    between atoms: N_2  and  C_3
REMARK    3  A    between atoms: N_2  and  C_24
REMARK    4  A    between atoms: C_3  and  C_4
REMARK    5  A    between atoms: C_4  and  O_5
REMARK    6  A    between atoms: O_5  and  C_6
REMARK    7  A    between atoms: C_9  and  C_10
REMARK    8  A    between atoms: C_17  and  C_18
REMARK    9  A    between atoms: C_24  and  C_25
REMARK   10  A    between atoms: C_25  and  O_27
REMARK                            x       y       z     vdW  Elec       q    Type
REMARK                         _______ _______ _______ _____ _____    ______ ____
ROOT
ATOM      1  C   UNL     1       3.136   6.800  18.076  0.00  0.00    +0.000 A 
ATOM      2  C   UNL     1       3.142   8.115  17.576  0.00  0.00    +0.000 A 
ATOM      3  C   UNL     1       2.329   9.108  18.117  0.00  0.00    +0.000 A 
ATOM      4  C   UNL     1       1.485   8.832  19.187  0.00  0.00    +0.000 A 
ATOM      5  C   UNL     1       1.478   7.508  19.672  0.00  0.00    +0.000 A 
ATOM      6  C   UNL     1       2.253   6.451  19.122  0.00  0.00    +0.000 A 
ENDROOT
BRANCH   4   7
ATOM      7  C   UNL     1       0.627   9.877  19.776  0.00  0.00    +0.000 A 
ATOM      8  C   UNL     1      -0.256  10.631  18.983  0.00  0.00    +0.000 A 
ATOM      9  C   UNL     1      -1.084  11.607  19.541  0.00  0.00    +0.000 A 
ATOM     10  C   UNL     1      -1.032  11.865  20.908  0.00  0.00    +0.000 A 
ATOM     11  C   UNL     1      -0.154  11.149  21.714  0.00  0.00    +0.000 A 
ATOM     12  C   UNL     1       0.663  10.164  21.153  0.00  0.00    +0.000 A 
ENDBRANCH   4   7
BRANCH   6  13
ATOM     13  C   UNL     1       2.074   5.075  19.684  0.00  0.00    +0.000 A 
ATOM     14  C   UNL     1       1.519   4.038  18.898  0.00  0.00    +0.000 A 
ATOM     15  C   UNL     1       1.289   2.753  19.406  0.00  0.00    +0.000 A 
ATOM     16  C   UNL     1       1.642   2.454  20.714  0.00  0.00    +0.000 A 
ATOM     17  C   UNL     1       2.210   3.443  21.512  0.00  0.00    +0.000 A 
ATOM     18  C   UNL     1       2.407   4.737  21.006  0.00  0.00    +0.000 A 
ENDBRANCH   6  13
BRANCH   1  19
ATOM     19  O   UNL     1       3.944   5.831  17.514  0.00  0.00    +0.000 OA
BRANCH  19  20
ATOM     20  C   UNL     1       4.793   6.314  16.461  0.00  0.00    +0.000 C 
BRANCH  20  21
ATOM     21  C   UNL     1       6.229   6.497  16.967  0.00  0.00    +0.000 C 
BRANCH  21  23
ATOM     22  C   UNL     1       6.572   4.533  15.527  0.00  0.00    +0.000 C 
ATOM     23  N   UNL     1       7.148   5.422  16.545  0.00  0.00    +0.000 NA
BRANCH  23  24
ATOM     24  C   UNL     1       7.671   4.636  17.683  0.00  0.00    +0.000 C 
BRANCH  24  25
ATOM     25  C   UNL     1       6.790   4.688  18.931  0.00  0.00    +0.000 C 
ATOM     26  O   UNL     1       7.005   5.408  19.896  0.00  0.00    +0.000 OA
BRANCH  25  27
ATOM     27  O   UNL     1       5.751   3.819  18.898  0.00  0.00    +0.000 OA
ATOM     28  H   UNL     1       5.262   3.765  19.741  0.00  0.00    +0.000 HD
ENDBRANCH  25  27
ENDBRANCH  24  25
ENDBRANCH  23  24
ENDBRANCH  21  23
ENDBRANCH  20  21
ENDBRANCH  19  20
ENDBRANCH   1  19
TORSDOF 9
ENDMDL
MODEL 9
REMARK VINA RESULT:      -8.0      1.015      1.060
REMARK  Name = 
REMARK  10 active torsions:
REMARK  status: ('A' for Active; 'I' for Inactive)
REMARK    1  A    between atoms: C_1  and  N_2
REMARK    2  A    between atoms: N_2  and  C_3
REMARK    3  A    between atoms: N_2  and  C_24
REMARK    4  A    between atoms: C_3  and  C_4
REMARK    5  A    between atoms: C_4  and  O_5
REMARK    6  A    between atoms: O_5  and  C_6
REMARK    7  A    between atoms: C_9  and  C_10
REMARK    8  A    between atoms: C_17  and  C_18
REMARK    9  A    between atoms: C_24  and  C_25
REMARK   10  A    between atoms: C_25  and  O_27
REMARK                            x       y       z     vdW  Elec       q    Type
REMARK                         _______ _______ _______ _____ _____    ______ ____
ROOT
ATOM      1  C   UNL     1       2.819   6.876  18.205  0.00  0.00    +0.000 A 
ATOM      2  C   UNL     1       2.722   8.255  17.939  0.00  0.00    +0.000 A 
ATOM      3  C   UNL     1       2.010   9.113  18.772  0.00  0.00    +0.000 A 
ATOM      4  C   UNL     1       1.374   8.633  19.913  0.00  0.00    +0.000 A 
ATOM      5  C   UNL     1       1.467   7.249  20.162  0.00  0.00    +0.000 A 
ATOM      6  C   UNL     1       2.140   6.327  19.316  0.00  0.00    +0.000 A 
ENDROOT
BRANCH   4   7
ATOM      7  C   UNL     1       0.625   9.534  20.810  0.00  0.00    +0.000 A 
ATOM      8  C   UNL     1       0.193  10.801  20.378  0.00  0.00    +0.000 A 
ATOM      9  C   UNL     1      -0.533  11.647  21.219  0.00  0.00    +0.000 A 
ATOM     10  C   UNL     1      -0.828  11.251  22.520  0.00  0.00    +0.000 A 
ATOM     11  C   UNL     1      -0.396  10.012  22.980  0.00  0.00    +0.000 A 
ATOM     12  C   UNL     1       0.319   9.162  22.131  0.00  0.00    +0.000 A 
ENDBRANCH   4   7
BRANCH   6  13
ATOM     13  C   UNL     1       2.079   4.872  19.664  0.00  0.00    +0.000 A 
ATOM     14  C   UNL     1       1.454   3.946  18.795  0.00  0.00    +0.000 A 
ATOM     15  C   UNL     1       1.332   2.587  19.110  0.00  0.00    +0.000 A 
ATOM     16  C   UNL     1       1.866   2.102  20.295  0.00  0.00    +0.000 A 
ATOM     17  C   UNL     1       2.505   2.979  21.166  0.00  0.00    +0.000 A 
ATOM     18  C   UNL     1       2.595   4.346  20.858  0.00  0.00    +0.000 A 
ENDBRANCH   6  13
BRANCH   1  19
ATOM     19  O   UNL     1       3.522   6.045  17.356  0.00  0.00    +0.000 OA
BRANCH  19  20
ATOM     20  C   UNL     1       4.822   5.675  17.843  0.00  0.00    +0.000 C 
BRANCH  20  21
ATOM     21  C   UNL     1       5.910   6.521  17.168  0.00  0.00    +0.000 C 
BRANCH  21  23
ATOM     22  C   UNL     1       6.871   4.888  15.602  0.00  0.00    +0.000 C 
ATOM     23  N   UNL     1       7.102   5.748  16.770  0.00  0.00    +0.000 NA
BRANCH  23  24
ATOM     24  C   UNL     1       7.674   4.963  17.885  0.00  0.00    +0.000 C 
BRANCH  24  25
ATOM     25  C   UNL     1       7.869   5.764  19.172  0.00  0.00    +0.000 C 
ATOM     26  O   UNL     1       7.463   5.412  20.271  0.00  0.00    +0.000 OA
BRANCH  25  27
ATOM     27  O   UNL     1       8.507   6.945  18.984  0.00  0.00    +0.000 OA
ATOM     28  H   UNL     1       8.505   7.245  18.056  0.00  0.00    +0.000 HD
ENDBRANCH  25  27
ENDBRANCH  24  25
ENDBRANCH  23  24
ENDBRANCH  21  23
ENDBRANCH  20  21
ENDBRANCH  19  20
ENDBRANCH   1  19
TORSDOF 9
ENDMDL
