MODEL 1
REMARK VINA RESULT:      -8.2      0.000      0.000
REMARK  Name = 
REMARK  9 active torsions:
REMARK  status: ('A' for Active; 'I' for Inactive)
REMARK    1  A    between atoms: C_1  and  C_2
REMARK    2  A    between atoms: C_2  and  C_3
REMARK    3  A    between atoms: C_3  and  C_4
REMARK    4  A    between atoms: C_3  and  N_5
REMARK    5  A    between atoms: C_14  and  C_15
REMARK    6  A    between atoms: C_15  and  C_16
REMARK    7  A    between atoms: C_16  and  C_17
REMARK    8  A    between atoms: C_17  and  C_18
REMARK    9  A    between atoms: N_23  and  C_24
REMARK                            x       y       z     vdW  Elec       q    Type
REMARK                         _______ _______ _______ _____ _____    ______ ____
ROOT
ATOM      1  N   UNL     1       5.350   4.758  18.430  0.00  0.00    +0.000 N 
ATOM      2  C   UNL     1       4.742   3.775  19.253  0.00  0.00    +0.000 A 
ATOM      3  O   UNL     1       5.338   2.752  19.591  0.00  0.00    +0.000 OA
ATOM      4  C   UNL     1       3.370   4.053  19.657  0.00  0.00    +0.000 A 
ATOM      5  S   UNL     1       2.445   2.979  20.600  0.00  0.00    +0.000 S 
ATOM      6  C   UNL     1       1.089   4.032  20.563  0.00  0.00    +0.000 A 
ATOM      7  C   UNL     1       1.340   5.186  19.850  0.00  0.00    +0.000 A 
ATOM      8  C   UNL     1       2.659   5.184  19.327  0.00  0.00    +0.000 A 
ATOM      9  N   UNL     1       3.330   6.134  18.532  0.00  0.00    +0.000 N 
ATOM     10  C   UNL     1       2.962   7.354  18.010  0.00  0.00    +0.000 A 
ATOM     11  N   UNL     1       3.961   7.822  17.286  0.00  0.00    +0.000 NA
ATOM     12  N   UNL     1       4.999   6.921  17.343  0.00  0.00    +0.000 NA
ATOM     13  C   UNL     1       4.620   5.908  18.098  0.00  0.00    +0.000 A 
ENDROOT
BRANCH   1  14
ATOM     14  C   UNL     1       6.713   4.518  17.928  0.00  0.00    +0.000 C 
ATOM     15  C   UNL     1       7.739   5.413  18.628  0.00  0.00    +0.000 C 
BRANCH  14  17
ATOM     16  C   UNL     1       5.881   3.702  15.650  0.00  0.00    +0.000 C 
ATOM     17  C   UNL     1       6.819   4.646  16.394  0.00  0.00    +0.000 C 
ENDBRANCH  14  17
ENDBRANCH   1  14
BRANCH  10  18
ATOM     18  C   UNL     1       1.650   8.010  18.256  0.00  0.00    +0.000 C 
BRANCH  18  19
ATOM     19  C   UNL     1       1.650   8.943  19.470  0.00  0.00    +0.000 C 
BRANCH  19  20
ATOM     20  C   UNL     1       1.380  10.400  19.081  0.00  0.00    +0.000 C 
BRANCH  20  21
ATOM     21  C   UNL     1       0.548  11.153  20.110  0.00  0.00    +0.000 C 
ATOM     22  O   UNL     1       1.082  11.784  21.024  0.00  0.00    +0.000 OA
ATOM     23  N   UNL     1      -0.824  11.110  19.968  0.00  0.00    +0.000 N 
ATOM     24  C   UNL     1      -1.661  11.919  20.867  0.00  0.00    +0.000 C 
ATOM     25  C   UNL     1      -2.613  12.834  20.073  0.00  0.00    +0.000 C 
ATOM     26  N   UNL     1      -3.378  12.020  19.113  0.00  0.00    +0.000 N 
ATOM     27  C   UNL     1      -2.561  11.222  18.185  0.00  0.00    +0.000 C 
ATOM     28  C   UNL     1      -1.583  10.331  18.977  0.00  0.00    +0.000 C 
BRANCH  26  29
ATOM     29  C   UNL     1      -4.747  12.133  18.979  0.00  0.00    +0.000 A 
ATOM     30  C   UNL     1      -5.376  12.149  17.725  0.00  0.00    +0.000 A 
ATOM     31  C   UNL     1      -6.760  12.307  17.595  0.00  0.00    +0.000 A 
ATOM     32  C   UNL     1      -7.554  12.455  18.726  0.00  0.00    +0.000 A 
ATOM     33  C   UNL     1      -6.962  12.441  19.983  0.00  0.00    +0.000 A 
ATOM     34  C   UNL     1      -5.577  12.281  20.102  0.00  0.00    +0.000 A 
ENDBRANCH  26  29
ENDBRANCH  20  21
ENDBRANCH  19  20
ENDBRANCH  18  19
ENDBRANCH  10  18
TORSDOF 7
ENDMDL
MODEL 2
REMARK VINA RESULT:      -8.1      1.823      3.339
REMARK  Name = 
REMARK  9 active torsions:
REMARK  status: ('A' for Active; 'I' for Inactive)
REMARK    1  A    between atoms: C_1  and  C_2
REMARK    2  A    between atoms: C_2  and  C_3
REMARK    3  A    between atoms: C_3  and  C_4
REMARK    4  A    between atoms: C_3  and  N_5
REMARK    5  A    between atoms: C_14  and  C_15
REMARK    6  A    between atoms: C_15  and  C_16
REMARK    7  A    between atoms: C_16  and  C_17
REMARK    8  A    between atoms: C_17  and  C_18
REMARK    9  A    between atoms: N_23  and  C_24
REMARK                            x       y       z     vdW  Elec       q    Type
REMARK                         _______ _______ _______ _____ _____    ______ ____
ROOT
ATOM      1  N   UNL     1       2.894   3.559  18.834  0.00  0.00    +0.000 N 
ATOM      2  C   UNL     1       3.773   3.275  17.757  0.00  0.00    +0.000 A 
ATOM      3  O   UNL     1       4.071   2.121  17.448  0.00  0.00    +0.000 OA
ATOM      4  C   UNL     1       4.305   4.437  17.056  0.00  0.00    +0.000 A 
ATOM      5  S   UNL     1       5.416   4.316  15.771  0.00  0.00    +0.000 S 
ATOM      6  C   UNL     1       5.484   6.023  15.601  0.00  0.00    +0.000 A 
ATOM      7  C   UNL     1       4.668   6.674  16.505  0.00  0.00    +0.000 A 
ATOM      8  C   UNL     1       3.997   5.746  17.342  0.00  0.00    +0.000 A 
ATOM      9  N   UNL     1       3.095   5.958  18.405  0.00  0.00    +0.000 N 
ATOM     10  C   UNL     1       2.561   7.092  18.975  0.00  0.00    +0.000 A 
ATOM     11  N   UNL     1       1.794   6.734  19.987  0.00  0.00    +0.000 NA
ATOM     12  N   UNL     1       1.805   5.362  20.077  0.00  0.00    +0.000 NA
ATOM     13  C   UNL     1       2.583   4.895  19.120  0.00  0.00    +0.000 A 
ENDROOT
BRANCH   1  14
ATOM     14  C   UNL     1       2.366   2.439  19.632  0.00  0.00    +0.000 C 
ATOM     15  C   UNL     1       0.853   2.280  19.451  0.00  0.00    +0.000 C 
BRANCH  14  17
ATOM     16  C   UNL     1       1.526   2.627  22.041  0.00  0.00    +0.000 C 
ATOM     17  C   UNL     1       2.741   2.536  21.124  0.00  0.00    +0.000 C 
ENDBRANCH  14  17
ENDBRANCH   1  14
BRANCH  10  18
ATOM     18  C   UNL     1       2.820   8.475  18.492  0.00  0.00    +0.000 C 
BRANCH  18  19
ATOM     19  C   UNL     1       1.671   9.059  17.665  0.00  0.00    +0.000 C 
BRANCH  19  20
ATOM     20  C   UNL     1       1.491  10.562  17.904  0.00  0.00    +0.000 C 
BRANCH  20  21
ATOM     21  C   UNL     1       0.750  10.882  19.194  0.00  0.00    +0.000 C 
ATOM     22  O   UNL     1       1.360  11.166  20.226  0.00  0.00    +0.000 OA
ATOM     23  N   UNL     1      -0.630  10.851  19.157  0.00  0.00    +0.000 N 
ATOM     24  C   UNL     1      -1.386  11.268  20.346  0.00  0.00    +0.000 C 
ATOM     25  C   UNL     1      -2.401  12.376  20.004  0.00  0.00    +0.000 C 
ATOM     26  N   UNL     1      -3.246  11.929  18.884  0.00  0.00    +0.000 N 
ATOM     27  C   UNL     1      -2.511  11.532  17.672  0.00  0.00    +0.000 C 
ATOM     28  C   UNL     1      -1.470  10.448  18.018  0.00  0.00    +0.000 C 
BRANCH  26  29
ATOM     29  C   UNL     1      -4.620  12.043  18.908  0.00  0.00    +0.000 A 
ATOM     30  C   UNL     1      -5.402  11.906  17.751  0.00  0.00    +0.000 A 
ATOM     31  C   UNL     1      -6.792  12.065  17.775  0.00  0.00    +0.000 A 
ATOM     32  C   UNL     1      -7.438  12.368  18.967  0.00  0.00    +0.000 A 
ATOM     33  C   UNL     1      -6.693  12.508  20.131  0.00  0.00    +0.000 A 
ATOM     34  C   UNL     1      -5.304  12.346  20.096  0.00  0.00    +0.000 A 
ENDBRANCH  26  29
ENDBRANCH  20  21
ENDBRANCH  19  20
ENDBRANCH  18  19
ENDBRANCH  10  18
TORSDOF 7
ENDMDL
MODEL 3
REMARK VINA RESULT:      -8.0      3.160      4.491
REMARK  Name = 
REMARK  9 active torsions:
REMARK  status: ('A' for Active; 'I' for Inactive)
REMARK    1  A    between atoms: C_1  and  C_2
REMARK    2  A    between atoms: C_2  and  C_3
REMARK    3  A    between atoms: C_3  and  C_4
REMARK    4  A    between atoms: C_3  and  N_5
REMARK    5  A    between atoms: C_14  and  C_15
REMARK    6  A    between atoms: C_15  and  C_16
REMARK    7  A    between atoms: C_16  and  C_17
REMARK    8  A    between atoms: C_17  and  C_18
REMARK    9  A    between atoms: N_23  and  C_24
REMARK                            x       y       z     vdW  Elec       q    Type
REMARK                         _______ _______ _______ _____ _____    ______ ____
ROOT
ATOM      1  N   UNL     1       5.003   5.182  18.116  0.00  0.00    +0.000 N 
ATOM      2  C   UNL     1       4.700   4.071  18.946  0.00  0.00    +0.000 A 
ATOM      3  O   UNL     1       5.445   3.094  19.020  0.00  0.00    +0.000 OA
ATOM      4  C   UNL     1       3.450   4.163  19.690  0.00  0.00    +0.000 A 
ATOM      5  S   UNL     1       2.878   2.918  20.700  0.00  0.00    +0.000 S 
ATOM      6  C   UNL     1       1.471   3.816  21.098  0.00  0.00    +0.000 A 
ATOM      7  C   UNL     1       1.441   5.048  20.477  0.00  0.00    +0.000 A 
ATOM      8  C   UNL     1       2.588   5.234  19.662  0.00  0.00    +0.000 A 
ATOM      9  N   UNL     1       2.960   6.316  18.840  0.00  0.00    +0.000 N 
ATOM     10  C   UNL     1       2.374   7.529  18.557  0.00  0.00    +0.000 A 
ATOM     11  N   UNL     1       3.123   8.163  17.674  0.00  0.00    +0.000 NA
ATOM     12  N   UNL     1       4.214   7.379  17.386  0.00  0.00    +0.000 NA
ATOM     13  C   UNL     1       4.120   6.270  18.093  0.00  0.00    +0.000 A 
ENDROOT
BRANCH   1  14
ATOM     14  C   UNL     1       6.217   5.135  17.284  0.00  0.00    +0.000 C 
ATOM     15  C   UNL     1       6.094   4.102  16.161  0.00  0.00    +0.000 C 
BRANCH  14  17
ATOM     16  C   UNL     1       7.847   6.089  19.010  0.00  0.00    +0.000 C 
ATOM     17  C   UNL     1       7.500   4.909  18.109  0.00  0.00    +0.000 C 
ENDBRANCH  14  17
ENDBRANCH   1  14
BRANCH  10  18
ATOM     18  C   UNL     1       1.111   8.015  19.174  0.00  0.00    +0.000 C 
BRANCH  18  19
ATOM     19  C   UNL     1       1.312   8.669  20.545  0.00  0.00    +0.000 C 
BRANCH  19  20
ATOM     20  C   UNL     1      -0.010   9.131  21.166  0.00  0.00    +0.000 C 
BRANCH  20  21
ATOM     21  C   UNL     1       0.073  10.513  21.798  0.00  0.00    +0.000 C 
ATOM     22  O   UNL     1      -0.022  10.664  23.017  0.00  0.00    +0.000 OA
ATOM     23  N   UNL     1       0.271  11.586  20.952  0.00  0.00    +0.000 N 
ATOM     24  C   UNL     1       0.476  12.922  21.528  0.00  0.00    +0.000 C 
ATOM     25  C   UNL     1       1.780  13.561  21.012  0.00  0.00    +0.000 C 
ATOM     26  N   UNL     1       1.780  13.538  19.539  0.00  0.00    +0.000 N 
ATOM     27  C   UNL     1       1.603  12.205  18.940  0.00  0.00    +0.000 C 
ATOM     28  C   UNL     1       0.317  11.550  19.482  0.00  0.00    +0.000 C 
BRANCH  26  29
ATOM     29  C   UNL     1       2.098  14.648  18.786  0.00  0.00    +0.000 A 
ATOM     30  C   UNL     1       3.209  14.678  17.930  0.00  0.00    +0.000 A 
ATOM     31  C   UNL     1       3.551  15.822  17.201  0.00  0.00    +0.000 A 
ATOM     32  C   UNL     1       2.782  16.975  17.313  0.00  0.00    +0.000 A 
ATOM     33  C   UNL     1       1.674  16.977  18.150  0.00  0.00    +0.000 A 
ATOM     34  C   UNL     1       1.340  15.827  18.873  0.00  0.00    +0.000 A 
ENDBRANCH  26  29
ENDBRANCH  20  21
ENDBRANCH  19  20
ENDBRANCH  18  19
ENDBRANCH  10  18
TORSDOF 7
ENDMDL
MODEL 4
REMARK VINA RESULT:      -8.0      2.828      3.871
REMARK  Name = 
REMARK  9 active torsions:
REMARK  status: ('A' for Active; 'I' for Inactive)
REMARK    1  A    between atoms: C_1  and  C_2
REMARK    2  A    between atoms: C_2  and  C_3
REMARK    3  A    between atoms: C_3  and  C_4
REMARK    4  A    between atoms: C_3  and  N_5
REMARK    5  A    between atoms: C_14  and  C_15
REMARK    6  A    between atoms: C_15  and  C_16
REMARK    7  A    between atoms: C_16  and  C_17
REMARK    8  A    between atoms: C_17  and  C_18
REMARK    9  A    between atoms: N_23  and  C_24
REMARK                            x       y       z     vdW  Elec       q    Type
REMARK                         _______ _______ _______ _____ _____    ______ ____
ROOT
ATOM      1  N   UNL     1       5.321   4.848  18.509  0.00  0.00    +0.000 N 
ATOM      2  C   UNL     1       4.742   3.833  19.315  0.00  0.00    +0.000 A 
ATOM      3  O   UNL     1       5.375   2.834  19.655  0.00  0.00    +0.000 OA
ATOM      4  C   UNL     1       3.353   4.050  19.699  0.00  0.00    +0.000 A 
ATOM      5  S   UNL     1       2.460   2.930  20.618  0.00  0.00    +0.000 S 
ATOM      6  C   UNL     1       1.061   3.924  20.567  0.00  0.00    +0.000 A 
ATOM      7  C   UNL     1       1.274   5.094  19.865  0.00  0.00    +0.000 A 
ATOM      8  C   UNL     1       2.600   5.152  19.365  0.00  0.00    +0.000 A 
ATOM      9  N   UNL     1       3.242   6.136  18.587  0.00  0.00    +0.000 N 
ATOM     10  C   UNL     1       2.832   7.343  18.068  0.00  0.00    +0.000 A 
ATOM     11  N   UNL     1       3.821   7.858  17.364  0.00  0.00    +0.000 NA
ATOM     12  N   UNL     1       4.895   7.002  17.432  0.00  0.00    +0.000 NA
ATOM     13  C   UNL     1       4.548   5.969  18.173  0.00  0.00    +0.000 A 
ENDROOT
BRANCH   1  14
ATOM     14  C   UNL     1       6.701   4.670  18.028  0.00  0.00    +0.000 C 
ATOM     15  C   UNL     1       7.667   5.644  18.708  0.00  0.00    +0.000 C 
BRANCH  14  17
ATOM     16  C   UNL     1       5.906   3.768  15.769  0.00  0.00    +0.000 C 
ATOM     17  C   UNL     1       6.817   4.754  16.492  0.00  0.00    +0.000 C 
ENDBRANCH  14  17
ENDBRANCH   1  14
BRANCH  10  18
ATOM     18  C   UNL     1       1.488   7.940  18.297  0.00  0.00    +0.000 C 
BRANCH  18  19
ATOM     19  C   UNL     1       1.537   9.324  18.952  0.00  0.00    +0.000 C 
BRANCH  19  20
ATOM     20  C   UNL     1       0.491   9.478  20.060  0.00  0.00    +0.000 C 
BRANCH  20  21
ATOM     21  C   UNL     1       0.750  10.670  20.970  0.00  0.00    +0.000 C 
ATOM     22  O   UNL     1       1.241  10.522  22.091  0.00  0.00    +0.000 OA
ATOM     23  N   UNL     1       0.424  11.920  20.485  0.00  0.00    +0.000 N 
ATOM     24  C   UNL     1       0.766  13.108  21.281  0.00  0.00    +0.000 C 
ATOM     25  C   UNL     1       1.601  14.110  20.460  0.00  0.00    +0.000 C 
ATOM     26  N   UNL     1       0.895  14.415  19.205  0.00  0.00    +0.000 N 
ATOM     27  C   UNL     1       0.566  13.242  18.378  0.00  0.00    +0.000 C 
ATOM     28  C   UNL     1      -0.240  12.222  19.207  0.00  0.00    +0.000 C 
BRANCH  26  29
ATOM     29  C   UNL     1       0.716  15.707  18.756  0.00  0.00    +0.000 A 
ATOM     30  C   UNL     1      -0.546  16.320  18.728  0.00  0.00    +0.000 A 
ATOM     31  C   UNL     1      -0.727  17.616  18.232  0.00  0.00    +0.000 A 
ATOM     32  C   UNL     1       0.359  18.334  17.747  0.00  0.00    +0.000 A 
ATOM     33  C   UNL     1       1.622  17.757  17.763  0.00  0.00    +0.000 A 
ATOM     34  C   UNL     1       1.793  16.461  18.263  0.00  0.00    +0.000 A 
ENDBRANCH  26  29
ENDBRANCH  20  21
ENDBRANCH  19  20
ENDBRANCH  18  19
ENDBRANCH  10  18
TORSDOF 7
ENDMDL
MODEL 5
REMARK VINA RESULT:      -7.9      2.339      3.392
REMARK  Name = 
REMARK  9 active torsions:
REMARK  status: ('A' for Active; 'I' for Inactive)
REMARK    1  A    between atoms: C_1  and  C_2
REMARK    2  A    between atoms: C_2  and  C_3
REMARK    3  A    between atoms: C_3  and  C_4
REMARK    4  A    between atoms: C_3  and  N_5
REMARK    5  A    between atoms: C_14  and  C_15
REMARK    6  A    between atoms: C_15  and  C_16
REMARK    7  A    between atoms: C_16  and  C_17
REMARK    8  A    between atoms: C_17  and  C_18
REMARK    9  A    between atoms: N_23  and  C_24
REMARK                            x       y       z     vdW  Elec       q    Type
REMARK                         _______ _______ _______ _____ _____    ______ ____
ROOT
ATOM      1  N   UNL     1       4.537   4.206  17.266  0.00  0.00    +0.000 N 
ATOM      2  C   UNL     1       3.890   3.148  17.955  0.00  0.00    +0.000 A 
ATOM      3  O   UNL     1       4.237   1.975  17.819  0.00  0.00    +0.000 OA
ATOM      4  C   UNL     1       2.785   3.543  18.820  0.00  0.00    +0.000 A 
ATOM      5  S   UNL     1       1.845   2.424  19.693  0.00  0.00    +0.000 S 
ATOM      6  C   UNL     1       0.869   3.676  20.348  0.00  0.00    +0.000 A 
ATOM      7  C   UNL     1       1.258   4.927  19.913  0.00  0.00    +0.000 A 
ATOM      8  C   UNL     1       2.363   4.835  19.027  0.00  0.00    +0.000 A 
ATOM      9  N   UNL     1       3.066   5.842  18.336  0.00  0.00    +0.000 N 
ATOM     10  C   UNL     1       2.942   7.212  18.284  0.00  0.00    +0.000 A 
ATOM     11  N   UNL     1       3.833   7.684  17.433  0.00  0.00    +0.000 NA
ATOM     12  N   UNL     1       4.560   6.630  16.934  0.00  0.00    +0.000 NA
ATOM     13  C   UNL     1       4.102   5.521  17.482  0.00  0.00    +0.000 A 
ENDROOT
BRANCH   1  14
ATOM     14  C   UNL     1       5.621   3.880  16.324  0.00  0.00    +0.000 C 
ATOM     15  C   UNL     1       6.974   4.401  16.817  0.00  0.00    +0.000 C 
BRANCH  14  17
ATOM     16  C   UNL     1       6.596   4.621  14.078  0.00  0.00    +0.000 C 
ATOM     17  C   UNL     1       5.331   4.358  14.887  0.00  0.00    +0.000 C 
ENDBRANCH  14  17
ENDBRANCH   1  14
BRANCH  10  18
ATOM     18  C   UNL     1       1.962   7.996  19.082  0.00  0.00    +0.000 C 
BRANCH  18  19
ATOM     19  C   UNL     1       1.305   9.135  18.297  0.00  0.00    +0.000 C 
BRANCH  19  20
ATOM     20  C   UNL     1       1.091  10.384  19.158  0.00  0.00    +0.000 C 
BRANCH  20  21
ATOM     21  C   UNL     1      -0.278  11.022  18.963  0.00  0.00    +0.000 C 
ATOM     22  O   UNL     1      -1.026  10.660  18.053  0.00  0.00    +0.000 OA
ATOM     23  N   UNL     1      -0.649  12.010  19.853  0.00  0.00    +0.000 N 
ATOM     24  C   UNL     1      -2.006  12.568  19.775  0.00  0.00    +0.000 C 
ATOM     25  C   UNL     1      -2.731  12.471  21.132  0.00  0.00    +0.000 C 
ATOM     26  N   UNL     1      -1.890  13.083  22.174  0.00  0.00    +0.000 N 
ATOM     27  C   UNL     1      -0.535  12.521  22.288  0.00  0.00    +0.000 C 
ATOM     28  C   UNL     1       0.180  12.586  20.924  0.00  0.00    +0.000 C 
BRANCH  26  29
ATOM     29  C   UNL     1      -2.392  13.988  23.087  0.00  0.00    +0.000 A 
ATOM     30  C   UNL     1      -1.625  14.477  24.154  0.00  0.00    +0.000 A 
ATOM     31  C   UNL     1      -2.153  15.362  25.101  0.00  0.00    +0.000 A 
ATOM     32  C   UNL     1      -3.474  15.781  25.001  0.00  0.00    +0.000 A 
ATOM     33  C   UNL     1      -4.261  15.317  23.953  0.00  0.00    +0.000 A 
ATOM     34  C   UNL     1      -3.721  14.434  23.012  0.00  0.00    +0.000 A 
ENDBRANCH  26  29
ENDBRANCH  20  21
ENDBRANCH  19  20
ENDBRANCH  18  19
ENDBRANCH  10  18
TORSDOF 7
ENDMDL
MODEL 6
REMARK VINA RESULT:      -7.9      2.656      3.440
REMARK  Name = 
REMARK  9 active torsions:
REMARK  status: ('A' for Active; 'I' for Inactive)
REMARK    1  A    between atoms: C_1  and  C_2
REMARK    2  A    between atoms: C_2  and  C_3
REMARK    3  A    between atoms: C_3  and  C_4
REMARK    4  A    between atoms: C_3  and  N_5
REMARK    5  A    between atoms: C_14  and  C_15
REMARK    6  A    between atoms: C_15  and  C_16
REMARK    7  A    between atoms: C_16  and  C_17
REMARK    8  A    between atoms: C_17  and  C_18
REMARK    9  A    between atoms: N_23  and  C_24
REMARK                            x       y       z     vdW  Elec       q    Type
REMARK                         _______ _______ _______ _____ _____    ______ ____
ROOT
ATOM      1  N   UNL     1       4.669   4.164  17.147  0.00  0.00    +0.000 N 
ATOM      2  C   UNL     1       3.989   3.125  17.835  0.00  0.00    +0.000 A 
ATOM      3  O   UNL     1       4.323   1.946  17.724  0.00  0.00    +0.000 OA
ATOM      4  C   UNL     1       2.870   3.549  18.666  0.00  0.00    +0.000 A 
ATOM      5  S   UNL     1       1.892   2.457  19.532  0.00  0.00    +0.000 S 
ATOM      6  C   UNL     1       0.919   3.731  20.144  0.00  0.00    +0.000 A 
ATOM      7  C   UNL     1       1.336   4.970  19.701  0.00  0.00    +0.000 A 
ATOM      8  C   UNL     1       2.461   4.850  18.844  0.00  0.00    +0.000 A 
ATOM      9  N   UNL     1       3.195   5.836  18.156  0.00  0.00    +0.000 N 
ATOM     10  C   UNL     1       3.093   7.207  18.081  0.00  0.00    +0.000 A 
ATOM     11  N   UNL     1       4.012   7.654  17.246  0.00  0.00    +0.000 NA
ATOM     12  N   UNL     1       4.735   6.582  16.780  0.00  0.00    +0.000 NA
ATOM     13  C   UNL     1       4.248   5.488  17.333  0.00  0.00    +0.000 A 
ENDROOT
BRANCH   1  14
ATOM     14  C   UNL     1       5.771   3.809  16.237  0.00  0.00    +0.000 C 
ATOM     15  C   UNL     1       7.101   4.411  16.698  0.00  0.00    +0.000 C 
BRANCH  14  17
ATOM     16  C   UNL     1       6.670   4.796  14.054  0.00  0.00    +0.000 C 
ATOM     17  C   UNL     1       5.476   4.171  14.767  0.00  0.00    +0.000 C 
ENDBRANCH  14  17
ENDBRANCH   1  14
BRANCH  10  18
ATOM     18  C   UNL     1       2.105   8.017  18.843  0.00  0.00    +0.000 C 
BRANCH  18  19
ATOM     19  C   UNL     1       1.493   9.160  18.029  0.00  0.00    +0.000 C 
BRANCH  19  20
ATOM     20  C   UNL     1       0.468   9.963  18.837  0.00  0.00    +0.000 C 
BRANCH  20  21
ATOM     21  C   UNL     1       1.008  11.296  19.338  0.00  0.00    +0.000 C 
ATOM     22  O   UNL     1       1.897  11.893  18.729  0.00  0.00    +0.000 OA
ATOM     23  N   UNL     1       0.452  11.811  20.492  0.00  0.00    +0.000 N 
ATOM     24  C   UNL     1       0.858  13.149  20.945  0.00  0.00    +0.000 C 
ATOM     25  C   UNL     1      -0.363  14.068  21.142  0.00  0.00    +0.000 C 
ATOM     26  N   UNL     1      -1.330  13.403  22.032  0.00  0.00    +0.000 N 
ATOM     27  C   UNL     1      -1.771  12.072  21.584  0.00  0.00    +0.000 C 
ATOM     28  C   UNL     1      -0.549  11.161  21.352  0.00  0.00    +0.000 C 
BRANCH  26  29
ATOM     29  C   UNL     1      -1.909  14.049  23.104  0.00  0.00    +0.000 A 
ATOM     30  C   UNL     1      -3.300  14.152  23.252  0.00  0.00    +0.000 A 
ATOM     31  C   UNL     1      -3.880  14.846  24.320  0.00  0.00    +0.000 A 
ATOM     32  C   UNL     1      -3.075  15.460  25.272  0.00  0.00    +0.000 A 
ATOM     33  C   UNL     1      -1.694  15.374  25.155  0.00  0.00    +0.000 A 
ATOM     34  C   UNL     1      -1.124  14.677  24.085  0.00  0.00    +0.000 A 
ENDBRANCH  26  29
ENDBRANCH  20  21
ENDBRANCH  19  20
ENDBRANCH  18  19
ENDBRANCH  10  18
TORSDOF 7
ENDMDL
MODEL 7
REMARK VINA RESULT:      -7.9      2.892      3.737
REMARK  Name = 
REMARK  9 active torsions:
REMARK  status: ('A' for Active; 'I' for Inactive)
REMARK    1  A    between atoms: C_1  and  C_2
REMARK    2  A    between atoms: C_2  and  C_3
REMARK    3  A    between atoms: C_3  and  C_4
REMARK    4  A    between atoms: C_3  and  N_5
REMARK    5  A    between atoms: C_14  and  C_15
REMARK    6  A    between atoms: C_15  and  C_16
REMARK    7  A    between atoms: C_16  and  C_17
REMARK    8  A    between atoms: C_17  and  C_18
REMARK    9  A    between atoms: N_23  and  C_24
REMARK                            x       y       z     vdW  Elec       q    Type
REMARK                         _______ _______ _______ _____ _____    ______ ____
ROOT
ATOM      1  N   UNL     1       4.766   5.738  17.675  0.00  0.00    +0.000 N 
ATOM      2  C   UNL     1       4.979   4.415  18.143  0.00  0.00    +0.000 A 
ATOM      3  O   UNL     1       5.836   3.682  17.651  0.00  0.00    +0.000 OA
ATOM      4  C   UNL     1       4.109   3.985  19.230  0.00  0.00    +0.000 A 
ATOM      5  S   UNL     1       4.165   2.420  19.899  0.00  0.00    +0.000 S 
ATOM      6  C   UNL     1       2.895   2.786  20.995  0.00  0.00    +0.000 A 
ATOM      7  C   UNL     1       2.441   4.082  20.857  0.00  0.00    +0.000 A 
ATOM      8  C   UNL     1       3.147   4.762  19.831  0.00  0.00    +0.000 A 
ATOM      9  N   UNL     1       3.005   6.075  19.339  0.00  0.00    +0.000 N 
ATOM     10  C   UNL     1       2.176   7.122  19.672  0.00  0.00    +0.000 A 
ATOM     11  N   UNL     1       2.424   8.132  18.859  0.00  0.00    +0.000 NA
ATOM     12  N   UNL     1       3.430   7.761  17.999  0.00  0.00    +0.000 NA
ATOM     13  C   UNL     1       3.784   6.525  18.293  0.00  0.00    +0.000 A 
ENDROOT
BRANCH   1  14
ATOM     14  C   UNL     1       5.563   6.223  16.535  0.00  0.00    +0.000 C 
ATOM     15  C   UNL     1       5.286   5.413  15.266  0.00  0.00    +0.000 C 
BRANCH  14  17
ATOM     16  C   UNL     1       7.490   7.555  17.565  0.00  0.00    +0.000 C 
ATOM     17  C   UNL     1       7.074   6.280  16.841  0.00  0.00    +0.000 C 
ENDBRANCH  14  17
ENDBRANCH   1  14
BRANCH  10  18
ATOM     18  C   UNL     1       1.185   7.087  20.782  0.00  0.00    +0.000 C 
BRANCH  18  19
ATOM     19  C   UNL     1       1.059   8.416  21.531  0.00  0.00    +0.000 C 
BRANCH  19  20
ATOM     20  C   UNL     1      -0.101   9.269  21.007  0.00  0.00    +0.000 C 
BRANCH  20  21
ATOM     21  C   UNL     1       0.256  10.740  20.852  0.00  0.00    +0.000 C 
ATOM     22  O   UNL     1       0.996  11.124  19.944  0.00  0.00    +0.000 OA
ATOM     23  N   UNL     1      -0.291  11.625  21.759  0.00  0.00    +0.000 N 
ATOM     24  C   UNL     1      -0.069  13.066  21.576  0.00  0.00    +0.000 C 
ATOM     25  C   UNL     1      -1.402  13.838  21.540  0.00  0.00    +0.000 C 
ATOM     26  N   UNL     1      -2.188  13.501  22.739  0.00  0.00    +0.000 N 
ATOM     27  C   UNL     1      -2.446  12.065  22.929  0.00  0.00    +0.000 C 
ATOM     28  C   UNL     1      -1.115  11.286  22.930  0.00  0.00    +0.000 C 
BRANCH  26  29
ATOM     29  C   UNL     1      -2.785  14.467  23.522  0.00  0.00    +0.000 A 
ATOM     30  C   UNL     1      -4.103  14.897  23.304  0.00  0.00    +0.000 A 
ATOM     31  C   UNL     1      -4.688  15.907  24.076  0.00  0.00    +0.000 A 
ATOM     32  C   UNL     1      -3.962  16.517  25.092  0.00  0.00    +0.000 A 
ATOM     33  C   UNL     1      -2.655  16.112  25.335  0.00  0.00    +0.000 A 
ATOM     34  C   UNL     1      -2.080  15.100  24.558  0.00  0.00    +0.000 A 
ENDBRANCH  26  29
ENDBRANCH  20  21
ENDBRANCH  19  20
ENDBRANCH  18  19
ENDBRANCH  10  18
TORSDOF 7
ENDMDL
MODEL 8
REMARK VINA RESULT:      -7.7      2.968      9.906
REMARK  Name = 
REMARK  9 active torsions:
REMARK  status: ('A' for Active; 'I' for Inactive)
REMARK    1  A    between atoms: C_1  and  C_2
REMARK    2  A    between atoms: C_2  and  C_3
REMARK    3  A    between atoms: C_3  and  C_4
REMARK    4  A    between atoms: C_3  and  N_5
REMARK    5  A    between atoms: C_14  and  C_15
REMARK    6  A    between atoms: C_15  and  C_16
REMARK    7  A    between atoms: C_16  and  C_17
REMARK    8  A    between atoms: C_17  and  C_18
REMARK    9  A    between atoms: N_23  and  C_24
REMARK                            x       y       z     vdW  Elec       q    Type
REMARK                         _______ _______ _______ _____ _____    ______ ____
ROOT
ATOM      1  N   UNL     1      -0.474  11.018  19.015  0.00  0.00    +0.000 N 
ATOM      2  C   UNL     1      -0.998  11.363  20.288  0.00  0.00    +0.000 A 
ATOM      3  O   UNL     1      -1.799  12.286  20.432  0.00  0.00    +0.000 OA
ATOM      4  C   UNL     1      -0.514  10.563  21.406  0.00  0.00    +0.000 A 
ATOM      5  S   UNL     1      -0.976  10.847  23.019  0.00  0.00    +0.000 S 
ATOM      6  C   UNL     1       0.007   9.558  23.583  0.00  0.00    +0.000 A 
ATOM      7  C   UNL     1       0.671   8.916  22.557  0.00  0.00    +0.000 A 
ATOM      8  C   UNL     1       0.366   9.510  21.305  0.00  0.00    +0.000 A 
ATOM      9  N   UNL     1       0.826   9.200  20.010  0.00  0.00    +0.000 N 
ATOM     10  C   UNL     1       1.689   8.246  19.520  0.00  0.00    +0.000 A 
ATOM     11  N   UNL     1       1.815   8.421  18.218  0.00  0.00    +0.000 NA
ATOM     12  N   UNL     1       1.022   9.479  17.842  0.00  0.00    +0.000 NA
ATOM     13  C   UNL     1       0.421   9.943  18.920  0.00  0.00    +0.000 A 
ENDROOT
BRANCH   1  14
ATOM     14  C   UNL     1      -0.867  11.822  17.845  0.00  0.00    +0.000 C 
ATOM     15  C   UNL     1      -0.608  13.314  18.073  0.00  0.00    +0.000 C 
BRANCH  14  17
ATOM     16  C   UNL     1      -2.473  10.355  16.499  0.00  0.00    +0.000 C 
ATOM     17  C   UNL     1      -2.323  11.571  17.406  0.00  0.00    +0.000 C 
ENDBRANCH  14  17
ENDBRANCH   1  14
BRANCH  10  18
ATOM     18  C   UNL     1       2.342   7.199  20.351  0.00  0.00    +0.000 C 
BRANCH  18  19
ATOM     19  C   UNL     1       1.400   6.059  20.750  0.00  0.00    +0.000 C 
BRANCH  19  20
ATOM     20  C   UNL     1       2.162   4.795  21.159  0.00  0.00    +0.000 C 
BRANCH  20  21
ATOM     21  C   UNL     1       2.177   3.725  20.076  0.00  0.00    +0.000 C 
ATOM     22  O   UNL     1       1.298   2.864  20.019  0.00  0.00    +0.000 OA
ATOM     23  N   UNL     1       3.207   3.767  19.158  0.00  0.00    +0.000 N 
ATOM     24  C   UNL     1       3.195   2.828  18.027  0.00  0.00    +0.000 C 
ATOM     25  C   UNL     1       3.304   3.570  16.681  0.00  0.00    +0.000 C 
ATOM     26  N   UNL     1       4.480   4.456  16.711  0.00  0.00    +0.000 N 
ATOM     27  C   UNL     1       4.499   5.424  17.820  0.00  0.00    +0.000 C 
ATOM     28  C   UNL     1       4.356   4.687  19.166  0.00  0.00    +0.000 C 
BRANCH  26  29
ATOM     29  C   UNL     1       5.398   4.495  15.682  0.00  0.00    +0.000 A 
ATOM     30  C   UNL     1       6.564   5.273  15.750  0.00  0.00    +0.000 A 
ATOM     31  C   UNL     1       7.470   5.341  14.686  0.00  0.00    +0.000 A 
ATOM     32  C   UNL     1       7.228   4.627  13.518  0.00  0.00    +0.000 A 
ATOM     33  C   UNL     1       6.084   3.845  13.421  0.00  0.00    +0.000 A 
ATOM     34  C   UNL     1       5.186   3.783  14.491  0.00  0.00    +0.000 A 
ENDBRANCH  26  29
ENDBRANCH  20  21
ENDBRANCH  19  20
ENDBRANCH  18  19
ENDBRANCH  10  18
TORSDOF 7
ENDMDL
MODEL 9
REMARK VINA RESULT:      -7.7      2.093      2.635
REMARK  Name = 
REMARK  9 active torsions:
REMARK  status: ('A' for Active; 'I' for Inactive)
REMARK    1  A    between atoms: C_1  and  C_2
REMARK    2  A    between atoms: C_2  and  C_3
REMARK    3  A    between atoms: C_3  and  C_4
REMARK    4  A    between atoms: C_3  and  N_5
REMARK    5  A    between atoms: C_14  and  C_15
REMARK    6  A    between atoms: C_15  and  C_16
REMARK    7  A    between atoms: C_16  and  C_17
REMARK    8  A    between atoms: C_17  and  C_18
REMARK    9  A    between atoms: N_23  and  C_24
REMARK                            x       y       z     vdW  Elec       q    Type
REMARK                         _______ _______ _______ _____ _____    ______ ____
ROOT
ATOM      1  N   UNL     1       4.536   4.308  17.273  0.00  0.00    +0.000 N 
ATOM      2  C   UNL     1       3.947   3.249  18.012  0.00  0.00    +0.000 A 
ATOM      3  O   UNL     1       4.306   2.081  17.873  0.00  0.00    +0.000 OA
ATOM      4  C   UNL     1       2.886   3.639  18.933  0.00  0.00    +0.000 A 
ATOM      5  S   UNL     1       2.015   2.518  19.873  0.00  0.00    +0.000 S 
ATOM      6  C   UNL     1       1.056   3.763  20.563  0.00  0.00    +0.000 A 
ATOM      7  C   UNL     1       1.398   5.013  20.090  0.00  0.00    +0.000 A 
ATOM      8  C   UNL     1       2.453   4.927  19.145  0.00  0.00    +0.000 A 
ATOM      9  N   UNL     1       3.098   5.935  18.400  0.00  0.00    +0.000 N 
ATOM     10  C   UNL     1       2.948   7.302  18.336  0.00  0.00    +0.000 A 
ATOM     11  N   UNL     1       3.782   7.776  17.430  0.00  0.00    +0.000 NA
ATOM     12  N   UNL     1       4.498   6.726  16.906  0.00  0.00    +0.000 NA
ATOM     13  C   UNL     1       4.091   5.618  17.495  0.00  0.00    +0.000 A 
ENDROOT
BRANCH   1  14
ATOM     14  C   UNL     1       5.571   3.986  16.276  0.00  0.00    +0.000 C 
ATOM     15  C   UNL     1       6.953   4.475  16.718  0.00  0.00    +0.000 C 
BRANCH  14  17
ATOM     16  C   UNL     1       6.125   3.919  13.779  0.00  0.00    +0.000 C 
ATOM     17  C   UNL     1       5.224   4.499  14.864  0.00  0.00    +0.000 C 
ENDBRANCH  14  17
ENDBRANCH   1  14
BRANCH  10  18
ATOM     18  C   UNL     1       2.000   8.081  19.177  0.00  0.00    +0.000 C 
BRANCH  18  19
ATOM     19  C   UNL     1       1.303   9.216  18.422  0.00  0.00    +0.000 C 
BRANCH  19  20
ATOM     20  C   UNL     1       1.216  10.499  19.254  0.00  0.00    +0.000 C 
BRANCH  20  21
ATOM     21  C   UNL     1       0.716  10.264  20.672  0.00  0.00    +0.000 C 
ATOM     22  O   UNL     1       1.377   9.613  21.482  0.00  0.00    +0.000 OA
ATOM     23  N   UNL     1      -0.500  10.820  21.015  0.00  0.00    +0.000 N 
ATOM     24  C   UNL     1      -0.965  10.720  22.406  0.00  0.00    +0.000 C 
ATOM     25  C   UNL     1      -1.302  12.107  22.985  0.00  0.00    +0.000 C 
ATOM     26  N   UNL     1      -2.247  12.791  22.086  0.00  0.00    +0.000 N 
ATOM     27  C   UNL     1      -1.790  12.927  20.694  0.00  0.00    +0.000 C 
ATOM     28  C   UNL     1      -1.420  11.544  20.122  0.00  0.00    +0.000 C 
BRANCH  26  29
ATOM     29  C   UNL     1      -3.388  13.410  22.551  0.00  0.00    +0.000 A 
ATOM     30  C   UNL     1      -3.345  14.612  23.273  0.00  0.00    +0.000 A 
ATOM     31  C   UNL     1      -4.504  15.213  23.779  0.00  0.00    +0.000 A 
ATOM     32  C   UNL     1      -5.743  14.619  23.573  0.00  0.00    +0.000 A 
ATOM     33  C   UNL     1      -5.820  13.429  22.860  0.00  0.00    +0.000 A 
ATOM     34  C   UNL     1      -4.656  12.838  22.358  0.00  0.00    +0.000 A 
ENDBRANCH  26  29
ENDBRANCH  20  21
ENDBRANCH  19  20
ENDBRANCH  18  19
ENDBRANCH  10  18
TORSDOF 7
ENDMDL
