MODEL 1
REMARK VINA RESULT:      -9.4      0.000      0.000
REMARK  Name = 
REMARK  5 active torsions:
REMARK  status: ('A' for Active; 'I' for Inactive)
REMARK    1  A    between atoms: N_15  and  C_16
REMARK    2  A    between atoms: C_16  and  C_17
REMARK    3  A    between atoms: C_17  and  C_18
REMARK    4  A    between atoms: C_18  and  C_19
REMARK    5  A    between atoms: C_19  and  N_20
REMARK                            x       y       z     vdW  Elec       q    Type
REMARK                         _______ _______ _______ _____ _____    ______ ____
ROOT
ATOM      1  C   UNL     1       7.502   7.228  17.054  0.00  0.00    +0.000 C 
ENDROOT
BRANCH   1  16
ATOM      2  O   UNL     1       4.549   7.219  16.324  0.00  0.00    +0.000 OA
ATOM      3  C   UNL     1       5.021   6.451  17.141  0.00  0.00    +0.000 C 
ATOM      4  C   UNL     1       4.259   5.565  18.084  0.00  0.00    +0.000 C 
ATOM      5  C   UNL     1       2.839   4.965  17.968  0.00  0.00    +0.000 C 
ATOM      6  C   UNL     1       2.575   4.679  19.457  0.00  0.00    +0.000 C 
ATOM      7  C   UNL     1       3.490   3.855  20.027  0.00  0.00    +0.000 C 
ATOM      8  C   UNL     1       4.527   3.267  19.049  0.00  0.00    +0.000 C 
ATOM      9  C   UNL     1       3.760   2.549  17.906  0.00  0.00    +0.000 C 
ATOM     10  C   UNL     1       2.276   2.319  17.774  0.00  0.00    +0.000 C 
ATOM     11  C   UNL     1       2.865   3.596  17.209  0.00  0.00    +0.000 C 
ATOM     12  C   UNL     1       5.212   4.374  18.229  0.00  0.00    +0.000 C 
ATOM     13  S   UNL     1       6.764   5.042  18.548  0.00  0.00    +0.000 S 
ATOM     14  O   UNL     1       6.846   5.532  19.900  0.00  0.00    +0.000 OA
ATOM     15  O   UNL     1       7.781   4.210  17.929  0.00  0.00    +0.000 OA
ATOM     16  N   UNL     1       6.411   6.353  17.481  0.00  0.00    +0.000 N 
ENDBRANCH   1  16
BRANCH   1  17
ATOM     17  C   UNL     1       8.057   7.997  18.249  0.00  0.00    +0.000 C 
BRANCH  17  18
ATOM     18  C   UNL     1       8.328   9.476  17.932  0.00  0.00    +0.000 C 
BRANCH  18  19
ATOM     19  C   UNL     1       9.362  10.140  18.860  0.00  0.00    +0.000 C 
BRANCH  19  20
ATOM     20  N   UNL     1       9.075  11.561  19.054  0.00  0.00    +0.000 NA
ATOM     21  C   UNL     1       9.734  12.167  20.234  0.00  0.00    +0.000 C 
ATOM     22  C   UNL     1      11.179  12.703  20.059  0.00  0.00    +0.000 C 
ATOM     23  N   UNL     1      11.337  13.432  18.805  0.00  0.00    +0.000 N 
ATOM     24  C   UNL     1      11.492  14.799  18.818  0.00  0.00    +0.000 A 
ATOM     25  N   UNL     1      12.042  15.374  19.902  0.00  0.00    +0.000 NA
ATOM     26  C   UNL     1      12.333  16.689  19.839  0.00  0.00    +0.000 A 
ATOM     27  C   UNL     1      12.078  17.472  18.745  0.00  0.00    +0.000 A 
ATOM     28  C   UNL     1      11.476  16.819  17.701  0.00  0.00    +0.000 A 
ATOM     29  N   UNL     1      11.185  15.504  17.715  0.00  0.00    +0.000 NA
ATOM     30  C   UNL     1      10.794  12.772  17.622  0.00  0.00    +0.000 C 
ATOM     31  C   UNL     1       9.324  12.377  17.847  0.00  0.00    +0.000 C 
ENDBRANCH  19  20
ENDBRANCH  18  19
ENDBRANCH  17  18
ENDBRANCH   1  17
TORSDOF 5
ENDMDL
MODEL 2
REMARK VINA RESULT:      -9.2      1.021      2.184
REMARK  Name = 
REMARK  5 active torsions:
REMARK  status: ('A' for Active; 'I' for Inactive)
REMARK    1  A    between atoms: N_15  and  C_16
REMARK    2  A    between atoms: C_16  and  C_17
REMARK    3  A    between atoms: C_17  and  C_18
REMARK    4  A    between atoms: C_18  and  C_19
REMARK    5  A    between atoms: C_19  and  N_20
REMARK                            x       y       z     vdW  Elec       q    Type
REMARK                         _______ _______ _______ _____ _____    ______ ____
ROOT
ATOM      1  C   UNL     1       7.462   6.506  17.300  0.00  0.00    +0.000 C 
ENDROOT
BRANCH   1  16
ATOM      2  O   UNL     1       6.823   5.006  19.867  0.00  0.00    +0.000 OA
ATOM      3  C   UNL     1       6.075   5.003  18.908  0.00  0.00    +0.000 C 
ATOM      4  C   UNL     1       4.879   4.118  18.704  0.00  0.00    +0.000 C 
ATOM      5  C   UNL     1       3.966   3.416  19.735  0.00  0.00    +0.000 C 
ATOM      6  C   UNL     1       3.378   2.320  18.828  0.00  0.00    +0.000 C 
ATOM      7  C   UNL     1       2.731   2.799  17.737  0.00  0.00    +0.000 C 
ATOM      8  C   UNL     1       2.598   4.335  17.688  0.00  0.00    +0.000 C 
ATOM      9  C   UNL     1       1.910   4.801  18.999  0.00  0.00    +0.000 C 
ATOM     10  C   UNL     1       1.334   3.957  20.107  0.00  0.00    +0.000 C 
ATOM     11  C   UNL     1       2.795   4.354  20.182  0.00  0.00    +0.000 C 
ATOM     12  C   UNL     1       3.964   5.020  17.871  0.00  0.00    +0.000 C 
ATOM     13  S   UNL     1       4.943   5.654  16.606  0.00  0.00    +0.000 S 
ATOM     14  O   UNL     1       5.205   4.652  15.605  0.00  0.00    +0.000 OA
ATOM     15  O   UNL     1       4.512   7.007  16.299  0.00  0.00    +0.000 OA
ATOM     16  N   UNL     1       6.279   5.743  17.696  0.00  0.00    +0.000 N 
ENDBRANCH   1  16
BRANCH   1  17
ATOM     17  C   UNL     1       7.901   7.423  18.439  0.00  0.00    +0.000 C 
BRANCH  17  18
ATOM     18  C   UNL     1       8.205   8.854  17.969  0.00  0.00    +0.000 C 
BRANCH  18  19
ATOM     19  C   UNL     1       9.240   9.595  18.835  0.00  0.00    +0.000 C 
BRANCH  19  20
ATOM     20  N   UNL     1       8.842  10.981  19.079  0.00  0.00    +0.000 NA
ATOM     21  C   UNL     1       9.390  11.569  20.323  0.00  0.00    +0.000 C 
ATOM     22  C   UNL     1      10.799  12.213  20.259  0.00  0.00    +0.000 C 
ATOM     23  N   UNL     1      10.973  13.014  19.051  0.00  0.00    +0.000 N 
ATOM     24  C   UNL     1      11.028  14.386  19.139  0.00  0.00    +0.000 A 
ATOM     25  N   UNL     1      11.476  14.942  20.279  0.00  0.00    +0.000 NA
ATOM     26  C   UNL     1      11.674  16.275  20.295  0.00  0.00    +0.000 A 
ATOM     27  C   UNL     1      11.423  17.094  19.226  0.00  0.00    +0.000 A 
ATOM     28  C   UNL     1      10.928  16.455  18.120  0.00  0.00    +0.000 A 
ATOM     29  N   UNL     1      10.732  15.124  18.054  0.00  0.00    +0.000 NA
ATOM     30  C   UNL     1      10.545  12.380  17.809  0.00  0.00    +0.000 C 
ATOM     31  C   UNL     1       9.096  11.873  17.929  0.00  0.00    +0.000 C 
ENDBRANCH  19  20
ENDBRANCH  18  19
ENDBRANCH  17  18
ENDBRANCH   1  17
TORSDOF 5
ENDMDL
MODEL 3
REMARK VINA RESULT:      -9.1      1.170      1.294
REMARK  Name = 
REMARK  5 active torsions:
REMARK  status: ('A' for Active; 'I' for Inactive)
REMARK    1  A    between atoms: N_15  and  C_16
REMARK    2  A    between atoms: C_16  and  C_17
REMARK    3  A    between atoms: C_17  and  C_18
REMARK    4  A    between atoms: C_18  and  C_19
REMARK    5  A    between atoms: C_19  and  N_20
REMARK                            x       y       z     vdW  Elec       q    Type
REMARK                         _______ _______ _______ _____ _____    ______ ____
ROOT
ATOM      1  C   UNL     1       6.191   7.010  16.709  0.00  0.00    +0.000 C 
ENDROOT
BRANCH   1  16
ATOM      2  O   UNL     1       3.400   7.412  17.847  0.00  0.00    +0.000 OA
ATOM      3  C   UNL     1       4.005   6.363  17.961  0.00  0.00    +0.000 C 
ATOM      4  C   UNL     1       3.635   5.205  18.843  0.00  0.00    +0.000 C 
ATOM      5  C   UNL     1       2.258   4.760  19.386  0.00  0.00    +0.000 C 
ATOM      6  C   UNL     1       2.733   3.913  20.580  0.00  0.00    +0.000 C 
ATOM      7  C   UNL     1       3.559   2.893  20.236  0.00  0.00    +0.000 C 
ATOM      8  C   UNL     1       3.752   2.705  18.718  0.00  0.00    +0.000 C 
ATOM      9  C   UNL     1       2.351   2.535  18.070  0.00  0.00    +0.000 C 
ATOM     10  C   UNL     1       1.010   2.437  18.751  0.00  0.00    +0.000 C 
ATOM     11  C   UNL     1       1.534   3.809  18.375  0.00  0.00    +0.000 C 
ATOM     12  C   UNL     1       4.179   4.019  18.041  0.00  0.00    +0.000 C 
ATOM     13  S   UNL     1       5.786   4.440  17.597  0.00  0.00    +0.000 S 
ATOM     14  O   UNL     1       6.675   4.345  18.727  0.00  0.00    +0.000 OA
ATOM     15  O   UNL     1       6.084   3.885  16.288  0.00  0.00    +0.000 OA
ATOM     16  N   UNL     1       5.291   6.081  17.391  0.00  0.00    +0.000 N 
ENDBRANCH   1  16
BRANCH   1  17
ATOM     17  C   UNL     1       7.340   7.402  17.633  0.00  0.00    +0.000 C 
BRANCH  17  18
ATOM     18  C   UNL     1       7.620   8.913  17.629  0.00  0.00    +0.000 C 
BRANCH  18  19
ATOM     19  C   UNL     1       8.824   9.334  18.491  0.00  0.00    +0.000 C 
BRANCH  19  20
ATOM     20  N   UNL     1       8.671  10.696  18.998  0.00  0.00    +0.000 NA
ATOM     21  C   UNL     1       9.592  11.049  20.104  0.00  0.00    +0.000 C 
ATOM     22  C   UNL     1      11.002  11.577  19.731  0.00  0.00    +0.000 C 
ATOM     23  N   UNL     1      10.947  12.529  18.627  0.00  0.00    +0.000 N 
ATOM     24  C   UNL     1      11.186  13.865  18.859  0.00  0.00    +0.000 A 
ATOM     25  N   UNL     1      11.979  14.208  19.889  0.00  0.00    +0.000 NA
ATOM     26  C   UNL     1      12.332  15.504  20.009  0.00  0.00    +0.000 A 
ATOM     27  C   UNL     1      11.909  16.488  19.156  0.00  0.00    +0.000 A 
ATOM     28  C   UNL     1      11.070  16.062  18.161  0.00  0.00    +0.000 A 
ATOM     29  N   UNL     1      10.706  14.775  17.994  0.00  0.00    +0.000 NA
ATOM     30  C   UNL     1      10.137  12.122  17.484  0.00  0.00    +0.000 C 
ATOM     31  C   UNL     1       8.720  11.724  17.938  0.00  0.00    +0.000 C 
ENDBRANCH  19  20
ENDBRANCH  18  19
ENDBRANCH  17  18
ENDBRANCH   1  17
TORSDOF 5
ENDMDL
MODEL 4
REMARK VINA RESULT:      -9.1      1.165      2.578
REMARK  Name = 
REMARK  5 active torsions:
REMARK  status: ('A' for Active; 'I' for Inactive)
REMARK    1  A    between atoms: N_15  and  C_16
REMARK    2  A    between atoms: C_16  and  C_17
REMARK    3  A    between atoms: C_17  and  C_18
REMARK    4  A    between atoms: C_18  and  C_19
REMARK    5  A    between atoms: C_19  and  N_20
REMARK                            x       y       z     vdW  Elec       q    Type
REMARK                         _______ _______ _______ _____ _____    ______ ____
ROOT
ATOM      1  C   UNL     1       7.522   6.887  17.249  0.00  0.00    +0.000 C 
ENDROOT
BRANCH   1  16
ATOM      2  O   UNL     1       6.953   5.318  19.791  0.00  0.00    +0.000 OA
ATOM      3  C   UNL     1       6.216   5.281  18.824  0.00  0.00    +0.000 C 
ATOM      4  C   UNL     1       5.079   4.326  18.598  0.00  0.00    +0.000 C 
ATOM      5  C   UNL     1       4.201   3.557  19.611  0.00  0.00    +0.000 C 
ATOM      6  C   UNL     1       3.691   2.437  18.685  0.00  0.00    +0.000 C 
ATOM      7  C   UNL     1       3.025   2.890  17.593  0.00  0.00    +0.000 C 
ATOM      8  C   UNL     1       2.798   4.415  17.561  0.00  0.00    +0.000 C 
ATOM      9  C   UNL     1       2.070   4.821  18.871  0.00  0.00    +0.000 C 
ATOM     10  C   UNL     1       1.538   3.929  19.963  0.00  0.00    +0.000 C 
ATOM     11  C   UNL     1       2.970   4.415  20.057  0.00  0.00    +0.000 C 
ATOM     12  C   UNL     1       4.118   5.180  17.765  0.00  0.00    +0.000 C 
ATOM     13  S   UNL     1       5.067   5.890  16.519  0.00  0.00    +0.000 S 
ATOM     14  O   UNL     1       5.400   4.918  15.508  0.00  0.00    +0.000 OA
ATOM     15  O   UNL     1       4.556   7.217  16.223  0.00  0.00    +0.000 OA
ATOM     16  N   UNL     1       6.385   6.047  17.623  0.00  0.00    +0.000 N 
ENDBRANCH   1  16
BRANCH   1  17
ATOM     17  C   UNL     1       8.069   7.609  18.477  0.00  0.00    +0.000 C 
BRANCH  17  18
ATOM     18  C   UNL     1       8.508   9.050  18.175  0.00  0.00    +0.000 C 
BRANCH  18  19
ATOM     19  C   UNL     1       8.982   9.837  19.410  0.00  0.00    +0.000 C 
BRANCH  19  20
ATOM     20  N   UNL     1      10.045  10.782  19.070  0.00  0.00    +0.000 NA
ATOM     21  C   UNL     1       9.844  11.499  17.789  0.00  0.00    +0.000 C 
ATOM     22  C   UNL     1       8.993  12.795  17.812  0.00  0.00    +0.000 C 
ATOM     23  N   UNL     1       9.318  13.634  18.961  0.00  0.00    +0.000 N 
ATOM     24  C   UNL     1       9.994  14.819  18.778  0.00  0.00    +0.000 A 
ATOM     25  N   UNL     1       9.866  15.460  17.603  0.00  0.00    +0.000 NA
ATOM     26  C   UNL     1      10.403  16.692  17.495  0.00  0.00    +0.000 A 
ATOM     27  C   UNL     1      11.091  17.312  18.504  0.00  0.00    +0.000 A 
ATOM     28  C   UNL     1      11.215  16.573  19.651  0.00  0.00    +0.000 A 
ATOM     29  N   UNL     1      10.678  15.347  19.808  0.00  0.00    +0.000 NA
ATOM     30  C   UNL     1       9.392  12.943  20.243  0.00  0.00    +0.000 C 
ATOM     31  C   UNL     1      10.346  11.738  20.155  0.00  0.00    +0.000 C 
ENDBRANCH  19  20
ENDBRANCH  18  19
ENDBRANCH  17  18
ENDBRANCH   1  17
TORSDOF 5
ENDMDL
MODEL 5
REMARK VINA RESULT:      -8.9      1.255      1.824
REMARK  Name = 
REMARK  5 active torsions:
REMARK  status: ('A' for Active; 'I' for Inactive)
REMARK    1  A    between atoms: N_15  and  C_16
REMARK    2  A    between atoms: C_16  and  C_17
REMARK    3  A    between atoms: C_17  and  C_18
REMARK    4  A    between atoms: C_18  and  C_19
REMARK    5  A    between atoms: C_19  and  N_20
REMARK                            x       y       z     vdW  Elec       q    Type
REMARK                         _______ _______ _______ _____ _____    ______ ____
ROOT
ATOM      1  C   UNL     1       6.585   7.172  16.835  0.00  0.00    +0.000 C 
ENDROOT
BRANCH   1  16
ATOM      2  O   UNL     1       3.693   7.683  17.623  0.00  0.00    +0.000 OA
ATOM      3  C   UNL     1       4.251   6.624  17.843  0.00  0.00    +0.000 C 
ATOM      4  C   UNL     1       3.749   5.509  18.714  0.00  0.00    +0.000 C 
ATOM      5  C   UNL     1       2.306   5.116  19.106  0.00  0.00    +0.000 C 
ATOM      6  C   UNL     1       2.614   4.303  20.376  0.00  0.00    +0.000 C 
ATOM      7  C   UNL     1       3.446   3.252  20.165  0.00  0.00    +0.000 C 
ATOM      8  C   UNL     1       3.809   3.003  18.687  0.00  0.00    +0.000 C 
ATOM      9  C   UNL     1       2.489   2.844  17.886  0.00  0.00    +0.000 C 
ATOM     10  C   UNL     1       1.076   2.802  18.408  0.00  0.00    +0.000 C 
ATOM     11  C   UNL     1       1.678   4.147  18.050  0.00  0.00    +0.000 C 
ATOM     12  C   UNL     1       4.349   4.281  18.021  0.00  0.00    +0.000 C 
ATOM     13  S   UNL     1       6.008   4.647  17.755  0.00  0.00    +0.000 S 
ATOM     14  O   UNL     1       6.756   4.572  18.984  0.00  0.00    +0.000 OA
ATOM     15  O   UNL     1       6.441   4.037  16.510  0.00  0.00    +0.000 OA
ATOM     16  N   UNL     1       5.586   6.291  17.437  0.00  0.00    +0.000 N 
ENDBRANCH   1  16
BRANCH   1  17
ATOM     17  C   UNL     1       7.675   7.502  17.850  0.00  0.00    +0.000 C 
BRANCH  17  18
ATOM     18  C   UNL     1       8.136   8.966  17.776  0.00  0.00    +0.000 C 
BRANCH  18  19
ATOM     19  C   UNL     1       8.739   9.505  19.086  0.00  0.00    +0.000 C 
BRANCH  19  20
ATOM     20  N   UNL     1       9.786  10.493  18.829  0.00  0.00    +0.000 NA
ATOM     21  C   UNL     1       9.458  11.478  17.773  0.00  0.00    +0.000 C 
ATOM     22  C   UNL     1       8.664  12.745  18.187  0.00  0.00    +0.000 C 
ATOM     23  N   UNL     1       9.157  13.304  19.442  0.00  0.00    +0.000 N 
ATOM     24  C   UNL     1       9.850  14.493  19.439  0.00  0.00    +0.000 A 
ATOM     25  N   UNL     1       9.603  15.381  18.459  0.00  0.00    +0.000 NA
ATOM     26  C   UNL     1      10.168  16.601  18.556  0.00  0.00    +0.000 A 
ATOM     27  C   UNL     1      10.996  16.975  19.581  0.00  0.00    +0.000 A 
ATOM     28  C   UNL     1      11.232  15.999  20.513  0.00  0.00    +0.000 A 
ATOM     29  N   UNL     1      10.673  14.774  20.464  0.00  0.00    +0.000 NA
ATOM     30  C   UNL     1       9.362  12.344  20.521  0.00  0.00    +0.000 C 
ATOM     31  C   UNL     1      10.253  11.181  20.050  0.00  0.00    +0.000 C 
ENDBRANCH  19  20
ENDBRANCH  18  19
ENDBRANCH  17  18
ENDBRANCH   1  17
TORSDOF 5
ENDMDL
MODEL 6
REMARK VINA RESULT:      -8.9      1.167      1.726
REMARK  Name = 
REMARK  5 active torsions:
REMARK  status: ('A' for Active; 'I' for Inactive)
REMARK    1  A    between atoms: N_15  and  C_16
REMARK    2  A    between atoms: C_16  and  C_17
REMARK    3  A    between atoms: C_17  and  C_18
REMARK    4  A    between atoms: C_18  and  C_19
REMARK    5  A    between atoms: C_19  and  N_20
REMARK                            x       y       z     vdW  Elec       q    Type
REMARK                         _______ _______ _______ _____ _____    ______ ____
ROOT
ATOM      1  C   UNL     1       7.638   7.260  17.156  0.00  0.00    +0.000 C 
ENDROOT
BRANCH   1  16
ATOM      2  O   UNL     1       4.703   7.271  16.358  0.00  0.00    +0.000 OA
ATOM      3  C   UNL     1       5.153   6.493  17.178  0.00  0.00    +0.000 C 
ATOM      4  C   UNL     1       4.365   5.601  18.095  0.00  0.00    +0.000 C 
ATOM      5  C   UNL     1       2.946   5.009  17.940  0.00  0.00    +0.000 C 
ATOM      6  C   UNL     1       2.647   4.710  19.420  0.00  0.00    +0.000 C 
ATOM      7  C   UNL     1       3.544   3.876  20.003  0.00  0.00    +0.000 C 
ATOM      8  C   UNL     1       4.601   3.293  19.044  0.00  0.00    +0.000 C 
ATOM      9  C   UNL     1       3.858   2.590  17.877  0.00  0.00    +0.000 C 
ATOM     10  C   UNL     1       2.377   2.367  17.708  0.00  0.00    +0.000 C 
ATOM     11  C   UNL     1       2.984   3.647  17.169  0.00  0.00    +0.000 C 
ATOM     12  C   UNL     1       5.310   4.405  18.250  0.00  0.00    +0.000 C 
ATOM     13  S   UNL     1       6.857   5.063  18.612  0.00  0.00    +0.000 S 
ATOM     14  O   UNL     1       6.910   5.541  19.970  0.00  0.00    +0.000 OA
ATOM     15  O   UNL     1       7.885   4.233  18.009  0.00  0.00    +0.000 OA
ATOM     16  N   UNL     1       6.534   6.386  17.549  0.00  0.00    +0.000 N 
ENDBRANCH   1  16
BRANCH   1  17
ATOM     17  C   UNL     1       7.459   8.643  17.775  0.00  0.00    +0.000 C 
BRANCH  17  18
ATOM     18  C   UNL     1       8.708   9.125  18.529  0.00  0.00    +0.000 C 
BRANCH  18  19
ATOM     19  C   UNL     1       9.107  10.580  18.223  0.00  0.00    +0.000 C 
BRANCH  19  20
ATOM     20  N   UNL     1      10.018  11.112  19.236  0.00  0.00    +0.000 NA
ATOM     21  C   UNL     1      11.076  12.003  18.706  0.00  0.00    +0.000 C 
ATOM     22  C   UNL     1      10.735  13.506  18.534  0.00  0.00    +0.000 C 
ATOM     23  N   UNL     1       9.986  14.024  19.673  0.00  0.00    +0.000 N 
ATOM     24  C   UNL     1      10.586  14.897  20.552  0.00  0.00    +0.000 A 
ATOM     25  N   UNL     1      11.583  15.680  20.103  0.00  0.00    +0.000 NA
ATOM     26  C   UNL     1      12.053  16.637  20.928  0.00  0.00    +0.000 A 
ATOM     27  C   UNL     1      11.590  16.839  22.200  0.00  0.00    +0.000 A 
ATOM     28  C   UNL     1      10.606  15.971  22.595  0.00  0.00    +0.000 A 
ATOM     29  N   UNL     1      10.094  15.013  21.798  0.00  0.00    +0.000 NA
ATOM     30  C   UNL     1       8.864  13.202  20.115  0.00  0.00    +0.000 C 
ATOM     31  C   UNL     1       9.321  11.754  20.369  0.00  0.00    +0.000 C 
ENDBRANCH  19  20
ENDBRANCH  18  19
ENDBRANCH  17  18
ENDBRANCH   1  17
TORSDOF 5
ENDMDL
MODEL 7
REMARK VINA RESULT:      -8.5      3.171     11.350
REMARK  Name = 
REMARK  5 active torsions:
REMARK  status: ('A' for Active; 'I' for Inactive)
REMARK    1  A    between atoms: N_15  and  C_16
REMARK    2  A    between atoms: C_16  and  C_17
REMARK    3  A    between atoms: C_17  and  C_18
REMARK    4  A    between atoms: C_18  and  C_19
REMARK    5  A    between atoms: C_19  and  N_20
REMARK                            x       y       z     vdW  Elec       q    Type
REMARK                         _______ _______ _______ _____ _____    ______ ____
ROOT
ATOM      1  C   UNL     1       9.089  10.039  19.340  0.00  0.00    +0.000 C 
ENDROOT
BRANCH   1  16
ATOM      2  O   UNL     1       8.081  12.177  17.425  0.00  0.00    +0.000 OA
ATOM      3  C   UNL     1       9.098  12.314  18.079  0.00  0.00    +0.000 C 
ATOM      4  C   UNL     1      10.136  13.386  17.908  0.00  0.00    +0.000 C 
ATOM      5  C   UNL     1      10.016  14.814  17.329  0.00  0.00    +0.000 C 
ATOM      6  C   UNL     1      11.496  15.058  16.983  0.00  0.00    +0.000 C 
ATOM      7  C   UNL     1      12.333  14.951  18.046  0.00  0.00    +0.000 C 
ATOM      8  C   UNL     1      11.629  14.737  19.402  0.00  0.00    +0.000 C 
ATOM      9  C   UNL     1      10.610  15.891  19.604  0.00  0.00    +0.000 C 
ATOM     10  C   UNL     1      10.383  17.102  18.737  0.00  0.00    +0.000 C 
ATOM     11  C   UNL     1       9.601  15.839  18.437  0.00  0.00    +0.000 C 
ATOM     12  C   UNL     1      10.650  13.551  19.342  0.00  0.00    +0.000 C 
ATOM     13  S   UNL     1      10.964  11.963  19.923  0.00  0.00    +0.000 S 
ATOM     14  O   UNL     1      12.167  11.429  19.337  0.00  0.00    +0.000 OA
ATOM     15  O   UNL     1      10.663  11.902  21.342  0.00  0.00    +0.000 OA
ATOM     16  N   UNL     1       9.592  11.381  19.050  0.00  0.00    +0.000 N 
ENDBRANCH   1  16
BRANCH   1  17
ATOM     17  C   UNL     1       8.528   9.403  18.072  0.00  0.00    +0.000 C 
BRANCH  17  18
ATOM     18  C   UNL     1       8.196   7.913  18.249  0.00  0.00    +0.000 C 
BRANCH  18  19
ATOM     19  C   UNL     1       7.414   7.297  17.075  0.00  0.00    +0.000 C 
BRANCH  19  20
ATOM     20  N   UNL     1       7.136   5.879  17.299  0.00  0.00    +0.000 NA
ATOM     21  C   UNL     1       6.870   5.519  18.711  0.00  0.00    +0.000 C 
ATOM     22  C   UNL     1       5.416   5.664  19.232  0.00  0.00    +0.000 C 
ATOM     23  N   UNL     1       4.443   5.174  18.260  0.00  0.00    +0.000 N 
ATOM     24  C   UNL     1       3.757   4.007  18.504  0.00  0.00    +0.000 A 
ATOM     25  N   UNL     1       3.548   3.636  19.780  0.00  0.00    +0.000 NA
ATOM     26  C   UNL     1       2.741   2.579  20.005  0.00  0.00    +0.000 A 
ATOM     27  C   UNL     1       2.146   1.852  19.009  0.00  0.00    +0.000 A 
ATOM     28  C   UNL     1       2.445   2.268  17.739  0.00  0.00    +0.000 A 
ATOM     29  N   UNL     1       3.231   3.329  17.469  0.00  0.00    +0.000 NA
ATOM     30  C   UNL     1       4.638   5.633  16.889  0.00  0.00    +0.000 C 
ATOM     31  C   UNL     1       6.076   5.345  16.420  0.00  0.00    +0.000 C 
ENDBRANCH  19  20
ENDBRANCH  18  19
ENDBRANCH  17  18
ENDBRANCH   1  17
TORSDOF 5
ENDMDL
MODEL 8
REMARK VINA RESULT:      -8.5      6.354      7.959
REMARK  Name = 
REMARK  5 active torsions:
REMARK  status: ('A' for Active; 'I' for Inactive)
REMARK    1  A    between atoms: N_15  and  C_16
REMARK    2  A    between atoms: C_16  and  C_17
REMARK    3  A    between atoms: C_17  and  C_18
REMARK    4  A    between atoms: C_18  and  C_19
REMARK    5  A    between atoms: C_19  and  N_20
REMARK                            x       y       z     vdW  Elec       q    Type
REMARK                         _______ _______ _______ _____ _____    ______ ____
ROOT
ATOM      1  C   UNL     1       2.392   2.630  19.869  0.00  0.00    +0.000 C 
ENDROOT
BRANCH   1  16
ATOM      2  O   UNL     1       5.329   3.367  20.157  0.00  0.00    +0.000 OA
ATOM      3  C   UNL     1       4.656   3.728  19.210  0.00  0.00    +0.000 C 
ATOM      4  C   UNL     1       5.035   4.753  18.180  0.00  0.00    +0.000 C 
ATOM      5  C   UNL     1       6.427   5.211  17.687  0.00  0.00    +0.000 C 
ATOM      6  C   UNL     1       6.037   6.580  17.102  0.00  0.00    +0.000 C 
ATOM      7  C   UNL     1       5.090   6.512  16.132  0.00  0.00    +0.000 C 
ATOM      8  C   UNL     1       4.692   5.081  15.718  0.00  0.00    +0.000 C 
ATOM      9  C   UNL     1       5.980   4.323  15.300  0.00  0.00    +0.000 C 
ATOM     10  C   UNL     1       7.383   4.859  15.174  0.00  0.00    +0.000 C 
ATOM     11  C   UNL     1       6.935   4.308  16.513  0.00  0.00    +0.000 C 
ATOM     12  C   UNL     1       4.296   4.235  16.942  0.00  0.00    +0.000 C 
ATOM     13  S   UNL     1       2.687   3.904  17.451  0.00  0.00    +0.000 S 
ATOM     14  O   UNL     1       1.943   5.124  17.636  0.00  0.00    +0.000 OA
ATOM     15  O   UNL     1       2.180   2.753  16.724  0.00  0.00    +0.000 OA
ATOM     16  N   UNL     1       3.290   3.361  18.976  0.00  0.00    +0.000 N 
ENDBRANCH   1  16
BRANCH   1  17
ATOM     17  C   UNL     1       1.357   3.580  20.466  0.00  0.00    +0.000 C 
BRANCH  17  18
ATOM     18  C   UNL     1       1.972   4.899  20.959  0.00  0.00    +0.000 C 
BRANCH  18  19
ATOM     19  C   UNL     1       1.145   6.150  20.610  0.00  0.00    +0.000 C 
BRANCH  19  20
ATOM     20  N   UNL     1       1.952   7.367  20.689  0.00  0.00    +0.000 NA
ATOM     21  C   UNL     1       2.231   8.006  19.383  0.00  0.00    +0.000 C 
ATOM     22  C   UNL     1       1.179   8.998  18.823  0.00  0.00    +0.000 C 
ATOM     23  N   UNL     1       0.666   9.884  19.863  0.00  0.00    +0.000 N 
ATOM     24  C   UNL     1       1.013  11.216  19.864  0.00  0.00    +0.000 A 
ATOM     25  N   UNL     1       1.319  11.803  18.694  0.00  0.00    +0.000 NA
ATOM     26  C   UNL     1       1.502  13.139  18.688  0.00  0.00    +0.000 A 
ATOM     27  C   UNL     1       1.417  13.923  19.807  0.00  0.00    +0.000 A 
ATOM     28  C   UNL     1       1.145  13.242  20.964  0.00  0.00    +0.000 A 
ATOM     29  N   UNL     1       0.937  11.911  21.013  0.00  0.00    +0.000 NA
ATOM     30  C   UNL     1       0.274   9.232  21.108  0.00  0.00    +0.000 C 
ATOM     31  C   UNL     1       1.421   8.358  21.647  0.00  0.00    +0.000 C 
ENDBRANCH  19  20
ENDBRANCH  18  19
ENDBRANCH  17  18
ENDBRANCH   1  17
TORSDOF 5
ENDMDL
MODEL 9
REMARK VINA RESULT:      -8.5      1.240      2.485
REMARK  Name = 
REMARK  5 active torsions:
REMARK  status: ('A' for Active; 'I' for Inactive)
REMARK    1  A    between atoms: N_15  and  C_16
REMARK    2  A    between atoms: C_16  and  C_17
REMARK    3  A    between atoms: C_17  and  C_18
REMARK    4  A    between atoms: C_18  and  C_19
REMARK    5  A    between atoms: C_19  and  N_20
REMARK                            x       y       z     vdW  Elec       q    Type
REMARK                         _______ _______ _______ _____ _____    ______ ____
ROOT
ATOM      1  C   UNL     1       7.467   6.845  17.333  0.00  0.00    +0.000 C 
ENDROOT
BRANCH   1  16
ATOM      2  O   UNL     1       6.892   5.249  19.857  0.00  0.00    +0.000 OA
ATOM      3  C   UNL     1       6.158   5.221  18.887  0.00  0.00    +0.000 C 
ATOM      4  C   UNL     1       5.023   4.267  18.647  0.00  0.00    +0.000 C 
ATOM      5  C   UNL     1       4.142   3.486  19.649  0.00  0.00    +0.000 C 
ATOM      6  C   UNL     1       3.637   2.376  18.710  0.00  0.00    +0.000 C 
ATOM      7  C   UNL     1       2.974   2.839  17.620  0.00  0.00    +0.000 C 
ATOM      8  C   UNL     1       2.745   4.364  17.605  0.00  0.00    +0.000 C 
ATOM      9  C   UNL     1       2.013   4.755  18.916  0.00  0.00    +0.000 C 
ATOM     10  C   UNL     1       1.478   3.851  19.996  0.00  0.00    +0.000 C 
ATOM     11  C   UNL     1       2.910   4.338  20.101  0.00  0.00    +0.000 C 
ATOM     12  C   UNL     1       4.063   5.129  17.821  0.00  0.00    +0.000 C 
ATOM     13  S   UNL     1       5.015   5.852  16.585  0.00  0.00    +0.000 S 
ATOM     14  O   UNL     1       5.353   4.892  15.566  0.00  0.00    +0.000 OA
ATOM     15  O   UNL     1       4.504   7.182  16.302  0.00  0.00    +0.000 OA
ATOM     16  N   UNL     1       6.330   6.000  17.695  0.00  0.00    +0.000 N 
ENDBRANCH   1  16
BRANCH   1  17
ATOM     17  C   UNL     1       7.742   7.858  18.441  0.00  0.00    +0.000 C 
BRANCH  17  18
ATOM     18  C   UNL     1       8.797   8.902  18.045  0.00  0.00    +0.000 C 
BRANCH  18  19
ATOM     19  C   UNL     1       8.481  10.331  18.523  0.00  0.00    +0.000 C 
BRANCH  19  20
ATOM     20  N   UNL     1       8.994  11.335  17.591  0.00  0.00    +0.000 NA
ATOM     21  C   UNL     1       8.158  12.553  17.476  0.00  0.00    +0.000 C 
ATOM     22  C   UNL     1       8.398  13.693  18.500  0.00  0.00    +0.000 C 
ATOM     23  N   UNL     1       9.821  13.923  18.729  0.00  0.00    +0.000 N 
ATOM     24  C   UNL     1      10.419  15.065  18.250  0.00  0.00    +0.000 A 
ATOM     25  N   UNL     1       9.667  16.169  18.090  0.00  0.00    +0.000 NA
ATOM     26  C   UNL     1      10.294  17.319  17.772  0.00  0.00    +0.000 A 
ATOM     27  C   UNL     1      11.646  17.420  17.580  0.00  0.00    +0.000 A 
ATOM     28  C   UNL     1      12.333  16.242  17.717  0.00  0.00    +0.000 A 
ATOM     29  N   UNL     1      11.749  15.075  18.052  0.00  0.00    +0.000 NA
ATOM     30  C   UNL     1      10.621  12.726  18.966  0.00  0.00    +0.000 C 
ATOM     31  C   UNL     1      10.404  11.698  17.841  0.00  0.00    +0.000 C 
ENDBRANCH  19  20
ENDBRANCH  18  19
ENDBRANCH  17  18
ENDBRANCH   1  17
TORSDOF 5
ENDMDL
