MODEL 1
REMARK VINA RESULT:      -7.0      0.000      0.000
REMARK  Name = 
REMARK  5 active torsions:
REMARK  status: ('A' for Active; 'I' for Inactive)
REMARK    1  A    between atoms: C_1  and  C_2
REMARK    2  A    between atoms: C_5  and  O_6
REMARK    3  A    between atoms: C_7  and  C_8
REMARK    4  A    between atoms: CA_10  and  C_11
REMARK    5  A    between atoms: C_11  and  OXT_13
REMARK                            x       y       z     vdW  Elec       q    Type
REMARK                         _______ _______ _______ _____ _____    ______ ____
ROOT
ATOM      1  C   UNL     1       6.264   4.174  13.913  0.00  0.00    +0.000 C 
ATOM      2  C   UNL     1       6.138   4.268  15.405  0.00  0.00    +0.000 A 
ATOM      3  C   UNL     1       7.242   4.609  16.193  0.00  0.00    +0.000 A 
ATOM      4  C   UNL     1       7.120   4.707  17.580  0.00  0.00    +0.000 A 
ATOM      5  C   UNL     1       5.891   4.462  18.192  0.00  0.00    +0.000 A 
ATOM      6  C   UNL     1       4.775   4.114  17.425  0.00  0.00    +0.000 A 
ATOM      7  C   UNL     1       4.904   4.025  16.029  0.00  0.00    +0.000 A 
ENDROOT
BRANCH   6   8
ATOM      8  C   UNL     1       3.439   3.878  18.026  0.00  0.00    +0.000 C 
ATOM      9  N   UNL     1       2.772   4.827  18.629  0.00  0.00    +0.000 NA
ATOM     10  CA  UNL     1       1.504   4.180  19.107  0.00  0.00    +0.000 C 
ATOM     11  C   UNL     1       1.363   2.893  18.317  0.00  0.00    +0.000 C 
ATOM     12  C   UNL     1       2.795   2.519  18.010  0.00  0.00    +0.000 C 
BRANCH  10  13
ATOM     13  C   UNL     1       1.620   3.940  20.615  0.00  0.00    +0.000 C 
ATOM     14  O   UNL     1       2.346   4.566  21.371  0.00  0.00    +0.000 OA
BRANCH  13  15
ATOM     15  OXT UNL     1       0.809   2.933  21.029  0.00  0.00    +0.000 OA
ATOM     16  HXT UNL     1       0.140   3.341  21.632  0.00  0.00    +0.000 HD
ENDBRANCH  13  15
ENDBRANCH  10  13
ENDBRANCH   6   8
BRANCH   5  17
ATOM     17  O   UNL     1       5.788   4.605  19.547  0.00  0.00    +0.000 OA
ATOM     18  H   UNL     1       5.466   3.773  19.936  0.00  0.00    +0.000 HD
ENDBRANCH   5  17
TORSDOF 4
ENDMDL
MODEL 2
REMARK VINA RESULT:      -7.0      1.398      1.727
REMARK  Name = 
REMARK  5 active torsions:
REMARK  status: ('A' for Active; 'I' for Inactive)
REMARK    1  A    between atoms: C_1  and  C_2
REMARK    2  A    between atoms: C_5  and  O_6
REMARK    3  A    between atoms: C_7  and  C_8
REMARK    4  A    between atoms: CA_10  and  C_11
REMARK    5  A    between atoms: C_11  and  OXT_13
REMARK                            x       y       z     vdW  Elec       q    Type
REMARK                         _______ _______ _______ _____ _____    ______ ____
ROOT
ATOM      1  C   UNL     1       6.126   4.051  14.006  0.00  0.00    +0.000 C 
ATOM      2  C   UNL     1       6.177   4.267  15.490  0.00  0.00    +0.000 A 
ATOM      3  C   UNL     1       7.373   4.633  16.115  0.00  0.00    +0.000 A 
ATOM      4  C   UNL     1       7.417   4.845  17.495  0.00  0.00    +0.000 A 
ATOM      5  C   UNL     1       6.263   4.689  18.262  0.00  0.00    +0.000 A 
ATOM      6  C   UNL     1       5.057   4.317  17.659  0.00  0.00    +0.000 A 
ATOM      7  C   UNL     1       5.020   4.114  16.270  0.00  0.00    +0.000 A 
ENDROOT
BRANCH   6   8
ATOM      8  C   UNL     1       3.795   4.173  18.427  0.00  0.00    +0.000 C 
ATOM      9  N   UNL     1       3.616   3.209  19.292  0.00  0.00    +0.000 NA
ATOM     10  CA  UNL     1       2.225   3.404  19.822  0.00  0.00    +0.000 C 
ATOM     11  C   UNL     1       1.837   4.829  19.475  0.00  0.00    +0.000 C 
ATOM     12  C   UNL     1       2.635   5.107  18.221  0.00  0.00    +0.000 C 
BRANCH  10  13
ATOM     13  C   UNL     1       1.307   2.365  19.172  0.00  0.00    +0.000 C 
ATOM     14  O   UNL     1       0.101   2.488  19.028  0.00  0.00    +0.000 OA
BRANCH  13  15
ATOM     15  OXT UNL     1       1.996   1.269  18.763  0.00  0.00    +0.000 OA
ATOM     16  HXT UNL     1       2.447   0.906  19.565  0.00  0.00    +0.000 HD
ENDBRANCH  13  15
ENDBRANCH  10  13
ENDBRANCH   6   8
BRANCH   5  17
ATOM     17  O   UNL     1       6.322   4.942  19.603  0.00  0.00    +0.000 OA
ATOM     18  H   UNL     1       5.614   4.452  20.056  0.00  0.00    +0.000 HD
ENDBRANCH   5  17
TORSDOF 4
ENDMDL
MODEL 3
REMARK VINA RESULT:      -6.9      2.425      5.667
REMARK  Name = 
REMARK  5 active torsions:
REMARK  status: ('A' for Active; 'I' for Inactive)
REMARK    1  A    between atoms: C_1  and  C_2
REMARK    2  A    between atoms: C_5  and  O_6
REMARK    3  A    between atoms: C_7  and  C_8
REMARK    4  A    between atoms: CA_10  and  C_11
REMARK    5  A    between atoms: C_11  and  OXT_13
REMARK                            x       y       z     vdW  Elec       q    Type
REMARK                         _______ _______ _______ _____ _____    ______ ____
ROOT
ATOM      1  C   UNL     1       1.032   5.534  20.542  0.00  0.00    +0.000 C 
ATOM      2  C   UNL     1       2.142   4.542  20.357  0.00  0.00    +0.000 A 
ATOM      3  C   UNL     1       2.091   3.291  20.982  0.00  0.00    +0.000 A 
ATOM      4  C   UNL     1       3.120   2.365  20.800  0.00  0.00    +0.000 A 
ATOM      5  C   UNL     1       4.211   2.683  19.991  0.00  0.00    +0.000 A 
ATOM      6  C   UNL     1       4.286   3.930  19.362  0.00  0.00    +0.000 A 
ATOM      7  C   UNL     1       3.243   4.852  19.544  0.00  0.00    +0.000 A 
ENDROOT
BRANCH   6   8
ATOM      8  C   UNL     1       5.408   4.301  18.465  0.00  0.00    +0.000 C 
ATOM      9  N   UNL     1       6.622   4.487  18.913  0.00  0.00    +0.000 NA
ATOM     10  CA  UNL     1       7.437   4.865  17.710  0.00  0.00    +0.000 C 
ATOM     11  C   UNL     1       6.628   4.436  16.501  0.00  0.00    +0.000 C 
ATOM     12  C   UNL     1       5.202   4.524  16.992  0.00  0.00    +0.000 C 
BRANCH  10  13
ATOM     13  C   UNL     1       7.688   6.375  17.749  0.00  0.00    +0.000 C 
ATOM     14  O   UNL     1       7.449   7.149  16.836  0.00  0.00    +0.000 OA
BRANCH  13  15
ATOM     15  OXT UNL     1       8.217   6.769  18.936  0.00  0.00    +0.000 OA
ATOM     16  HXT UNL     1       8.428   5.942  19.437  0.00  0.00    +0.000 HD
ENDBRANCH  13  15
ENDBRANCH  10  13
ENDBRANCH   6   8
BRANCH   5  17
ATOM     17  O   UNL     1       5.184   1.744  19.796  0.00  0.00    +0.000 OA
ATOM     18  H   UNL     1       5.143   1.424  18.878  0.00  0.00    +0.000 HD
ENDBRANCH   5  17
TORSDOF 4
ENDMDL
MODEL 4
REMARK VINA RESULT:      -6.9      0.920      1.025
REMARK  Name = 
REMARK  5 active torsions:
REMARK  status: ('A' for Active; 'I' for Inactive)
REMARK    1  A    between atoms: C_1  and  C_2
REMARK    2  A    between atoms: C_5  and  O_6
REMARK    3  A    between atoms: C_7  and  C_8
REMARK    4  A    between atoms: CA_10  and  C_11
REMARK    5  A    between atoms: C_11  and  OXT_13
REMARK                            x       y       z     vdW  Elec       q    Type
REMARK                         _______ _______ _______ _____ _____    ______ ____
ROOT
ATOM      1  C   UNL     1       5.864   4.044  14.222  0.00  0.00    +0.000 C 
ATOM      2  C   UNL     1       5.956   4.251  15.705  0.00  0.00    +0.000 A 
ATOM      3  C   UNL     1       7.191   4.492  16.316  0.00  0.00    +0.000 A 
ATOM      4  C   UNL     1       7.273   4.695  17.694  0.00  0.00    +0.000 A 
ATOM      5  C   UNL     1       6.118   4.656  18.476  0.00  0.00    +0.000 A 
ATOM      6  C   UNL     1       4.874   4.411  17.887  0.00  0.00    +0.000 A 
ATOM      7  C   UNL     1       4.799   4.216  16.499  0.00  0.00    +0.000 A 
ENDROOT
BRANCH   6   8
ATOM      8  C   UNL     1       3.613   4.396  18.671  0.00  0.00    +0.000 C 
ATOM      9  N   UNL     1       3.576   4.743  19.931  0.00  0.00    +0.000 NA
ATOM     10  CA  UNL     1       2.144   4.567  20.349  0.00  0.00    +0.000 C 
ATOM     11  C   UNL     1       1.334   4.508  19.067  0.00  0.00    +0.000 C 
ATOM     12  C   UNL     1       2.314   3.939  18.067  0.00  0.00    +0.000 C 
BRANCH  10  13
ATOM     13  C   UNL     1       2.034   3.284  21.178  0.00  0.00    +0.000 C 
ATOM     14  O   UNL     1       2.937   2.798  21.840  0.00  0.00    +0.000 OA
BRANCH  13  15
ATOM     15  OXT UNL     1       0.795   2.735  21.096  0.00  0.00    +0.000 OA
ATOM     16  HXT UNL     1       0.180   3.363  21.548  0.00  0.00    +0.000 HD
ENDBRANCH  13  15
ENDBRANCH  10  13
ENDBRANCH   6   8
BRANCH   5  17
ATOM     17  O   UNL     1       6.220   4.900  19.816  0.00  0.00    +0.000 OA
ATOM     18  H   UNL     1       5.328   4.953  20.203  0.00  0.00    +0.000 HD
ENDBRANCH   5  17
TORSDOF 4
ENDMDL
MODEL 5
REMARK VINA RESULT:      -6.8      1.870      2.177
REMARK  Name = 
REMARK  5 active torsions:
REMARK  status: ('A' for Active; 'I' for Inactive)
REMARK    1  A    between atoms: C_1  and  C_2
REMARK    2  A    between atoms: C_5  and  O_6
REMARK    3  A    between atoms: C_7  and  C_8
REMARK    4  A    between atoms: CA_10  and  C_11
REMARK    5  A    between atoms: C_11  and  OXT_13
REMARK                            x       y       z     vdW  Elec       q    Type
REMARK                         _______ _______ _______ _____ _____    ______ ____
ROOT
ATOM      1  C   UNL     1       5.937   3.705  15.206  0.00  0.00    +0.000 C 
ATOM      2  C   UNL     1       5.185   4.674  16.069  0.00  0.00    +0.000 A 
ATOM      3  C   UNL     1       5.318   6.053  15.875  0.00  0.00    +0.000 A 
ATOM      4  C   UNL     1       4.609   6.954  16.671  0.00  0.00    +0.000 A 
ATOM      5  C   UNL     1       3.760   6.482  17.672  0.00  0.00    +0.000 A 
ATOM      6  C   UNL     1       3.616   5.108  17.888  0.00  0.00    +0.000 A 
ATOM      7  C   UNL     1       4.327   4.209  17.078  0.00  0.00    +0.000 A 
ENDROOT
BRANCH   6   8
ATOM      8  C   UNL     1       2.699   4.557  18.917  0.00  0.00    +0.000 C 
ATOM      9  N   UNL     1       2.838   4.830  20.188  0.00  0.00    +0.000 NA
ATOM     10  CA  UNL     1       1.743   4.071  20.881  0.00  0.00    +0.000 C 
ATOM     11  C   UNL     1       0.735   3.711  19.806  0.00  0.00    +0.000 C 
ATOM     12  C   UNL     1       1.581   3.617  18.557  0.00  0.00    +0.000 C 
BRANCH  10  13
ATOM     13  C   UNL     1       2.356   2.839  21.553  0.00  0.00    +0.000 C 
ATOM     14  O   UNL     1       3.507   2.459  21.405  0.00  0.00    +0.000 OA
BRANCH  13  15
ATOM     15  OXT UNL     1       1.462   2.203  22.351  0.00  0.00    +0.000 OA
ATOM     16  HXT UNL     1       0.630   2.737  22.324  0.00  0.00    +0.000 HD
ENDBRANCH  13  15
ENDBRANCH  10  13
ENDBRANCH   6   8
BRANCH   5  17
ATOM     17  O   UNL     1       3.045   7.382  18.410  0.00  0.00    +0.000 OA
ATOM     18  H   UNL     1       3.656   7.913  18.952  0.00  0.00    +0.000 HD
ENDBRANCH   5  17
TORSDOF 4
ENDMDL
MODEL 6
REMARK VINA RESULT:      -6.6      1.527      1.653
REMARK  Name = 
REMARK  5 active torsions:
REMARK  status: ('A' for Active; 'I' for Inactive)
REMARK    1  A    between atoms: C_1  and  C_2
REMARK    2  A    between atoms: C_5  and  O_6
REMARK    3  A    between atoms: C_7  and  C_8
REMARK    4  A    between atoms: CA_10  and  C_11
REMARK    5  A    between atoms: C_11  and  OXT_13
REMARK                            x       y       z     vdW  Elec       q    Type
REMARK                         _______ _______ _______ _____ _____    ______ ____
ROOT
ATOM      1  C   UNL     1       6.060   4.017  14.283  0.00  0.00    +0.000 C 
ATOM      2  C   UNL     1       5.364   4.714  15.416  0.00  0.00    +0.000 A 
ATOM      3  C   UNL     1       5.474   6.099  15.575  0.00  0.00    +0.000 A 
ATOM      4  C   UNL     1       4.817   6.747  16.622  0.00  0.00    +0.000 A 
ATOM      5  C   UNL     1       4.046   6.013  17.523  0.00  0.00    +0.000 A 
ATOM      6  C   UNL     1       3.927   4.626  17.387  0.00  0.00    +0.000 A 
ATOM      7  C   UNL     1       4.585   3.984  16.326  0.00  0.00    +0.000 A 
ENDROOT
BRANCH   6   8
ATOM      8  C   UNL     1       3.090   3.807  18.299  0.00  0.00    +0.000 C 
ATOM      9  N   UNL     1       1.991   4.269  18.834  0.00  0.00    +0.000 NA
ATOM     10  CA  UNL     1       1.467   3.154  19.693  0.00  0.00    +0.000 C 
ATOM     11  C   UNL     1       2.166   1.894  19.221  0.00  0.00    +0.000 C 
ATOM     12  C   UNL     1       3.484   2.409  18.690  0.00  0.00    +0.000 C 
BRANCH  10  13
ATOM     13  C   UNL     1       1.771   3.486  21.157  0.00  0.00    +0.000 C 
ATOM     14  O   UNL     1       2.280   4.524  21.550  0.00  0.00    +0.000 OA
BRANCH  13  15
ATOM     15  OXT UNL     1       1.403   2.479  21.990  0.00  0.00    +0.000 OA
ATOM     16  HXT UNL     1       1.995   2.537  22.780  0.00  0.00    +0.000 HD
ENDBRANCH  13  15
ENDBRANCH  10  13
ENDBRANCH   6   8
BRANCH   5  17
ATOM     17  O   UNL     1       3.379   6.676  18.515  0.00  0.00    +0.000 OA
ATOM     18  H   UNL     1       2.423   6.512  18.426  0.00  0.00    +0.000 HD
ENDBRANCH   5  17
TORSDOF 4
ENDMDL
MODEL 7
REMARK VINA RESULT:      -6.6      2.406      5.555
REMARK  Name = 
REMARK  5 active torsions:
REMARK  status: ('A' for Active; 'I' for Inactive)
REMARK    1  A    between atoms: C_1  and  C_2
REMARK    2  A    between atoms: C_5  and  O_6
REMARK    3  A    between atoms: C_7  and  C_8
REMARK    4  A    between atoms: CA_10  and  C_11
REMARK    5  A    between atoms: C_11  and  OXT_13
REMARK                            x       y       z     vdW  Elec       q    Type
REMARK                         _______ _______ _______ _____ _____    ______ ____
ROOT
ATOM      1  C   UNL     1       0.500   2.199  18.601  0.00  0.00    +0.000 C 
ATOM      2  C   UNL     1       1.915   2.651  18.807  0.00  0.00    +0.000 A 
ATOM      3  C   UNL     1       2.590   2.358  19.997  0.00  0.00    +0.000 A 
ATOM      4  C   UNL     1       3.911   2.770  20.184  0.00  0.00    +0.000 A 
ATOM      5  C   UNL     1       4.568   3.483  19.180  0.00  0.00    +0.000 A 
ATOM      6  C   UNL     1       3.911   3.792  17.986  0.00  0.00    +0.000 A 
ATOM      7  C   UNL     1       2.585   3.367  17.803  0.00  0.00    +0.000 A 
ENDROOT
BRANCH   6   8
ATOM      8  C   UNL     1       4.579   4.517  16.876  0.00  0.00    +0.000 C 
ATOM      9  N   UNL     1       5.070   3.894  15.837  0.00  0.00    +0.000 NA
ATOM     10  CA  UNL     1       5.669   4.968  14.975  0.00  0.00    +0.000 C 
ATOM     11  C   UNL     1       5.062   6.276  15.448  0.00  0.00    +0.000 C 
ATOM     12  C   UNL     1       4.765   6.009  16.906  0.00  0.00    +0.000 C 
BRANCH  10  13
ATOM     13  C   UNL     1       7.191   4.929  15.137  0.00  0.00    +0.000 C 
ATOM     14  O   UNL     1       7.781   4.477  16.105  0.00  0.00    +0.000 OA
BRANCH  13  15
ATOM     15  OXT UNL     1       7.826   5.461  14.061  0.00  0.00    +0.000 OA
ATOM     16  HXT UNL     1       7.166   5.477  13.325  0.00  0.00    +0.000 HD
ENDBRANCH  13  15
ENDBRANCH  10  13
ENDBRANCH   6   8
BRANCH   5  17
ATOM     17  O   UNL     1       5.874   3.838  19.370  0.00  0.00    +0.000 OA
ATOM     18  H   UNL     1       6.418   3.035  19.452  0.00  0.00    +0.000 HD
ENDBRANCH   5  17
TORSDOF 4
ENDMDL
MODEL 8
REMARK VINA RESULT:      -6.5      1.674      1.971
REMARK  Name = 
REMARK  5 active torsions:
REMARK  status: ('A' for Active; 'I' for Inactive)
REMARK    1  A    between atoms: C_1  and  C_2
REMARK    2  A    between atoms: C_5  and  O_6
REMARK    3  A    between atoms: C_7  and  C_8
REMARK    4  A    between atoms: CA_10  and  C_11
REMARK    5  A    between atoms: C_11  and  OXT_13
REMARK                            x       y       z     vdW  Elec       q    Type
REMARK                         _______ _______ _______ _____ _____    ______ ____
ROOT
ATOM      1  C   UNL     1       6.483   4.709  14.542  0.00  0.00    +0.000 C 
ATOM      2  C   UNL     1       5.550   5.173  15.622  0.00  0.00    +0.000 A 
ATOM      3  C   UNL     1       5.395   6.536  15.892  0.00  0.00    +0.000 A 
ATOM      4  C   UNL     1       4.519   6.967  16.889  0.00  0.00    +0.000 A 
ATOM      5  C   UNL     1       3.790   6.035  17.628  0.00  0.00    +0.000 A 
ATOM      6  C   UNL     1       3.933   4.667  17.380  0.00  0.00    +0.000 A 
ATOM      7  C   UNL     1       4.812   4.243  16.370  0.00  0.00    +0.000 A 
ENDROOT
BRANCH   6   8
ATOM      8  C   UNL     1       3.154   3.640  18.115  0.00  0.00    +0.000 C 
ATOM      9  N   UNL     1       1.854   3.705  18.229  0.00  0.00    +0.000 NA
ATOM     10  CA  UNL     1       1.466   2.510  19.052  0.00  0.00    +0.000 C 
ATOM     11  C   UNL     1       2.646   1.559  18.997  0.00  0.00    +0.000 C 
ATOM     12  C   UNL     1       3.826   2.485  18.807  0.00  0.00    +0.000 C 
BRANCH  10  13
ATOM     13  C   UNL     1       1.150   2.981  20.474  0.00  0.00    +0.000 C 
ATOM     14  O   UNL     1       1.451   2.381  21.494  0.00  0.00    +0.000 OA
BRANCH  13  15
ATOM     15  OXT UNL     1       0.486   4.165  20.478  0.00  0.00    +0.000 OA
ATOM     16  HXT UNL     1       1.175   4.874  20.481  0.00  0.00    +0.000 HD
ENDBRANCH  13  15
ENDBRANCH  10  13
ENDBRANCH   6   8
BRANCH   5  17
ATOM     17  O   UNL     1       2.908   6.484  18.570  0.00  0.00    +0.000 OA
ATOM     18  H   UNL     1       2.231   5.803  18.730  0.00  0.00    +0.000 HD
ENDBRANCH   5  17
TORSDOF 4
ENDMDL
MODEL 9
REMARK VINA RESULT:      -6.5      1.962      5.453
REMARK  Name = 
REMARK  5 active torsions:
REMARK  status: ('A' for Active; 'I' for Inactive)
REMARK    1  A    between atoms: C_1  and  C_2
REMARK    2  A    between atoms: C_5  and  O_6
REMARK    3  A    between atoms: C_7  and  C_8
REMARK    4  A    between atoms: CA_10  and  C_11
REMARK    5  A    between atoms: C_11  and  OXT_13
REMARK                            x       y       z     vdW  Elec       q    Type
REMARK                         _______ _______ _______ _____ _____    ______ ____
ROOT
ATOM      1  C   UNL     1       0.701   1.841  18.729  0.00  0.00    +0.000 C 
ATOM      2  C   UNL     1       1.521   3.053  19.060  0.00  0.00    +0.000 A 
ATOM      3  C   UNL     1       1.061   3.991  19.991  0.00  0.00    +0.000 A 
ATOM      4  C   UNL     1       1.830   5.113  20.306  0.00  0.00    +0.000 A 
ATOM      5  C   UNL     1       3.067   5.307  19.690  0.00  0.00    +0.000 A 
ATOM      6  C   UNL     1       3.543   4.385  18.753  0.00  0.00    +0.000 A 
ATOM      7  C   UNL     1       2.767   3.256  18.447  0.00  0.00    +0.000 A 
ENDROOT
BRANCH   6   8
ATOM      8  C   UNL     1       4.867   4.530  18.097  0.00  0.00    +0.000 C 
ATOM      9  N   UNL     1       5.982   4.539  18.780  0.00  0.00    +0.000 NA
ATOM     10  CA  UNL     1       7.070   4.726  17.762  0.00  0.00    +0.000 C 
ATOM     11  C   UNL     1       6.456   4.377  16.419  0.00  0.00    +0.000 C 
ATOM     12  C   UNL     1       4.996   4.716  16.611  0.00  0.00    +0.000 C 
BRANCH  10  13
ATOM     13  C   UNL     1       7.557   6.176  17.832  0.00  0.00    +0.000 C 
ATOM     14  O   UNL     1       7.475   6.987  16.924  0.00  0.00    +0.000 OA
BRANCH  13  15
ATOM     15  OXT UNL     1       8.100   6.468  19.042  0.00  0.00    +0.000 OA
ATOM     16  HXT UNL     1       7.362   6.804  19.607  0.00  0.00    +0.000 HD
ENDBRANCH  13  15
ENDBRANCH  10  13
ENDBRANCH   6   8
BRANCH   5  17
ATOM     17  O   UNL     1       3.819   6.390  20.047  0.00  0.00    +0.000 OA
ATOM     18  H   UNL     1       4.139   6.275  20.959  0.00  0.00    +0.000 HD
ENDBRANCH   5  17
TORSDOF 4
ENDMDL
