MODEL 1
REMARK VINA RESULT:      -7.0      0.000      0.000
REMARK  Name = 
REMARK  3 active torsions:
REMARK  status: ('A' for Active; 'I' for Inactive)
REMARK    1  A    between atoms: C_2  and  C_10
REMARK    2  A    between atoms: N_3  and  C_4
REMARK    3  A    between atoms: C_4  and  C_5
REMARK                            x       y       z     vdW  Elec       q    Type
REMARK                         _______ _______ _______ _____ _____    ______ ____
ROOT
ATOM      1  C   UNL     1       2.233   7.342  18.871  0.00  0.00    +0.000 A 
ATOM      2  C   UNL     1       2.127   8.271  17.845  0.00  0.00    +0.000 A 
ATOM      3  C   UNL     1       1.561   9.515  18.106  0.00  0.00    +0.000 A 
ATOM      4  C   UNL     1       1.117   9.837  19.395  0.00  0.00    +0.000 A 
ATOM      5  N   UNL     1       0.587  11.092  19.639  0.00  0.00    +0.000 N 
ATOM      6  C   UNL     1       0.715  11.688  20.966  0.00  0.00    +0.000 C 
ATOM      7  C   UNL     1      -0.633  11.785  21.675  0.00  0.00    +0.000 C 
ATOM      8  C   UNL     1      -1.692  12.430  20.784  0.00  0.00    +0.000 C 
ATOM      9  C   UNL     1      -1.792  11.690  19.455  0.00  0.00    +0.000 C 
ATOM     10  C   UNL     1      -0.438  11.634  18.749  0.00  0.00    +0.000 C 
ATOM     11  N   UNL     1       1.253   8.946  20.404  0.00  0.00    +0.000 NA
ATOM     12  C   UNL     1       1.796   7.729  20.127  0.00  0.00    +0.000 A 
ENDROOT
BRANCH   1  14
ATOM     13  O   UNL     1       2.167   5.121  18.140  0.00  0.00    +0.000 OA
ATOM     14  C   UNL     1       2.857   6.030  18.593  0.00  0.00    +0.000 C 
ATOM     15  N   UNL     1       4.192   5.882  18.902  0.00  0.00    +0.000 N 
ATOM     16  H   UNL     1       4.632   6.542  19.529  0.00  0.00    +0.000 HD
BRANCH  15  17
ATOM     17  C   UNL     1       4.811   4.580  18.772  0.00  0.00    +0.000 C 
BRANCH  17  18
ATOM     18  C   UNL     1       5.486   4.488  17.442  0.00  0.00    +0.000 A 
ATOM     19  C   UNL     1       4.928   4.120  16.232  0.00  0.00    +0.000 A 
ATOM     20  C   UNL     1       5.889   4.077  15.182  0.00  0.00    +0.000 A 
ATOM     21  C   UNL     1       7.147   4.425  15.621  0.00  0.00    +0.000 A 
ATOM     22  S   UNL     1       7.161   4.812  17.287  0.00  0.00    +0.000 S 
ENDBRANCH  17  18
ENDBRANCH  15  17
ENDBRANCH   1  14
TORSDOF 3
ENDMDL
MODEL 2
REMARK VINA RESULT:      -7.0      5.067      6.985
REMARK  Name = 
REMARK  3 active torsions:
REMARK  status: ('A' for Active; 'I' for Inactive)
REMARK    1  A    between atoms: C_2  and  C_10
REMARK    2  A    between atoms: N_3  and  C_4
REMARK    3  A    between atoms: C_4  and  C_5
REMARK                            x       y       z     vdW  Elec       q    Type
REMARK                         _______ _______ _______ _____ _____    ______ ____
ROOT
ATOM      1  C   UNL     1       5.871   6.624  17.811  0.00  0.00    +0.000 A 
ATOM      2  C   UNL     1       4.627   6.911  17.263  0.00  0.00    +0.000 A 
ATOM      3  C   UNL     1       3.495   6.284  17.774  0.00  0.00    +0.000 A 
ATOM      4  C   UNL     1       3.601   5.386  18.844  0.00  0.00    +0.000 A 
ATOM      5  N   UNL     1       2.458   4.801  19.358  0.00  0.00    +0.000 N 
ATOM      6  C   UNL     1       2.410   4.418  20.767  0.00  0.00    +0.000 C 
ATOM      7  C   UNL     1       2.382   2.901  20.940  0.00  0.00    +0.000 C 
ATOM      8  C   UNL     1       1.311   2.255  20.065  0.00  0.00    +0.000 C 
ATOM      9  C   UNL     1       1.496   2.665  18.608  0.00  0.00    +0.000 C 
ATOM     10  C   UNL     1       1.488   4.185  18.455  0.00  0.00    +0.000 C 
ATOM     11  N   UNL     1       4.808   5.135  19.404  0.00  0.00    +0.000 NA
ATOM     12  C   UNL     1       5.906   5.745  18.880  0.00  0.00    +0.000 A 
ENDROOT
BRANCH   1  14
ATOM     13  O   UNL     1       7.765   6.740  16.444  0.00  0.00    +0.000 OA
ATOM     14  C   UNL     1       7.068   7.310  17.278  0.00  0.00    +0.000 C 
ATOM     15  N   UNL     1       7.366   8.556  17.786  0.00  0.00    +0.000 N 
ATOM     16  H   UNL     1       6.946   8.850  18.659  0.00  0.00    +0.000 HD
BRANCH  15  17
ATOM     17  C   UNL     1       8.597   9.207  17.394  0.00  0.00    +0.000 C 
BRANCH  17  18
ATOM     18  C   UNL     1       8.936  10.263  18.396  0.00  0.00    +0.000 A 
ATOM     19  C   UNL     1       9.249  10.095  19.732  0.00  0.00    +0.000 A 
ATOM     20  C   UNL     1       9.449  11.335  20.403  0.00  0.00    +0.000 A 
ATOM     21  C   UNL     1       9.296  12.409  19.555  0.00  0.00    +0.000 A 
ATOM     22  S   UNL     1       8.924  11.919  17.959  0.00  0.00    +0.000 S 
ENDBRANCH  17  18
ENDBRANCH  15  17
ENDBRANCH   1  14
TORSDOF 3
ENDMDL
MODEL 3
REMARK VINA RESULT:      -6.9      1.066      1.227
REMARK  Name = 
REMARK  3 active torsions:
REMARK  status: ('A' for Active; 'I' for Inactive)
REMARK    1  A    between atoms: C_2  and  C_10
REMARK    2  A    between atoms: N_3  and  C_4
REMARK    3  A    between atoms: C_4  and  C_5
REMARK                            x       y       z     vdW  Elec       q    Type
REMARK                         _______ _______ _______ _____ _____    ______ ____
ROOT
ATOM      1  C   UNL     1       2.353   6.989  19.159  0.00  0.00    +0.000 A 
ATOM      2  C   UNL     1       2.319   7.849  18.068  0.00  0.00    +0.000 A 
ATOM      3  C   UNL     1       1.747   9.110  18.212  0.00  0.00    +0.000 A 
ATOM      4  C   UNL     1       1.226   9.518  19.446  0.00  0.00    +0.000 A 
ATOM      5  N   UNL     1       0.692  10.787  19.574  0.00  0.00    +0.000 N 
ATOM      6  C   UNL     1       0.742  11.469  20.865  0.00  0.00    +0.000 C 
ATOM      7  C   UNL     1      -0.647  11.617  21.480  0.00  0.00    +0.000 C 
ATOM      8  C   UNL     1      -1.643  12.207  20.484  0.00  0.00    +0.000 C 
ATOM      9  C   UNL     1      -1.666  11.381  19.202  0.00  0.00    +0.000 C 
ATOM     10  C   UNL     1      -0.271  11.274  18.588  0.00  0.00    +0.000 C 
ATOM     11  N   UNL     1       1.292   8.694  20.519  0.00  0.00    +0.000 NA
ATOM     12  C   UNL     1       1.841   7.460  20.356  0.00  0.00    +0.000 A 
ENDROOT
BRANCH   1  14
ATOM     13  O   UNL     1       3.489   5.119  19.985  0.00  0.00    +0.000 OA
ATOM     14  C   UNL     1       2.983   5.659  19.006  0.00  0.00    +0.000 C 
ATOM     15  N   UNL     1       3.005   5.107  17.744  0.00  0.00    +0.000 N 
ATOM     16  H   UNL     1       2.846   5.699  16.939  0.00  0.00    +0.000 HD
BRANCH  15  17
ATOM     17  C   UNL     1       3.725   3.872  17.521  0.00  0.00    +0.000 C 
BRANCH  17  18
ATOM     18  C   UNL     1       5.114   4.187  17.070  0.00  0.00    +0.000 A 
ATOM     19  C   UNL     1       6.226   4.431  17.855  0.00  0.00    +0.000 A 
ATOM     20  C   UNL     1       7.373   4.767  17.082  0.00  0.00    +0.000 A 
ATOM     21  C   UNL     1       7.105   4.757  15.731  0.00  0.00    +0.000 A 
ATOM     22  S   UNL     1       5.481   4.332  15.403  0.00  0.00    +0.000 S 
ENDBRANCH  17  18
ENDBRANCH  15  17
ENDBRANCH   1  14
TORSDOF 3
ENDMDL
MODEL 4
REMARK VINA RESULT:      -6.9      3.645      8.314
REMARK  Name = 
REMARK  3 active torsions:
REMARK  status: ('A' for Active; 'I' for Inactive)
REMARK    1  A    between atoms: C_2  and  C_10
REMARK    2  A    between atoms: N_3  and  C_4
REMARK    3  A    between atoms: C_4  and  C_5
REMARK                            x       y       z     vdW  Elec       q    Type
REMARK                         _______ _______ _______ _____ _____    ______ ____
ROOT
ATOM      1  C   UNL     1       1.178   9.175  18.958  0.00  0.00    +0.000 A 
ATOM      2  C   UNL     1       1.437   8.238  19.950  0.00  0.00    +0.000 A 
ATOM      3  C   UNL     1       2.370   7.232  19.712  0.00  0.00    +0.000 A 
ATOM      4  C   UNL     1       3.056   7.174  18.492  0.00  0.00    +0.000 A 
ATOM      5  N   UNL     1       4.002   6.185  18.290  0.00  0.00    +0.000 N 
ATOM      6  C   UNL     1       5.135   6.435  17.402  0.00  0.00    +0.000 C 
ATOM      7  C   UNL     1       5.052   5.595  16.130  0.00  0.00    +0.000 C 
ATOM      8  C   UNL     1       4.799   4.122  16.444  0.00  0.00    +0.000 C 
ATOM      9  C   UNL     1       3.558   3.970  17.317  0.00  0.00    +0.000 C 
ATOM     10  C   UNL     1       3.677   4.794  18.599  0.00  0.00    +0.000 C 
ATOM     11  N   UNL     1       2.832   8.109  17.539  0.00  0.00    +0.000 NA
ATOM     12  C   UNL     1       1.905   9.075  17.784  0.00  0.00    +0.000 A 
ENDROOT
BRANCH   1  14
ATOM     13  O   UNL     1      -0.370  10.292  20.309  0.00  0.00    +0.000 OA
ATOM     14  C   UNL     1       0.203  10.255  19.225  0.00  0.00    +0.000 C 
ATOM     15  N   UNL     1      -0.046  11.153  18.209  0.00  0.00    +0.000 N 
ATOM     16  H   UNL     1       0.218  10.917  17.262  0.00  0.00    +0.000 HD
BRANCH  15  17
ATOM     17  C   UNL     1      -1.087  12.144  18.376  0.00  0.00    +0.000 C 
BRANCH  17  18
ATOM     18  C   UNL     1      -2.339  11.656  17.725  0.00  0.00    +0.000 A 
ATOM     19  C   UNL     1      -2.482  11.110  16.463  0.00  0.00    +0.000 A 
ATOM     20  C   UNL     1      -3.839  10.820  16.147  0.00  0.00    +0.000 A 
ATOM     21  C   UNL     1      -4.689  11.140  17.183  0.00  0.00    +0.000 A 
ATOM     22  S   UNL     1      -3.847  11.776  18.529  0.00  0.00    +0.000 S 
ENDBRANCH  17  18
ENDBRANCH  15  17
ENDBRANCH   1  14
TORSDOF 3
ENDMDL
MODEL 5
REMARK VINA RESULT:      -6.9      3.698      8.347
REMARK  Name = 
REMARK  3 active torsions:
REMARK  status: ('A' for Active; 'I' for Inactive)
REMARK    1  A    between atoms: C_2  and  C_10
REMARK    2  A    between atoms: N_3  and  C_4
REMARK    3  A    between atoms: C_4  and  C_5
REMARK                            x       y       z     vdW  Elec       q    Type
REMARK                         _______ _______ _______ _____ _____    ______ ____
ROOT
ATOM      1  C   UNL     1       1.458   8.935  19.076  0.00  0.00    +0.000 A 
ATOM      2  C   UNL     1       1.489   8.158  20.228  0.00  0.00    +0.000 A 
ATOM      3  C   UNL     1       2.167   6.943  20.214  0.00  0.00    +0.000 A 
ATOM      4  C   UNL     1       2.829   6.512  19.057  0.00  0.00    +0.000 A 
ATOM      5  N   UNL     1       3.524   5.316  19.076  0.00  0.00    +0.000 N 
ATOM      6  C   UNL     1       4.689   5.140  18.213  0.00  0.00    +0.000 C 
ATOM      7  C   UNL     1       4.424   4.125  17.105  0.00  0.00    +0.000 C 
ATOM      8  C   UNL     1       3.837   2.828  17.659  0.00  0.00    +0.000 C 
ATOM      9  C   UNL     1       2.589   3.119  18.484  0.00  0.00    +0.000 C 
ATOM     10  C   UNL     1       2.886   4.113  19.607  0.00  0.00    +0.000 C 
ATOM     11  N   UNL     1       2.832   7.285  17.946  0.00  0.00    +0.000 NA
ATOM     12  C   UNL     1       2.151   8.463  17.973  0.00  0.00    +0.000 A 
ENDROOT
BRANCH   1  14
ATOM     13  O   UNL     1       1.049  11.058  19.966  0.00  0.00    +0.000 OA
ATOM     14  C   UNL     1       0.756  10.236  19.104  0.00  0.00    +0.000 C 
ATOM     15  N   UNL     1      -0.237  10.442  18.170  0.00  0.00    +0.000 N 
ATOM     16  H   UNL     1      -0.636   9.649  17.685  0.00  0.00    +0.000 HD
BRANCH  15  17
ATOM     17  C   UNL     1      -1.041  11.644  18.242  0.00  0.00    +0.000 C 
BRANCH  17  18
ATOM     18  C   UNL     1      -2.346  11.404  17.554  0.00  0.00    +0.000 A 
ATOM     19  C   UNL     1      -2.555  11.012  16.245  0.00  0.00    +0.000 A 
ATOM     20  C   UNL     1      -3.938  10.948  15.912  0.00  0.00    +0.000 A 
ATOM     21  C   UNL     1      -4.741  11.280  16.981  0.00  0.00    +0.000 A 
ATOM     22  S   UNL     1      -3.827  11.654  18.377  0.00  0.00    +0.000 S 
ENDBRANCH  17  18
ENDBRANCH  15  17
ENDBRANCH   1  14
TORSDOF 3
ENDMDL
MODEL 6
REMARK VINA RESULT:      -6.8      3.485      8.259
REMARK  Name = 
REMARK  3 active torsions:
REMARK  status: ('A' for Active; 'I' for Inactive)
REMARK    1  A    between atoms: C_2  and  C_10
REMARK    2  A    between atoms: N_3  and  C_4
REMARK    3  A    between atoms: C_4  and  C_5
REMARK                            x       y       z     vdW  Elec       q    Type
REMARK                         _______ _______ _______ _____ _____    ______ ____
ROOT
ATOM      1  C   UNL     1       1.671   7.972  19.744  0.00  0.00    +0.000 A 
ATOM      2  C   UNL     1       1.484   7.106  20.814  0.00  0.00    +0.000 A 
ATOM      3  C   UNL     1       2.009   5.818  20.749  0.00  0.00    +0.000 A 
ATOM      4  C   UNL     1       2.734   5.402  19.626  0.00  0.00    +0.000 A 
ATOM      5  N   UNL     1       3.274   4.129  19.597  0.00  0.00    +0.000 N 
ATOM      6  C   UNL     1       4.495   3.875  18.837  0.00  0.00    +0.000 C 
ATOM      7  C   UNL     1       4.229   2.998  17.616  0.00  0.00    +0.000 C 
ATOM      8  C   UNL     1       3.435   1.747  17.986  0.00  0.00    +0.000 C 
ATOM      9  C   UNL     1       2.150   2.128  18.712  0.00  0.00    +0.000 C 
ATOM     10  C   UNL     1       2.443   2.979  19.947  0.00  0.00    +0.000 C 
ATOM     11  N   UNL     1       2.949   6.257  18.599  0.00  0.00    +0.000 NA
ATOM     12  C   UNL     1       2.415   7.507  18.673  0.00  0.00    +0.000 A 
ENDROOT
BRANCH   1  14
ATOM     13  O   UNL     1       0.960   9.858  20.931  0.00  0.00    +0.000 OA
ATOM     14  C   UNL     1       1.131   9.346  19.829  0.00  0.00    +0.000 C 
ATOM     15  N   UNL     1       0.803   9.974  18.647  0.00  0.00    +0.000 N 
ATOM     16  H   UNL     1       0.685   9.423  17.807  0.00  0.00    +0.000 HD
BRANCH  15  17
ATOM     17  C   UNL     1       0.149  11.265  18.685  0.00  0.00    +0.000 C 
BRANCH  17  18
ATOM     18  C   UNL     1      -1.298  11.092  18.356  0.00  0.00    +0.000 A 
ATOM     19  C   UNL     1      -1.860  10.246  17.418  0.00  0.00    +0.000 A 
ATOM     20  C   UNL     1      -3.272  10.397  17.327  0.00  0.00    +0.000 A 
ATOM     21  C   UNL     1      -3.747  11.345  18.207  0.00  0.00    +0.000 A 
ATOM     22  S   UNL     1      -2.493  12.036  19.142  0.00  0.00    +0.000 S 
ENDBRANCH  17  18
ENDBRANCH  15  17
ENDBRANCH   1  14
TORSDOF 3
ENDMDL
MODEL 7
REMARK VINA RESULT:      -6.7      0.880      1.169
REMARK  Name = 
REMARK  3 active torsions:
REMARK  status: ('A' for Active; 'I' for Inactive)
REMARK    1  A    between atoms: C_2  and  C_10
REMARK    2  A    between atoms: N_3  and  C_4
REMARK    3  A    between atoms: C_4  and  C_5
REMARK                            x       y       z     vdW  Elec       q    Type
REMARK                         _______ _______ _______ _____ _____    ______ ____
ROOT
ATOM      1  C   UNL     1       2.083   7.594  19.015  0.00  0.00    +0.000 A 
ATOM      2  C   UNL     1       1.999   8.502  17.967  0.00  0.00    +0.000 A 
ATOM      3  C   UNL     1       1.440   9.756  18.195  0.00  0.00    +0.000 A 
ATOM      4  C   UNL     1       0.981  10.109  19.470  0.00  0.00    +0.000 A 
ATOM      5  N   UNL     1       0.458  11.373  19.680  0.00  0.00    +0.000 N 
ATOM      6  C   UNL     1       0.573  11.996  20.996  0.00  0.00    +0.000 C 
ATOM      7  C   UNL     1      -0.783  12.118  21.685  0.00  0.00    +0.000 C 
ATOM      8  C   UNL     1      -1.825  12.754  20.765  0.00  0.00    +0.000 C 
ATOM      9  C   UNL     1      -1.913  11.986  19.451  0.00  0.00    +0.000 C 
ATOM     10  C   UNL     1      -0.550  11.904  18.765  0.00  0.00    +0.000 C 
ATOM     11  N   UNL     1       1.096   9.239  20.500  0.00  0.00    +0.000 NA
ATOM     12  C   UNL     1       1.632   8.011  20.256  0.00  0.00    +0.000 A 
ENDROOT
BRANCH   1  14
ATOM     13  O   UNL     1       2.215   5.529  17.924  0.00  0.00    +0.000 OA
ATOM     14  C   UNL     1       2.700   6.271  18.773  0.00  0.00    +0.000 C 
ATOM     15  N   UNL     1       3.777   5.919  19.556  0.00  0.00    +0.000 N 
ATOM     16  H   UNL     1       3.951   6.421  20.417  0.00  0.00    +0.000 HD
BRANCH  15  17
ATOM     17  C   UNL     1       4.329   4.585  19.448  0.00  0.00    +0.000 C 
BRANCH  17  18
ATOM     18  C   UNL     1       5.474   4.603  18.488  0.00  0.00    +0.000 A 
ATOM     19  C   UNL     1       6.762   5.053  18.713  0.00  0.00    +0.000 A 
ATOM     20  C   UNL     1       7.573   4.983  17.545  0.00  0.00    +0.000 A 
ATOM     21  C   UNL     1       6.883   4.468  16.469  0.00  0.00    +0.000 A 
ATOM     22  S   UNL     1       5.271   4.066  16.875  0.00  0.00    +0.000 S 
ENDBRANCH  17  18
ENDBRANCH  15  17
ENDBRANCH   1  14
TORSDOF 3
ENDMDL
MODEL 8
REMARK VINA RESULT:      -6.7      1.495      1.834
REMARK  Name = 
REMARK  3 active torsions:
REMARK  status: ('A' for Active; 'I' for Inactive)
REMARK    1  A    between atoms: C_2  and  C_10
REMARK    2  A    between atoms: N_3  and  C_4
REMARK    3  A    between atoms: C_4  and  C_5
REMARK                            x       y       z     vdW  Elec       q    Type
REMARK                         _______ _______ _______ _____ _____    ______ ____
ROOT
ATOM      1  C   UNL     1       2.023   7.927  19.127  0.00  0.00    +0.000 A 
ATOM      2  C   UNL     1       1.928   8.793  18.045  0.00  0.00    +0.000 A 
ATOM      3  C   UNL     1       1.234   9.990  18.188  0.00  0.00    +0.000 A 
ATOM      4  C   UNL     1       0.650  10.332  19.414  0.00  0.00    +0.000 A 
ATOM      5  N   UNL     1      -0.007  11.542  19.542  0.00  0.00    +0.000 N 
ATOM      6  C   UNL     1      -0.050  12.211  20.840  0.00  0.00    +0.000 C 
ATOM      7  C   UNL     1      -1.459  12.217  21.427  0.00  0.00    +0.000 C 
ATOM      8  C   UNL     1      -2.487  12.719  20.415  0.00  0.00    +0.000 C 
ATOM      9  C   UNL     1      -2.403  11.909  19.126  0.00  0.00    +0.000 C 
ATOM     10  C   UNL     1      -0.992  11.944  18.540  0.00  0.00    +0.000 C 
ATOM     11  N   UNL     1       0.774   9.507  20.480  0.00  0.00    +0.000 NA
ATOM     12  C   UNL     1       1.444   8.333  20.318  0.00  0.00    +0.000 A 
ENDROOT
BRANCH   1  14
ATOM     13  O   UNL     1       2.807   5.865  19.906  0.00  0.00    +0.000 OA
ATOM     14  C   UNL     1       2.782   6.666  18.976  0.00  0.00    +0.000 C 
ATOM     15  N   UNL     1       3.468   6.474  17.796  0.00  0.00    +0.000 N 
ATOM     16  H   UNL     1       3.657   7.267  17.197  0.00  0.00    +0.000 HD
BRANCH  15  17
ATOM     17  C   UNL     1       4.330   5.321  17.655  0.00  0.00    +0.000 C 
BRANCH  17  18
ATOM     18  C   UNL     1       5.715   5.687  18.077  0.00  0.00    +0.000 A 
ATOM     19  C   UNL     1       6.440   5.182  19.140  0.00  0.00    +0.000 A 
ATOM     20  C   UNL     1       7.706   5.816  19.284  0.00  0.00    +0.000 A 
ATOM     21  C   UNL     1       7.914   6.776  18.318  0.00  0.00    +0.000 A 
ATOM     22  S   UNL     1       6.592   6.899  17.241  0.00  0.00    +0.000 S 
ENDBRANCH  17  18
ENDBRANCH  15  17
ENDBRANCH   1  14
TORSDOF 3
ENDMDL
MODEL 9
REMARK VINA RESULT:      -6.7      3.687      8.349
REMARK  Name = 
REMARK  3 active torsions:
REMARK  status: ('A' for Active; 'I' for Inactive)
REMARK    1  A    between atoms: C_2  and  C_10
REMARK    2  A    between atoms: N_3  and  C_4
REMARK    3  A    between atoms: C_4  and  C_5
REMARK                            x       y       z     vdW  Elec       q    Type
REMARK                         _______ _______ _______ _____ _____    ______ ____
ROOT
ATOM      1  C   UNL     1       1.330   8.994  19.198  0.00  0.00    +0.000 A 
ATOM      2  C   UNL     1       1.764   9.057  17.880  0.00  0.00    +0.000 A 
ATOM      3  C   UNL     1       2.663   8.103  17.411  0.00  0.00    +0.000 A 
ATOM      4  C   UNL     1       3.113   7.077  18.252  0.00  0.00    +0.000 A 
ATOM      5  N   UNL     1       3.980   6.121  17.755  0.00  0.00    +0.000 N 
ATOM      6  C   UNL     1       3.966   4.769  18.308  0.00  0.00    +0.000 C 
ATOM      7  C   UNL     1       5.240   4.464  19.091  0.00  0.00    +0.000 C 
ATOM      8  C   UNL     1       6.490   4.811  18.285  0.00  0.00    +0.000 C 
ATOM      9  C   UNL     1       6.435   6.260  17.815  0.00  0.00    +0.000 C 
ATOM     10  C   UNL     1       5.167   6.534  17.008  0.00  0.00    +0.000 C 
ATOM     11  N   UNL     1       2.661   6.992  19.525  0.00  0.00    +0.000 NA
ATOM     12  C   UNL     1       1.795   7.943  19.971  0.00  0.00    +0.000 A 
ENDROOT
BRANCH   1  14
ATOM     13  O   UNL     1       0.397  10.352  20.858  0.00  0.00    +0.000 OA
ATOM     14  C   UNL     1       0.357   9.997  19.684  0.00  0.00    +0.000 C 
ATOM     15  N   UNL     1      -0.584  10.455  18.788  0.00  0.00    +0.000 N 
ATOM     16  H   UNL     1      -0.761   9.931  17.941  0.00  0.00    +0.000 HD
BRANCH  15  17
ATOM     17  C   UNL     1      -1.637  11.334  19.251  0.00  0.00    +0.000 C 
BRANCH  17  18
ATOM     18  C   UNL     1      -2.752  11.332  18.258  0.00  0.00    +0.000 A 
ATOM     19  C   UNL     1      -2.701  10.963  16.927  0.00  0.00    +0.000 A 
ATOM     20  C   UNL     1      -3.946  11.155  16.262  0.00  0.00    +0.000 A 
ATOM     21  C   UNL     1      -4.911  11.651  17.110  0.00  0.00    +0.000 A 
ATOM     22  S   UNL     1      -4.317  11.873  18.698  0.00  0.00    +0.000 S 
ENDBRANCH  17  18
ENDBRANCH  15  17
ENDBRANCH   1  14
TORSDOF 3
ENDMDL
