MODEL 1
REMARK VINA RESULT:      -8.6      0.000      0.000
REMARK  Name = 
REMARK  3 active torsions:
REMARK  status: ('A' for Active; 'I' for Inactive)
REMARK    1  A    between atoms: N_3  and  C_4
REMARK    2  A    between atoms: N_13  and  C_14
REMARK    3  A    between atoms: C_17  and  C_18
REMARK                            x       y       z     vdW  Elec       q    Type
REMARK                         _______ _______ _______ _____ _____    ______ ____
ROOT
ATOM      1  O   UNL     1       2.264   7.150  17.951  0.00  0.00    +0.000 OA
ATOM      2  C   UNL     1       2.118   7.507  19.113  0.00  0.00    +0.000 C 
ATOM      3  N   UNL     1       2.146   6.689  20.223  0.00  0.00    +0.000 N 
ATOM      4  N   UNL     1       1.797   8.807  19.467  0.00  0.00    +0.000 N 
ATOM      5  H   UNL     1       1.583   7.033  20.985  0.00  0.00    +0.000 HD
ATOM      6  H   UNL     1       2.101   9.115  20.380  0.00  0.00    +0.000 HD
ENDROOT
BRANCH   3   7
ATOM      7  C   UNL     1       2.305   5.287  20.150  0.00  0.00    +0.000 A 
ATOM      8  C   UNL     1       1.268   4.391  20.458  0.00  0.00    +0.000 A 
ATOM      9  C   UNL     1       1.472   3.008  20.425  0.00  0.00    +0.000 A 
ATOM     10  C   UNL     1       2.721   2.467  20.106  0.00  0.00    +0.000 A 
ATOM     11  C   UNL     1       3.736   3.371  19.771  0.00  0.00    +0.000 A 
ATOM     12  N   UNL     1       5.048   3.173  19.434  0.00  0.00    +0.000 N 
ATOM     13  N   UNL     1       5.723   4.306  19.173  0.00  0.00    +0.000 NA
ATOM     14  C   UNL     1       4.816   5.263  19.385  0.00  0.00    +0.000 A 
ATOM     15  C   UNL     1       3.551   4.753  19.767  0.00  0.00    +0.000 A 
ATOM     16  H   UNL     1       5.545   2.292  19.371  0.00  0.00    +0.000 HD
ENDBRANCH   3   7
BRANCH   4  17
ATOM     17  C   UNL     1       1.585   9.809  18.434  0.00  0.00    +0.000 C 
ATOM     18  C   UNL     1       0.340   9.498  17.603  0.00  0.00    +0.000 C 
ATOM     19  C   UNL     1      -0.825  10.074  18.405  0.00  0.00    +0.000 C 
ATOM     20  C   UNL     1      -0.242  11.228  19.245  0.00  0.00    +0.000 C 
ATOM     21  C   UNL     1       1.276  11.192  19.002  0.00  0.00    +0.000 C 
BRANCH  20  22
ATOM     22  C   UNL     1      -0.643  11.318  20.706  0.00  0.00    +0.000 A 
ATOM     23  C   UNL     1      -0.239  10.414  21.698  0.00  0.00    +0.000 A 
ATOM     24  C   UNL     1      -0.805  10.455  22.979  0.00  0.00    +0.000 A 
ATOM     25  C   UNL     1      -1.768  11.412  23.297  0.00  0.00    +0.000 A 
ATOM     26  C   UNL     1      -2.122  12.366  22.350  0.00  0.00    +0.000 A 
ATOM     27  C   UNL     1      -1.552  12.322  21.081  0.00  0.00    +0.000 A 
ATOM     28  F   UNL     1      -1.917  13.253  20.187  0.00  0.00    +0.000 F 
ENDBRANCH  20  22
ENDBRANCH   4  17
TORSDOF 3
ENDMDL
MODEL 2
REMARK VINA RESULT:      -8.6      2.350      3.854
REMARK  Name = 
REMARK  3 active torsions:
REMARK  status: ('A' for Active; 'I' for Inactive)
REMARK    1  A    between atoms: N_3  and  C_4
REMARK    2  A    between atoms: N_13  and  C_14
REMARK    3  A    between atoms: C_17  and  C_18
REMARK                            x       y       z     vdW  Elec       q    Type
REMARK                         _______ _______ _______ _____ _____    ______ ____
ROOT
ATOM      1  O   UNL     1       2.266   7.725  20.212  0.00  0.00    +0.000 OA
ATOM      2  C   UNL     1       1.947   8.159  19.113  0.00  0.00    +0.000 C 
ATOM      3  N   UNL     1       2.357   7.660  17.894  0.00  0.00    +0.000 N 
ATOM      4  N   UNL     1       1.189   9.306  18.946  0.00  0.00    +0.000 N 
ATOM      5  H   UNL     1       2.389   8.359  17.169  0.00  0.00    +0.000 HD
ATOM      6  H   UNL     1       0.631   9.360  18.105  0.00  0.00    +0.000 HD
ENDROOT
BRANCH   3   7
ATOM      7  C   UNL     1       3.260   6.583  17.761  0.00  0.00    +0.000 A 
ATOM      8  C   UNL     1       4.646   6.769  17.624  0.00  0.00    +0.000 A 
ATOM      9  C   UNL     1       5.509   5.683  17.442  0.00  0.00    +0.000 A 
ATOM     10  C   UNL     1       5.022   4.376  17.368  0.00  0.00    +0.000 A 
ATOM     11  C   UNL     1       3.643   4.202  17.536  0.00  0.00    +0.000 A 
ATOM     12  N   UNL     1       2.863   3.078  17.501  0.00  0.00    +0.000 N 
ATOM     13  N   UNL     1       1.556   3.313  17.711  0.00  0.00    +0.000 NA
ATOM     14  C   UNL     1       1.498   4.640  17.851  0.00  0.00    +0.000 A 
ATOM     15  C   UNL     1       2.765   5.264  17.747  0.00  0.00    +0.000 A 
ATOM     16  H   UNL     1       3.159   2.124  17.332  0.00  0.00    +0.000 HD
ENDBRANCH   3   7
BRANCH   4  17
ATOM     17  C   UNL     1       0.763  10.069  20.110  0.00  0.00    +0.000 C 
ATOM     18  C   UNL     1       1.121  11.548  19.967  0.00  0.00    +0.000 C 
ATOM     19  C   UNL     1      -0.017  12.154  19.149  0.00  0.00    +0.000 C 
ATOM     20  C   UNL     1      -1.255  11.274  19.414  0.00  0.00    +0.000 C 
ATOM     21  C   UNL     1      -0.755  10.102  20.275  0.00  0.00    +0.000 C 
BRANCH  20  22
ATOM     22  C   UNL     1      -2.105  10.864  18.225  0.00  0.00    +0.000 A 
ATOM     23  C   UNL     1      -1.669  10.026  17.190  0.00  0.00    +0.000 A 
ATOM     24  C   UNL     1      -2.444   9.851  16.035  0.00  0.00    +0.000 A 
ATOM     25  C   UNL     1      -3.675  10.491  15.905  0.00  0.00    +0.000 A 
ATOM     26  C   UNL     1      -4.159  11.263  16.956  0.00  0.00    +0.000 A 
ATOM     27  C   UNL     1      -3.385  11.429  18.102  0.00  0.00    +0.000 A 
ATOM     28  F   UNL     1      -3.876  12.182  19.097  0.00  0.00    +0.000 F 
ENDBRANCH  20  22
ENDBRANCH   4  17
TORSDOF 3
ENDMDL
MODEL 3
REMARK VINA RESULT:      -8.4      3.337      8.127
REMARK  Name = 
REMARK  3 active torsions:
REMARK  status: ('A' for Active; 'I' for Inactive)
REMARK    1  A    between atoms: N_3  and  C_4
REMARK    2  A    between atoms: N_13  and  C_14
REMARK    3  A    between atoms: C_17  and  C_18
REMARK                            x       y       z     vdW  Elec       q    Type
REMARK                         _______ _______ _______ _____ _____    ______ ____
ROOT
ATOM      1  O   UNL     1       0.659   5.842  20.848  0.00  0.00    +0.000 OA
ATOM      2  C   UNL     1       1.783   6.294  20.672  0.00  0.00    +0.000 C 
ATOM      3  N   UNL     1       2.160   7.613  20.817  0.00  0.00    +0.000 N 
ATOM      4  N   UNL     1       2.835   5.531  20.192  0.00  0.00    +0.000 N 
ATOM      5  H   UNL     1       2.932   7.874  20.224  0.00  0.00    +0.000 HD
ATOM      6  H   UNL     1       3.764   5.820  20.466  0.00  0.00    +0.000 HD
ENDROOT
BRANCH   3   7
ATOM      7  C   UNL     1       1.256   8.645  21.152  0.00  0.00    +0.000 A 
ATOM      8  C   UNL     1       0.866   8.912  22.475  0.00  0.00    +0.000 A 
ATOM      9  C   UNL     1      -0.070   9.908  22.768  0.00  0.00    +0.000 A 
ATOM     10  C   UNL     1      -0.670  10.660  21.754  0.00  0.00    +0.000 A 
ATOM     11  C   UNL     1      -0.251  10.404  20.443  0.00  0.00    +0.000 A 
ATOM     12  N   UNL     1      -0.644  10.941  19.247  0.00  0.00    +0.000 N 
ATOM     13  N   UNL     1      -0.001  10.434  18.182  0.00  0.00    +0.000 NA
ATOM     14  C   UNL     1       0.809   9.516  18.716  0.00  0.00    +0.000 A 
ATOM     15  C   UNL     1       0.702   9.437  20.126  0.00  0.00    +0.000 A 
ATOM     16  H   UNL     1      -1.351  11.651  19.090  0.00  0.00    +0.000 HD
ENDBRANCH   3   7
BRANCH   4  17
ATOM     17  C   UNL     1       2.619   4.136  19.843  0.00  0.00    +0.000 C 
ATOM     18  C   UNL     1       1.826   4.004  18.542  0.00  0.00    +0.000 C 
ATOM     19  C   UNL     1       2.866   4.124  17.431  0.00  0.00    +0.000 C 
ATOM     20  C   UNL     1       4.202   3.648  18.035  0.00  0.00    +0.000 C 
ATOM     21  C   UNL     1       3.916   3.395  19.525  0.00  0.00    +0.000 C 
BRANCH  20  22
ATOM     22  C   UNL     1       5.442   4.480  17.765  0.00  0.00    +0.000 A 
ATOM     23  C   UNL     1       6.173   5.159  18.750  0.00  0.00    +0.000 A 
ATOM     24  C   UNL     1       7.188   6.058  18.397  0.00  0.00    +0.000 A 
ATOM     25  C   UNL     1       7.506   6.276  17.057  0.00  0.00    +0.000 A 
ATOM     26  C   UNL     1       6.845   5.552  16.071  0.00  0.00    +0.000 A 
ATOM     27  C   UNL     1       5.840   4.657  16.430  0.00  0.00    +0.000 A 
ATOM     28  F   UNL     1       5.218   3.976  15.456  0.00  0.00    +0.000 F 
ENDBRANCH  20  22
ENDBRANCH   4  17
TORSDOF 3
ENDMDL
MODEL 4
REMARK VINA RESULT:      -8.3      3.377      8.077
REMARK  Name = 
REMARK  3 active torsions:
REMARK  status: ('A' for Active; 'I' for Inactive)
REMARK    1  A    between atoms: N_3  and  C_4
REMARK    2  A    between atoms: N_13  and  C_14
REMARK    3  A    between atoms: C_17  and  C_18
REMARK                            x       y       z     vdW  Elec       q    Type
REMARK                         _______ _______ _______ _____ _____    ______ ____
ROOT
ATOM      1  O   UNL     1       2.293   9.269  17.189  0.00  0.00    +0.000 OA
ATOM      2  C   UNL     1       1.991   8.650  18.201  0.00  0.00    +0.000 C 
ATOM      3  N   UNL     1       1.196   9.113  19.229  0.00  0.00    +0.000 N 
ATOM      4  N   UNL     1       2.505   7.399  18.501  0.00  0.00    +0.000 N 
ATOM      5  H   UNL     1       1.420   8.701  20.121  0.00  0.00    +0.000 HD
ATOM      6  H   UNL     1       1.928   6.799  19.074  0.00  0.00    +0.000 HD
ENDROOT
BRANCH   3   7
ATOM      7  C   UNL     1       0.656  10.417  19.264  0.00  0.00    +0.000 A 
ATOM      8  C   UNL     1       1.157  11.423  20.108  0.00  0.00    +0.000 A 
ATOM      9  C   UNL     1       0.566  12.689  20.156  0.00  0.00    +0.000 A 
ATOM     10  C   UNL     1      -0.558  12.995  19.384  0.00  0.00    +0.000 A 
ATOM     11  C   UNL     1      -1.028  11.994  18.525  0.00  0.00    +0.000 A 
ATOM     12  N   UNL     1      -2.094  11.966  17.667  0.00  0.00    +0.000 N 
ATOM     13  N   UNL     1      -2.228  10.808  16.998  0.00  0.00    +0.000 NA
ATOM     14  C   UNL     1      -1.229  10.059  17.473  0.00  0.00    +0.000 A 
ATOM     15  C   UNL     1      -0.440  10.733  18.436  0.00  0.00    +0.000 A 
ATOM     16  H   UNL     1      -2.771  12.700  17.498  0.00  0.00    +0.000 HD
ENDBRANCH   3   7
BRANCH   4  17
ATOM     17  C   UNL     1       3.474   6.781  17.609  0.00  0.00    +0.000 C 
ATOM     18  C   UNL     1       4.873   6.777  18.225  0.00  0.00    +0.000 C 
ATOM     19  C   UNL     1       4.908   5.543  19.123  0.00  0.00    +0.000 C 
ATOM     20  C   UNL     1       3.893   4.546  18.526  0.00  0.00    +0.000 C 
ATOM     21  C   UNL     1       3.203   5.297  17.375  0.00  0.00    +0.000 C 
BRANCH  20  22
ATOM     22  C   UNL     1       2.943   3.843  19.478  0.00  0.00    +0.000 A 
ATOM     23  C   UNL     1       1.575   4.127  19.588  0.00  0.00    +0.000 A 
ATOM     24  C   UNL     1       0.808   3.571  20.620  0.00  0.00    +0.000 A 
ATOM     25  C   UNL     1       1.389   2.705  21.546  0.00  0.00    +0.000 A 
ATOM     26  C   UNL     1       2.726   2.350  21.405  0.00  0.00    +0.000 A 
ATOM     27  C   UNL     1       3.480   2.904  20.374  0.00  0.00    +0.000 A 
ATOM     28  F   UNL     1       4.769   2.546  20.265  0.00  0.00    +0.000 F 
ENDBRANCH  20  22
ENDBRANCH   4  17
TORSDOF 3
ENDMDL
MODEL 5
REMARK VINA RESULT:      -8.2      2.211      3.499
REMARK  Name = 
REMARK  3 active torsions:
REMARK  status: ('A' for Active; 'I' for Inactive)
REMARK    1  A    between atoms: N_3  and  C_4
REMARK    2  A    between atoms: N_13  and  C_14
REMARK    3  A    between atoms: C_17  and  C_18
REMARK                            x       y       z     vdW  Elec       q    Type
REMARK                         _______ _______ _______ _____ _____    ______ ____
ROOT
ATOM      1  O   UNL     1       1.865   7.614  20.220  0.00  0.00    +0.000 OA
ATOM      2  C   UNL     1       1.804   8.163  19.127  0.00  0.00    +0.000 C 
ATOM      3  N   UNL     1       2.239   7.637  17.929  0.00  0.00    +0.000 N 
ATOM      4  N   UNL     1       1.367   9.467  18.963  0.00  0.00    +0.000 N 
ATOM      5  H   UNL     1       2.530   8.340  17.268  0.00  0.00    +0.000 HD
ATOM      6  H   UNL     1       0.953   9.696  18.070  0.00  0.00    +0.000 HD
ENDROOT
BRANCH   3   7
ATOM      7  C   UNL     1       2.871   6.379  17.818  0.00  0.00    +0.000 A 
ATOM      8  C   UNL     1       2.217   5.173  18.120  0.00  0.00    +0.000 A 
ATOM      9  C   UNL     1       2.886   3.947  18.049  0.00  0.00    +0.000 A 
ATOM     10  C   UNL     1       4.237   3.879  17.697  0.00  0.00    +0.000 A 
ATOM     11  C   UNL     1       4.868   5.085  17.370  0.00  0.00    +0.000 A 
ATOM     12  N   UNL     1       6.160   5.360  17.008  0.00  0.00    +0.000 N 
ATOM     13  N   UNL     1       6.395   6.661  16.766  0.00  0.00    +0.000 NA
ATOM     14  C   UNL     1       5.217   7.240  17.015  0.00  0.00    +0.000 A 
ATOM     15  C   UNL     1       4.217   6.317  17.404  0.00  0.00    +0.000 A 
ATOM     16  H   UNL     1       6.929   4.707  16.915  0.00  0.00    +0.000 HD
ENDBRANCH   3   7
BRANCH   4  17
ATOM     17  C   UNL     1       0.986  10.256  20.125  0.00  0.00    +0.000 C 
ATOM     18  C   UNL     1       1.307  11.736  19.922  0.00  0.00    +0.000 C 
ATOM     19  C   UNL     1       0.117  12.297  19.148  0.00  0.00    +0.000 C 
ATOM     20  C   UNL     1      -1.089  11.403  19.501  0.00  0.00    +0.000 C 
ATOM     21  C   UNL     1      -0.522  10.266  20.368  0.00  0.00    +0.000 C 
BRANCH  20  22
ATOM     22  C   UNL     1      -1.990  10.943  18.370  0.00  0.00    +0.000 A 
ATOM     23  C   UNL     1      -1.597  10.066  17.349  0.00  0.00    +0.000 A 
ATOM     24  C   UNL     1      -2.423   9.842  16.240  0.00  0.00    +0.000 A 
ATOM     25  C   UNL     1      -3.663  10.472  16.142  0.00  0.00    +0.000 A 
ATOM     26  C   UNL     1      -4.102  11.283  17.182  0.00  0.00    +0.000 A 
ATOM     27  C   UNL     1      -3.277  11.497  18.284  0.00  0.00    +0.000 A 
ATOM     28  F   UNL     1      -3.726  12.288  19.270  0.00  0.00    +0.000 F 
ENDBRANCH  20  22
ENDBRANCH   4  17
TORSDOF 3
ENDMDL
MODEL 6
REMARK VINA RESULT:      -8.1      1.883      3.046
REMARK  Name = 
REMARK  3 active torsions:
REMARK  status: ('A' for Active; 'I' for Inactive)
REMARK    1  A    between atoms: N_3  and  C_4
REMARK    2  A    between atoms: N_13  and  C_14
REMARK    3  A    between atoms: C_17  and  C_18
REMARK                            x       y       z     vdW  Elec       q    Type
REMARK                         _______ _______ _______ _____ _____    ______ ____
ROOT
ATOM      1  O   UNL     1       1.522   6.677  20.641  0.00  0.00    +0.000 OA
ATOM      2  C   UNL     1       1.723   7.340  19.631  0.00  0.00    +0.000 C 
ATOM      3  N   UNL     1       2.246   6.873  18.444  0.00  0.00    +0.000 N 
ATOM      4  N   UNL     1       1.538   8.712  19.583  0.00  0.00    +0.000 N 
ATOM      5  H   UNL     1       2.748   7.577  17.926  0.00  0.00    +0.000 HD
ATOM      6  H   UNL     1       1.311   9.105  18.680  0.00  0.00    +0.000 HD
ENDROOT
BRANCH   3   7
ATOM      7  C   UNL     1       2.671   5.539  18.255  0.00  0.00    +0.000 A 
ATOM      8  C   UNL     1       1.825   4.539  17.748  0.00  0.00    +0.000 A 
ATOM      9  C   UNL     1       2.261   3.216  17.621  0.00  0.00    +0.000 A 
ATOM     10  C   UNL     1       3.547   2.837  18.015  0.00  0.00    +0.000 A 
ATOM     11  C   UNL     1       4.389   3.849  18.489  0.00  0.00    +0.000 A 
ATOM     12  N   UNL     1       5.674   3.809  18.961  0.00  0.00    +0.000 N 
ATOM     13  N   UNL     1       6.158   5.006  19.332  0.00  0.00    +0.000 NA
ATOM     14  C   UNL     1       5.132   5.835  19.120  0.00  0.00    +0.000 A 
ATOM     15  C   UNL     1       3.989   5.180  18.599  0.00  0.00    +0.000 A 
ATOM     16  H   UNL     1       6.271   2.996  19.062  0.00  0.00    +0.000 HD
ENDBRANCH   3   7
BRANCH   4  17
ATOM     17  C   UNL     1       1.118   9.430  20.776  0.00  0.00    +0.000 C 
ATOM     18  C   UNL     1       1.628  10.871  20.767  0.00  0.00    +0.000 C 
ATOM     19  C   UNL     1       0.609  11.648  19.937  0.00  0.00    +0.000 C 
ATOM     20  C   UNL     1      -0.724  10.883  20.065  0.00  0.00    +0.000 C 
ATOM     21  C   UNL     1      -0.397   9.608  20.859  0.00  0.00    +0.000 C 
BRANCH  20  22
ATOM     22  C   UNL     1      -1.534  10.648  18.802  0.00  0.00    +0.000 A 
ATOM     23  C   UNL     1      -1.161   9.775  17.772  0.00  0.00    +0.000 A 
ATOM     24  C   UNL     1      -1.861   9.758  16.558  0.00  0.00    +0.000 A 
ATOM     25  C   UNL     1      -2.957  10.597  16.362  0.00  0.00    +0.000 A 
ATOM     26  C   UNL     1      -3.389  11.412  17.402  0.00  0.00    +0.000 A 
ATOM     27  C   UNL     1      -2.691  11.420  18.607  0.00  0.00    +0.000 A 
ATOM     28  F   UNL     1      -3.129  12.220  19.590  0.00  0.00    +0.000 F 
ENDBRANCH  20  22
ENDBRANCH   4  17
TORSDOF 3
ENDMDL
MODEL 7
REMARK VINA RESULT:      -8.1      3.458      8.286
REMARK  Name = 
REMARK  3 active torsions:
REMARK  status: ('A' for Active; 'I' for Inactive)
REMARK    1  A    between atoms: N_3  and  C_4
REMARK    2  A    between atoms: N_13  and  C_14
REMARK    3  A    between atoms: C_17  and  C_18
REMARK                            x       y       z     vdW  Elec       q    Type
REMARK                         _______ _______ _______ _____ _____    ______ ____
ROOT
ATOM      1  O   UNL     1       0.656   6.104  20.497  0.00  0.00    +0.000 OA
ATOM      2  C   UNL     1       1.781   6.576  20.385  0.00  0.00    +0.000 C 
ATOM      3  N   UNL     1       2.093   7.916  20.297  0.00  0.00    +0.000 N 
ATOM      4  N   UNL     1       2.912   5.794  20.225  0.00  0.00    +0.000 N 
ATOM      5  H   UNL     1       2.936   8.094  19.774  0.00  0.00    +0.000 HD
ATOM      6  H   UNL     1       3.783   6.186  20.557  0.00  0.00    +0.000 HD
ENDROOT
BRANCH   3   7
ATOM      7  C   UNL     1       1.121   8.940  20.279  0.00  0.00    +0.000 A 
ATOM      8  C   UNL     1       0.667   9.532  19.088  0.00  0.00    +0.000 A 
ATOM      9  C   UNL     1      -0.259  10.580  19.107  0.00  0.00    +0.000 A 
ATOM     10  C   UNL     1      -0.750  11.091  20.312  0.00  0.00    +0.000 A 
ATOM     11  C   UNL     1      -0.313  10.472  21.488  0.00  0.00    +0.000 A 
ATOM     12  N   UNL     1      -0.583  10.737  22.804  0.00  0.00    +0.000 N 
ATOM     13  N   UNL     1       0.033   9.911  23.666  0.00  0.00    +0.000 NA
ATOM     14  C   UNL     1       0.750   9.111  22.872  0.00  0.00    +0.000 A 
ATOM     15  C   UNL     1       0.588   9.407  21.496  0.00  0.00    +0.000 A 
ATOM     16  H   UNL     1      -1.174  11.470  23.179  0.00  0.00    +0.000 HD
ENDBRANCH   3   7
BRANCH   4  17
ATOM     17  C   UNL     1       2.789   4.346  20.152  0.00  0.00    +0.000 C 
ATOM     18  C   UNL     1       1.992   3.916  18.921  0.00  0.00    +0.000 C 
ATOM     19  C   UNL     1       3.007   3.890  17.781  0.00  0.00    +0.000 C 
ATOM     20  C   UNL     1       4.380   3.627  18.431  0.00  0.00    +0.000 C 
ATOM     21  C   UNL     1       4.131   3.645  19.949  0.00  0.00    +0.000 C 
BRANCH  20  22
ATOM     22  C   UNL     1       5.557   4.472  17.977  0.00  0.00    +0.000 A 
ATOM     23  C   UNL     1       6.266   5.355  18.803  0.00  0.00    +0.000 A 
ATOM     24  C   UNL     1       7.211   6.238  18.263  0.00  0.00    +0.000 A 
ATOM     25  C   UNL     1       7.479   6.238  16.895  0.00  0.00    +0.000 A 
ATOM     26  C   UNL     1       6.843   5.314  16.073  0.00  0.00    +0.000 A 
ATOM     27  C   UNL     1       5.908   4.437  16.618  0.00  0.00    +0.000 A 
ATOM     28  F   UNL     1       5.307   3.560  15.799  0.00  0.00    +0.000 F 
ENDBRANCH  20  22
ENDBRANCH   4  17
TORSDOF 3
ENDMDL
MODEL 8
REMARK VINA RESULT:      -8.1      2.951      7.822
REMARK  Name = 
REMARK  3 active torsions:
REMARK  status: ('A' for Active; 'I' for Inactive)
REMARK    1  A    between atoms: N_3  and  C_4
REMARK    2  A    between atoms: N_13  and  C_14
REMARK    3  A    between atoms: C_17  and  C_18
REMARK                            x       y       z     vdW  Elec       q    Type
REMARK                         _______ _______ _______ _____ _____    ______ ____
ROOT
ATOM      1  O   UNL     1       0.873   5.238  20.413  0.00  0.00    +0.000 OA
ATOM      2  C   UNL     1       2.031   5.635  20.417  0.00  0.00    +0.000 C 
ATOM      3  N   UNL     1       2.439   6.947  20.528  0.00  0.00    +0.000 N 
ATOM      4  N   UNL     1       3.114   4.798  20.202  0.00  0.00    +0.000 N 
ATOM      5  H   UNL     1       3.319   7.130  20.072  0.00  0.00    +0.000 HD
ATOM      6  H   UNL     1       3.990   5.076  20.622  0.00  0.00    +0.000 HD
ENDROOT
BRANCH   3   7
ATOM      7  C   UNL     1       1.541   8.035  20.607  0.00  0.00    +0.000 A 
ATOM      8  C   UNL     1       0.742   8.277  21.737  0.00  0.00    +0.000 A 
ATOM      9  C   UNL     1      -0.174   9.333  21.764  0.00  0.00    +0.000 A 
ATOM     10  C   UNL     1      -0.345  10.172  20.659  0.00  0.00    +0.000 A 
ATOM     11  C   UNL     1       0.479   9.938  19.552  0.00  0.00    +0.000 A 
ATOM     12  N   UNL     1       0.550  10.555  18.332  0.00  0.00    +0.000 N 
ATOM     13  N   UNL     1       1.484  10.042  17.514  0.00  0.00    +0.000 NA
ATOM     14  C   UNL     1       2.005   9.040  18.227  0.00  0.00    +0.000 A 
ATOM     15  C   UNL     1       1.421   8.911  19.510  0.00  0.00    +0.000 A 
ATOM     16  H   UNL     1      -0.015  11.325  17.994  0.00  0.00    +0.000 HD
ENDBRANCH   3   7
BRANCH   4  17
ATOM     17  C   UNL     1       2.896   3.387  19.926  0.00  0.00    +0.000 C 
ATOM     18  C   UNL     1       1.665   3.175  19.046  0.00  0.00    +0.000 C 
ATOM     19  C   UNL     1       2.160   3.381  17.616  0.00  0.00    +0.000 C 
ATOM     20  C   UNL     1       3.662   3.032  17.624  0.00  0.00    +0.000 C 
ATOM     21  C   UNL     1       4.018   2.764  19.096  0.00  0.00    +0.000 C 
BRANCH  20  22
ATOM     22  C   UNL     1       4.615   3.970  16.907  0.00  0.00    +0.000 A 
ATOM     23  C   UNL     1       5.812   3.572  16.297  0.00  0.00    +0.000 A 
ATOM     24  C   UNL     1       6.728   4.523  15.826  0.00  0.00    +0.000 A 
ATOM     25  C   UNL     1       6.453   5.885  15.936  0.00  0.00    +0.000 A 
ATOM     26  C   UNL     1       5.234   6.296  16.466  0.00  0.00    +0.000 A 
ATOM     27  C   UNL     1       4.328   5.345  16.928  0.00  0.00    +0.000 A 
ATOM     28  F   UNL     1       3.163   5.772  17.438  0.00  0.00    +0.000 F 
ENDBRANCH  20  22
ENDBRANCH   4  17
TORSDOF 3
ENDMDL
MODEL 9
REMARK VINA RESULT:      -8.1      3.570      8.497
REMARK  Name = 
REMARK  3 active torsions:
REMARK  status: ('A' for Active; 'I' for Inactive)
REMARK    1  A    between atoms: N_3  and  C_4
REMARK    2  A    between atoms: N_13  and  C_14
REMARK    3  A    between atoms: C_17  and  C_18
REMARK                            x       y       z     vdW  Elec       q    Type
REMARK                         _______ _______ _______ _____ _____    ______ ____
ROOT
ATOM      1  O   UNL     1       0.923   8.100  21.296  0.00  0.00    +0.000 OA
ATOM      2  C   UNL     1       1.445   8.187  20.192  0.00  0.00    +0.000 C 
ATOM      3  N   UNL     1       1.341   9.257  19.328  0.00  0.00    +0.000 N 
ATOM      4  N   UNL     1       2.148   7.147  19.608  0.00  0.00    +0.000 N 
ATOM      5  H   UNL     1       1.423   8.994  18.358  0.00  0.00    +0.000 HD
ATOM      6  H   UNL     1       2.871   7.405  18.949  0.00  0.00    +0.000 HD
ENDROOT
BRANCH   3   7
ATOM      7  C   UNL     1       0.556  10.399  19.598  0.00  0.00    +0.000 A 
ATOM      8  C   UNL     1       0.873  11.311  20.620  0.00  0.00    +0.000 A 
ATOM      9  C   UNL     1       0.047  12.405  20.896  0.00  0.00    +0.000 A 
ATOM     10  C   UNL     1      -1.134  12.620  20.181  0.00  0.00    +0.000 A 
ATOM     11  C   UNL     1      -1.421  11.722  19.146  0.00  0.00    +0.000 A 
ATOM     12  N   UNL     1      -2.483  11.644  18.286  0.00  0.00    +0.000 N 
ATOM     13  N   UNL     1      -2.405  10.626  17.412  0.00  0.00    +0.000 NA
ATOM     14  C   UNL     1      -1.267  10.013  17.750  0.00  0.00    +0.000 A 
ATOM     15  C   UNL     1      -0.601  10.640  18.831  0.00  0.00    +0.000 A 
ATOM     16  H   UNL     1      -3.295  12.249  18.248  0.00  0.00    +0.000 HD
ENDBRANCH   3   7
BRANCH   4  17
ATOM     17  C   UNL     1       2.263   5.871  20.297  0.00  0.00    +0.000 C 
ATOM     18  C   UNL     1       1.237   4.864  19.779  0.00  0.00    +0.000 C 
ATOM     19  C   UNL     1       1.876   4.252  18.534  0.00  0.00    +0.000 C 
ATOM     20  C   UNL     1       3.401   4.367  18.730  0.00  0.00    +0.000 C 
ATOM     21  C   UNL     1       3.593   5.169  20.029  0.00  0.00    +0.000 C 
BRANCH  20  22
ATOM     22  C   UNL     1       4.235   4.856  17.560  0.00  0.00    +0.000 A 
ATOM     23  C   UNL     1       4.487   6.204  17.274  0.00  0.00    +0.000 A 
ATOM     24  C   UNL     1       5.102   6.579  16.071  0.00  0.00    +0.000 A 
ATOM     25  C   UNL     1       5.494   5.613  15.146  0.00  0.00    +0.000 A 
ATOM     26  C   UNL     1       5.323   4.266  15.449  0.00  0.00    +0.000 A 
ATOM     27  C   UNL     1       4.715   3.902  16.648  0.00  0.00    +0.000 A 
ATOM     28  F   UNL     1       4.559   2.596  16.911  0.00  0.00    +0.000 F 
ENDBRANCH  20  22
ENDBRANCH   4  17
TORSDOF 3
ENDMDL
