MODEL 1
REMARK VINA RESULT:      -5.4      0.000      0.000
REMARK  Name = 
REMARK  6 active torsions:
REMARK  status: ('A' for Active; 'I' for Inactive)
REMARK    1  A    between atoms: C_1  and  N_2
REMARK    2  A    between atoms: N_2  and  C_3
REMARK    3  A    between atoms: N_2  and  P_4
REMARK    4  A    between atoms: P_4  and  C_6
REMARK    5  A    between atoms: P_4  and  N_19
REMARK    6  A    between atoms: N_7  and  C_8
REMARK                            x       y       z     vdW  Elec       q    Type
REMARK                         _______ _______ _______ _____ _____    ______ ____
ROOT
ATOM      1  C   UNL     1      -0.186  12.628  20.271  0.00  0.00    +0.000 C 
ATOM      2  N   UNL     1      -0.932  12.843  19.224  0.00  0.00    +0.000 NA
ATOM      3  N   UNL     1      -0.055  11.549  21.133  0.00  0.00    +0.000 N 
ATOM      4  C   UNL     1       1.137  10.737  21.260  0.00  0.00    +0.000 C 
ATOM      5  C   UNL     1       0.543   9.375  21.633  0.00  0.00    +0.000 C 
ATOM      6  C   UNL     1      -0.582   9.755  22.587  0.00  0.00    +0.000 C 
ATOM      7  C   UNL     1      -1.052  11.138  22.108  0.00  0.00    +0.000 C 
ENDROOT
BRANCH   2   8
ATOM      8  C   UNL     1      -1.779  11.846  18.687  0.00  0.00    +0.000 A 
ATOM      9  C   UNL     1      -3.159  11.963  18.833  0.00  0.00    +0.000 A 
ATOM     10  C   UNL     1      -4.018  11.013  18.247  0.00  0.00    +0.000 A 
ATOM     11  C   UNL     1      -3.490   9.920  17.545  0.00  0.00    +0.000 A 
ATOM     12  C   UNL     1      -2.121   9.800  17.394  0.00  0.00    +0.000 A 
ATOM     13  C   UNL     1      -1.287  10.774  17.939  0.00  0.00    +0.000 A 
ENDBRANCH   2   8
BRANCH   1  14
ATOM     14  P   UNL     1       0.849  14.424  20.734  0.00  0.00    +0.000 P 
ATOM     15  O   UNL     1       1.599  14.125  22.058  0.00  0.00    +0.000 OA
BRANCH  14  16
ATOM     16  N   UNL     1       2.295  13.914  19.830  0.00  0.00    +0.000 NA
ATOM     17  C   UNL     1       3.596  14.334  20.367  0.00  0.00    +0.000 C 
ATOM     18  C   UNL     1       3.778  15.730  19.814  0.00  0.00    +0.000 C 
ATOM     19  C   UNL     1       3.270  15.592  18.393  0.00  0.00    +0.000 C 
ATOM     20  C   UNL     1       2.287  14.427  18.445  0.00  0.00    +0.000 C 
ENDBRANCH  14  16
BRANCH  14  22
ATOM     21  C   UNL     1      -1.571  15.762  20.960  0.00  0.00    +0.000 C 
ATOM     22  N   UNL     1      -0.597  14.935  21.639  0.00  0.00    +0.000 NA
ATOM     23  C   UNL     1      -0.835  14.647  23.032  0.00  0.00    +0.000 C 
ENDBRANCH  14  22
ENDBRANCH   1  14
TORSDOF 4
ENDMDL
MODEL 2
REMARK VINA RESULT:      -5.3      0.076      1.003
REMARK  Name = 
REMARK  6 active torsions:
REMARK  status: ('A' for Active; 'I' for Inactive)
REMARK    1  A    between atoms: C_1  and  N_2
REMARK    2  A    between atoms: N_2  and  C_3
REMARK    3  A    between atoms: N_2  and  P_4
REMARK    4  A    between atoms: P_4  and  C_6
REMARK    5  A    between atoms: P_4  and  N_19
REMARK    6  A    between atoms: N_7  and  C_8
REMARK                            x       y       z     vdW  Elec       q    Type
REMARK                         _______ _______ _______ _____ _____    ______ ____
ROOT
ATOM      1  C   UNL     1      -0.163  12.674  20.220  0.00  0.00    +0.000 C 
ATOM      2  N   UNL     1      -0.897  12.909  19.169  0.00  0.00    +0.000 NA
ATOM      3  N   UNL     1      -0.054  11.586  21.074  0.00  0.00    +0.000 N 
ATOM      4  C   UNL     1       1.125  10.757  21.204  0.00  0.00    +0.000 C 
ATOM      5  C   UNL     1       0.510   9.399  21.559  0.00  0.00    +0.000 C 
ATOM      6  C   UNL     1      -0.617   9.786  22.507  0.00  0.00    +0.000 C 
ATOM      7  C   UNL     1      -1.065  11.180  22.037  0.00  0.00    +0.000 C 
ENDROOT
BRANCH   2   8
ATOM      8  C   UNL     1      -1.753  11.928  18.616  0.00  0.00    +0.000 A 
ATOM      9  C   UNL     1      -1.206  10.844  17.934  0.00  0.00    +0.000 A 
ATOM     10  C   UNL     1      -2.041   9.825  17.435  0.00  0.00    +0.000 A 
ATOM     11  C   UNL     1      -3.432   9.912  17.587  0.00  0.00    +0.000 A 
ATOM     12  C   UNL     1      -3.980  10.985  18.265  0.00  0.00    +0.000 A 
ATOM     13  C   UNL     1      -3.138  11.960  18.794  0.00  0.00    +0.000 A 
ENDBRANCH   2   8
BRANCH   1  14
ATOM     14  P   UNL     1       0.892  14.452  20.709  0.00  0.00    +0.000 P 
ATOM     15  O   UNL     1       1.619  14.133  22.041  0.00  0.00    +0.000 OA
BRANCH  14  16
ATOM     16  N   UNL     1       2.342  13.925  19.822  0.00  0.00    +0.000 NA
ATOM     17  C   UNL     1       3.641  14.363  20.351  0.00  0.00    +0.000 C 
ATOM     18  C   UNL     1       3.818  15.747  19.763  0.00  0.00    +0.000 C 
ATOM     19  C   UNL     1       3.315  15.570  18.346  0.00  0.00    +0.000 C 
ATOM     20  C   UNL     1       2.337  14.403  18.424  0.00  0.00    +0.000 C 
ENDBRANCH  14  16
BRANCH  14  22
ATOM     21  C   UNL     1      -1.498  15.845  20.917  0.00  0.00    +0.000 C 
ATOM     22  N   UNL     1      -0.558  14.979  21.596  0.00  0.00    +0.000 NA
ATOM     23  C   UNL     1      -0.831  14.666  22.978  0.00  0.00    +0.000 C 
ENDBRANCH  14  22
ENDBRANCH   1  14
TORSDOF 4
ENDMDL
MODEL 3
REMARK VINA RESULT:      -5.3      6.258     10.170
REMARK  Name = 
REMARK  6 active torsions:
REMARK  status: ('A' for Active; 'I' for Inactive)
REMARK    1  A    between atoms: C_1  and  N_2
REMARK    2  A    between atoms: N_2  and  C_3
REMARK    3  A    between atoms: N_2  and  P_4
REMARK    4  A    between atoms: P_4  and  C_6
REMARK    5  A    between atoms: P_4  and  N_19
REMARK    6  A    between atoms: N_7  and  C_8
REMARK                            x       y       z     vdW  Elec       q    Type
REMARK                         _______ _______ _______ _____ _____    ______ ____
ROOT
ATOM      1  C   UNL     1       8.357  14.839  19.604  0.00  0.00    +0.000 C 
ATOM      2  N   UNL     1       8.481  13.548  19.730  0.00  0.00    +0.000 NA
ATOM      3  N   UNL     1       9.241  15.842  19.232  0.00  0.00    +0.000 N 
ATOM      4  C   UNL     1       9.121  16.640  18.030  0.00  0.00    +0.000 C 
ATOM      5  C   UNL     1      10.589  16.935  17.708  0.00  0.00    +0.000 C 
ATOM      6  C   UNL     1      11.186  17.187  19.087  0.00  0.00    +0.000 C 
ATOM      7  C   UNL     1      10.356  16.310  20.039  0.00  0.00    +0.000 C 
ENDROOT
BRANCH   2   8
ATOM      8  C   UNL     1       9.672  12.870  19.382  0.00  0.00    +0.000 A 
ATOM      9  C   UNL     1       9.903  12.521  18.054  0.00  0.00    +0.000 A 
ATOM     10  C   UNL     1      11.114  11.905  17.682  0.00  0.00    +0.000 A 
ATOM     11  C   UNL     1      12.080  11.602  18.651  0.00  0.00    +0.000 A 
ATOM     12  C   UNL     1      11.857  11.948  19.971  0.00  0.00    +0.000 A 
ATOM     13  C   UNL     1      10.676  12.600  20.315  0.00  0.00    +0.000 A 
ENDBRANCH   2   8
BRANCH   1  14
ATOM     14  P   UNL     1       6.432  15.398  20.306  0.00  0.00    +0.000 P 
ATOM     15  O   UNL     1       6.531  16.922  20.578  0.00  0.00    +0.000 OA
BRANCH  14  16
ATOM     16  N   UNL     1       5.853  15.757  18.661  0.00  0.00    +0.000 NA
ATOM     17  C   UNL     1       4.840  16.813  18.529  0.00  0.00    +0.000 C 
ATOM     18  C   UNL     1       3.536  16.094  18.801  0.00  0.00    +0.000 C 
ATOM     19  C   UNL     1       3.725  14.780  18.071  0.00  0.00    +0.000 C 
ATOM     20  C   UNL     1       5.235  14.575  18.025  0.00  0.00    +0.000 C 
ENDBRANCH  14  16
BRANCH  14  22
ATOM     21  C   UNL     1       6.556  13.821  22.585  0.00  0.00    +0.000 C 
ATOM     22  N   UNL     1       7.010  15.040  21.951  0.00  0.00    +0.000 NA
ATOM     23  C   UNL     1       7.845  15.918  22.735  0.00  0.00    +0.000 C 
ENDBRANCH  14  22
ENDBRANCH   1  14
TORSDOF 4
ENDMDL
MODEL 4
REMARK VINA RESULT:      -5.2      6.246     10.135
REMARK  Name = 
REMARK  6 active torsions:
REMARK  status: ('A' for Active; 'I' for Inactive)
REMARK    1  A    between atoms: C_1  and  N_2
REMARK    2  A    between atoms: N_2  and  C_3
REMARK    3  A    between atoms: N_2  and  P_4
REMARK    4  A    between atoms: P_4  and  C_6
REMARK    5  A    between atoms: P_4  and  N_19
REMARK    6  A    between atoms: N_7  and  C_8
REMARK                            x       y       z     vdW  Elec       q    Type
REMARK                         _______ _______ _______ _____ _____    ______ ____
ROOT
ATOM      1  C   UNL     1       8.323  14.922  19.689  0.00  0.00    +0.000 C 
ATOM      2  N   UNL     1       8.452  13.626  19.699  0.00  0.00    +0.000 NA
ATOM      3  N   UNL     1       9.213  15.960  19.454  0.00  0.00    +0.000 N 
ATOM      4  C   UNL     1       9.142  16.867  18.328  0.00  0.00    +0.000 C 
ATOM      5  C   UNL     1      10.620  17.198  18.104  0.00  0.00    +0.000 C 
ATOM      6  C   UNL     1      11.150  17.322  19.527  0.00  0.00    +0.000 C 
ATOM      7  C   UNL     1      10.286  16.355  20.353  0.00  0.00    +0.000 C 
ENDROOT
BRANCH   2   8
ATOM      8  C   UNL     1       9.665  12.989  19.346  0.00  0.00    +0.000 A 
ATOM      9  C   UNL     1      10.568  12.628  20.342  0.00  0.00    +0.000 A 
ATOM     10  C   UNL     1      11.749  11.934  20.013  0.00  0.00    +0.000 A 
ATOM     11  C   UNL     1      12.044  11.635  18.675  0.00  0.00    +0.000 A 
ATOM     12  C   UNL     1      11.149  11.989  17.682  0.00  0.00    +0.000 A 
ATOM     13  C   UNL     1       9.964  12.632  18.029  0.00  0.00    +0.000 A 
ENDBRANCH   2   8
BRANCH   1  14
ATOM     14  P   UNL     1       6.362  15.403  20.350  0.00  0.00    +0.000 P 
ATOM     15  O   UNL     1       6.405  16.922  20.660  0.00  0.00    +0.000 OA
BRANCH  14  16
ATOM     16  N   UNL     1       5.817  15.783  18.698  0.00  0.00    +0.000 NA
ATOM     17  C   UNL     1       4.804  16.837  18.559  0.00  0.00    +0.000 C 
ATOM     18  C   UNL     1       3.497  16.111  18.794  0.00  0.00    +0.000 C 
ATOM     19  C   UNL     1       3.705  14.808  18.050  0.00  0.00    +0.000 C 
ATOM     20  C   UNL     1       5.217  14.608  18.033  0.00  0.00    +0.000 C 
ENDBRANCH  14  16
BRANCH  14  22
ATOM     21  C   UNL     1       6.527  13.749  22.571  0.00  0.00    +0.000 C 
ATOM     22  N   UNL     1       6.907  15.024  22.002  0.00  0.00    +0.000 NA
ATOM     23  C   UNL     1       7.642  15.931  22.850  0.00  0.00    +0.000 C 
ENDBRANCH  14  22
ENDBRANCH   1  14
TORSDOF 4
ENDMDL
MODEL 5
REMARK VINA RESULT:      -5.0      2.840      4.665
REMARK  Name = 
REMARK  6 active torsions:
REMARK  status: ('A' for Active; 'I' for Inactive)
REMARK    1  A    between atoms: C_1  and  N_2
REMARK    2  A    between atoms: N_2  and  C_3
REMARK    3  A    between atoms: N_2  and  P_4
REMARK    4  A    between atoms: P_4  and  C_6
REMARK    5  A    between atoms: P_4  and  N_19
REMARK    6  A    between atoms: N_7  and  C_8
REMARK                            x       y       z     vdW  Elec       q    Type
REMARK                         _______ _______ _______ _____ _____    ______ ____
ROOT
ATOM      1  C   UNL     1      -2.780  12.870  21.170  0.00  0.00    +0.000 C 
ATOM      2  N   UNL     1      -3.528  12.928  20.104  0.00  0.00    +0.000 NA
ATOM      3  N   UNL     1      -3.039  13.069  22.518  0.00  0.00    +0.000 N 
ATOM      4  C   UNL     1      -2.964  12.039  23.532  0.00  0.00    +0.000 C 
ATOM      5  C   UNL     1      -4.028  12.508  24.529  0.00  0.00    +0.000 C 
ATOM      6  C   UNL     1      -3.825  14.018  24.542  0.00  0.00    +0.000 C 
ATOM      7  C   UNL     1      -3.322  14.358  23.129  0.00  0.00    +0.000 C 
ENDROOT
BRANCH   2   8
ATOM      8  C   UNL     1      -4.922  13.155  20.175  0.00  0.00    +0.000 A 
ATOM      9  C   UNL     1      -5.784  12.083  20.394  0.00  0.00    +0.000 A 
ATOM     10  C   UNL     1      -7.168  12.302  20.534  0.00  0.00    +0.000 A 
ATOM     11  C   UNL     1      -7.695  13.596  20.414  0.00  0.00    +0.000 A 
ATOM     12  C   UNL     1      -6.844  14.664  20.199  0.00  0.00    +0.000 A 
ATOM     13  C   UNL     1      -5.473  14.437  20.111  0.00  0.00    +0.000 A 
ENDBRANCH   2   8
BRANCH   1  14
ATOM     14  P   UNL     1      -0.767  12.578  20.559  0.00  0.00    +0.000 P 
ATOM     15  O   UNL     1      -0.007  12.192  21.855  0.00  0.00    +0.000 OA
BRANCH  14  16
ATOM     16  N   UNL     1      -1.037  10.848  20.235  0.00  0.00    +0.000 NA
ATOM     17  C   UNL     1       0.026   9.921  20.647  0.00  0.00    +0.000 C 
ATOM     18  C   UNL     1       1.001   9.957  19.491  0.00  0.00    +0.000 C 
ATOM     19  C   UNL     1       0.084   9.968  18.285  0.00  0.00    +0.000 C 
ATOM     20  C   UNL     1      -1.217  10.580  18.793  0.00  0.00    +0.000 C 
ENDBRANCH  14  16
BRANCH  14  22
ATOM     21  C   UNL     1       0.177  14.675  22.110  0.00  0.00    +0.000 C 
ATOM     22  N   UNL     1      -0.497  14.307  20.884  0.00  0.00    +0.000 NA
ATOM     23  C   UNL     1      -0.969  15.381  20.045  0.00  0.00    +0.000 C 
ENDBRANCH  14  22
ENDBRANCH   1  14
TORSDOF 4
ENDMDL
MODEL 6
REMARK VINA RESULT:      -5.0      2.820      4.612
REMARK  Name = 
REMARK  6 active torsions:
REMARK  status: ('A' for Active; 'I' for Inactive)
REMARK    1  A    between atoms: C_1  and  N_2
REMARK    2  A    between atoms: N_2  and  C_3
REMARK    3  A    between atoms: N_2  and  P_4
REMARK    4  A    between atoms: P_4  and  C_6
REMARK    5  A    between atoms: P_4  and  N_19
REMARK    6  A    between atoms: N_7  and  C_8
REMARK                            x       y       z     vdW  Elec       q    Type
REMARK                         _______ _______ _______ _____ _____    ______ ____
ROOT
ATOM      1  C   UNL     1      -2.788  12.848  21.175  0.00  0.00    +0.000 C 
ATOM      2  N   UNL     1      -3.538  12.890  20.110  0.00  0.00    +0.000 NA
ATOM      3  N   UNL     1      -3.047  13.056  22.523  0.00  0.00    +0.000 N 
ATOM      4  C   UNL     1      -2.962  12.034  23.544  0.00  0.00    +0.000 C 
ATOM      5  C   UNL     1      -4.029  12.502  24.539  0.00  0.00    +0.000 C 
ATOM      6  C   UNL     1      -3.840  14.014  24.539  0.00  0.00    +0.000 C 
ATOM      7  C   UNL     1      -3.342  14.347  23.123  0.00  0.00    +0.000 C 
ENDROOT
BRANCH   2   8
ATOM      8  C   UNL     1      -4.934  13.105  20.181  0.00  0.00    +0.000 A 
ATOM      9  C   UNL     1      -5.438  14.397  20.053  0.00  0.00    +0.000 A 
ATOM     10  C   UNL     1      -6.829  14.619  20.054  0.00  0.00    +0.000 A 
ATOM     11  C   UNL     1      -7.716  13.547  20.225  0.00  0.00    +0.000 A 
ATOM     12  C   UNL     1      -7.221  12.262  20.350  0.00  0.00    +0.000 A 
ATOM     13  C   UNL     1      -5.846  12.054  20.298  0.00  0.00    +0.000 A 
ENDBRANCH   2   8
BRANCH   1  14
ATOM     14  P   UNL     1      -0.773  12.570  20.565  0.00  0.00    +0.000 P 
ATOM     15  O   UNL     1      -0.011  12.188  21.860  0.00  0.00    +0.000 OA
BRANCH  14  16
ATOM     16  N   UNL     1      -1.031  10.839  20.239  0.00  0.00    +0.000 NA
ATOM     17  C   UNL     1       0.039   9.919  20.647  0.00  0.00    +0.000 C 
ATOM     18  C   UNL     1       1.011   9.964  19.488  0.00  0.00    +0.000 C 
ATOM     19  C   UNL     1       0.091   9.970  18.284  0.00  0.00    +0.000 C 
ATOM     20  C   UNL     1      -1.213  10.572  18.797  0.00  0.00    +0.000 C 
ENDBRANCH  14  16
BRANCH  14  22
ATOM     21  C   UNL     1       0.160  14.671  22.117  0.00  0.00    +0.000 C 
ATOM     22  N   UNL     1      -0.514  14.300  20.892  0.00  0.00    +0.000 NA
ATOM     23  C   UNL     1      -0.996  15.373  20.056  0.00  0.00    +0.000 C 
ENDBRANCH  14  22
ENDBRANCH   1  14
TORSDOF 4
ENDMDL
MODEL 7
REMARK VINA RESULT:      -4.9      7.508      9.983
REMARK  Name = 
REMARK  6 active torsions:
REMARK  status: ('A' for Active; 'I' for Inactive)
REMARK    1  A    between atoms: C_1  and  N_2
REMARK    2  A    between atoms: N_2  and  C_3
REMARK    3  A    between atoms: N_2  and  P_4
REMARK    4  A    between atoms: P_4  and  C_6
REMARK    5  A    between atoms: P_4  and  N_19
REMARK    6  A    between atoms: N_7  and  C_8
REMARK                            x       y       z     vdW  Elec       q    Type
REMARK                         _______ _______ _______ _____ _____    ______ ____
ROOT
ATOM      1  C   UNL     1       8.637  14.380  20.357  0.00  0.00    +0.000 C 
ATOM      2  N   UNL     1       8.009  14.644  21.468  0.00  0.00    +0.000 NA
ATOM      3  N   UNL     1       9.527  13.381  19.989  0.00  0.00    +0.000 N 
ATOM      4  C   UNL     1       9.254  12.360  19.000  0.00  0.00    +0.000 C 
ATOM      5  C   UNL     1      10.083  11.186  19.532  0.00  0.00    +0.000 C 
ATOM      6  C   UNL     1      11.354  11.873  20.017  0.00  0.00    +0.000 C 
ATOM      7  C   UNL     1      10.898  13.273  20.461  0.00  0.00    +0.000 C 
ENDROOT
BRANCH   2   8
ATOM      8  C   UNL     1       8.086  13.794  22.596  0.00  0.00    +0.000 A 
ATOM      9  C   UNL     1       8.533  14.304  23.812  0.00  0.00    +0.000 A 
ATOM     10  C   UNL     1       8.553  13.487  24.960  0.00  0.00    +0.000 A 
ATOM     11  C   UNL     1       8.160  12.144  24.879  0.00  0.00    +0.000 A 
ATOM     12  C   UNL     1       7.712  11.633  23.674  0.00  0.00    +0.000 A 
ATOM     13  C   UNL     1       7.653  12.466  22.560  0.00  0.00    +0.000 A 
ENDBRANCH   2   8
BRANCH   1  14
ATOM     14  P   UNL     1       8.271  15.964  18.990  0.00  0.00    +0.000 P 
ATOM     15  O   UNL     1       7.621  17.086  19.841  0.00  0.00    +0.000 OA
BRANCH  14  16
ATOM     16  N   UNL     1       9.866  16.695  19.294  0.00  0.00    +0.000 NA
ATOM     17  C   UNL     1       9.927  18.162  19.334  0.00  0.00    +0.000 C 
ATOM     18  C   UNL     1      10.055  18.555  17.878  0.00  0.00    +0.000 C 
ATOM     19  C   UNL     1      11.021  17.521  17.340  0.00  0.00    +0.000 C 
ATOM     20  C   UNL     1      10.851  16.316  18.260  0.00  0.00    +0.000 C 
ENDBRANCH  14  16
BRANCH  14  22
ATOM     21  C   UNL     1       6.561  14.263  17.619  0.00  0.00    +0.000 C 
ATOM     22  N   UNL     1       6.677  15.233  18.686  0.00  0.00    +0.000 NA
ATOM     23  C   UNL     1       5.465  15.595  19.381  0.00  0.00    +0.000 C 
ENDBRANCH  14  22
ENDBRANCH   1  14
TORSDOF 4
ENDMDL
MODEL 8
REMARK VINA RESULT:      -4.9      1.676      1.965
REMARK  Name = 
REMARK  6 active torsions:
REMARK  status: ('A' for Active; 'I' for Inactive)
REMARK    1  A    between atoms: C_1  and  N_2
REMARK    2  A    between atoms: N_2  and  C_3
REMARK    3  A    between atoms: N_2  and  P_4
REMARK    4  A    between atoms: P_4  and  C_6
REMARK    5  A    between atoms: P_4  and  N_19
REMARK    6  A    between atoms: N_7  and  C_8
REMARK                            x       y       z     vdW  Elec       q    Type
REMARK                         _______ _______ _______ _____ _____    ______ ____
ROOT
ATOM      1  C   UNL     1      -0.482  12.439  19.509  0.00  0.00    +0.000 C 
ATOM      2  N   UNL     1      -1.682  12.707  19.077  0.00  0.00    +0.000 NA
ATOM      3  N   UNL     1       0.355  11.343  19.357  0.00  0.00    +0.000 N 
ATOM      4  C   UNL     1       1.614  11.362  18.642  0.00  0.00    +0.000 C 
ATOM      5  C   UNL     1       1.687   9.928  18.107  0.00  0.00    +0.000 C 
ATOM      6  C   UNL     1       1.149   9.112  19.275  0.00  0.00    +0.000 C 
ATOM      7  C   UNL     1       0.146  10.044  19.976  0.00  0.00    +0.000 C 
ENDROOT
BRANCH   2   8
ATOM      8  C   UNL     1      -2.377  11.839  18.203  0.00  0.00    +0.000 A 
ATOM      9  C   UNL     1      -3.713  11.534  18.455  0.00  0.00    +0.000 A 
ATOM     10  C   UNL     1      -4.437  10.725  17.558  0.00  0.00    +0.000 A 
ATOM     11  C   UNL     1      -3.810  10.187  16.425  0.00  0.00    +0.000 A 
ATOM     12  C   UNL     1      -2.485  10.489  16.169  0.00  0.00    +0.000 A 
ATOM     13  C   UNL     1      -1.796  11.329  17.039  0.00  0.00    +0.000 A 
ENDBRANCH   2   8
BRANCH   1  14
ATOM     14  P   UNL     1       0.114  13.990  20.832  0.00  0.00    +0.000 P 
ATOM     15  O   UNL     1       1.289  13.391  21.647  0.00  0.00    +0.000 OA
BRANCH  14  16
ATOM     16  N   UNL     1       1.289  14.638  19.664  0.00  0.00    +0.000 NA
ATOM     17  C   UNL     1       2.562  15.133  20.207  0.00  0.00    +0.000 C 
ATOM     18  C   UNL     1       2.243  16.551  20.631  0.00  0.00    +0.000 C 
ATOM     19  C   UNL     1       1.370  17.047  19.497  0.00  0.00    +0.000 C 
ATOM     20  C   UNL     1       0.742  15.786  18.912  0.00  0.00    +0.000 C 
ENDBRANCH  14  16
BRANCH  14  22
ATOM     21  C   UNL     1      -2.252  14.116  22.276  0.00  0.00    +0.000 C 
ATOM     22  N   UNL     1      -1.062  13.341  22.002  0.00  0.00    +0.000 NA
ATOM     23  C   UNL     1      -0.878  12.125  22.758  0.00  0.00    +0.000 C 
ENDBRANCH  14  22
ENDBRANCH   1  14
TORSDOF 4
ENDMDL
MODEL 9
REMARK VINA RESULT:      -4.9      6.564     10.634
REMARK  Name = 
REMARK  6 active torsions:
REMARK  status: ('A' for Active; 'I' for Inactive)
REMARK    1  A    between atoms: C_1  and  N_2
REMARK    2  A    between atoms: N_2  and  C_3
REMARK    3  A    between atoms: N_2  and  P_4
REMARK    4  A    between atoms: P_4  and  C_6
REMARK    5  A    between atoms: P_4  and  N_19
REMARK    6  A    between atoms: N_7  and  C_8
REMARK                            x       y       z     vdW  Elec       q    Type
REMARK                         _______ _______ _______ _____ _____    ______ ____
ROOT
ATOM      1  C   UNL     1       8.907  15.374  19.697  0.00  0.00    +0.000 C 
ATOM      2  N   UNL     1       8.928  14.102  19.980  0.00  0.00    +0.000 NA
ATOM      3  N   UNL     1       9.774  16.202  18.999  0.00  0.00    +0.000 N 
ATOM      4  C   UNL     1       9.457  16.859  17.749  0.00  0.00    +0.000 C 
ATOM      5  C   UNL     1      10.831  16.921  17.075  0.00  0.00    +0.000 C 
ATOM      6  C   UNL     1      11.755  17.256  18.239  0.00  0.00    +0.000 C 
ATOM      7  C   UNL     1      11.087  16.615  19.467  0.00  0.00    +0.000 C 
ENDROOT
BRANCH   2   8
ATOM      8  C   UNL     1       9.932  13.239  19.485  0.00  0.00    +0.000 A 
ATOM      9  C   UNL     1      10.939  12.793  20.338  0.00  0.00    +0.000 A 
ATOM     10  C   UNL     1      11.908  11.881  19.877  0.00  0.00    +0.000 A 
ATOM     11  C   UNL     1      11.890  11.443  18.545  0.00  0.00    +0.000 A 
ATOM     12  C   UNL     1      10.892  11.880  17.695  0.00  0.00    +0.000 A 
ATOM     13  C   UNL     1       9.913  12.744  18.178  0.00  0.00    +0.000 A 
ENDBRANCH   2   8
BRANCH   1  14
ATOM     14  P   UNL     1       7.263  16.258  20.712  0.00  0.00    +0.000 P 
ATOM     15  O   UNL     1       7.337  17.766  20.357  0.00  0.00    +0.000 OA
BRANCH  14  16
ATOM     16  N   UNL     1       6.177  16.012  19.324  0.00  0.00    +0.000 NA
ATOM     17  C   UNL     1       5.296  17.132  18.964  0.00  0.00    +0.000 C 
ATOM     18  C   UNL     1       4.109  16.965  19.887  0.00  0.00    +0.000 C 
ATOM     19  C   UNL     1       3.890  15.467  19.877  0.00  0.00    +0.000 C 
ATOM     20  C   UNL     1       5.256  14.878  19.540  0.00  0.00    +0.000 C 
ENDBRANCH  14  16
BRANCH  14  22
ATOM     21  C   UNL     1       9.017  17.782  22.228  0.00  0.00    +0.000 C 
ATOM     22  N   UNL     1       8.350  16.504  22.100  0.00  0.00    +0.000 NA
ATOM     23  C   UNL     1       8.676  15.491  23.075  0.00  0.00    +0.000 C 
ENDBRANCH  14  22
ENDBRANCH   1  14
TORSDOF 4
ENDMDL
