MODEL 1
REMARK VINA RESULT:      -7.5      0.000      0.000
REMARK  Name = 
REMARK  5 active torsions:
REMARK  status: ('A' for Active; 'I' for Inactive)
REMARK    1  A    between atoms: C_2  and  C_3
REMARK    2  A    between atoms: C_3  and  S_4
REMARK    3  A    between atoms: S_4  and  C_5
REMARK    4  A    between atoms: N_14  and  C_15
REMARK    5  A    between atoms: C_15  and  C_16
REMARK                            x       y       z     vdW  Elec       q    Type
REMARK                         _______ _______ _______ _____ _____    ______ ____
ROOT
ATOM      1  C   UNL     1       7.697   6.118  18.789  0.00  0.00    +0.000 C 
ENDROOT
BRANCH   1   3
ATOM      2  O   UNL     1       7.519   7.548  16.854  0.00  0.00    +0.000 OA
ATOM      3  C   UNL     1       7.897   7.419  18.022  0.00  0.00    +0.000 C 
ATOM      4  N   UNL     1       8.505   8.423  18.736  0.00  0.00    +0.000 N 
ATOM      5  H   UNL     1       8.985   8.189  19.608  0.00  0.00    +0.000 HD
BRANCH   4   6
ATOM      6  C   UNL     1       8.649   9.771  18.216  0.00  0.00    +0.000 C 
BRANCH   6   7
ATOM      7  C   UNL     1       9.635  10.656  18.983  0.00  0.00    +0.000 C 
ATOM      8  C   UNL     1       9.438  10.723  20.489  0.00  0.00    +0.000 C 
ATOM      9  C   UNL     1      10.138  12.016  20.828  0.00  0.00    +0.000 C 
ATOM     10  C   UNL     1       9.816  12.872  19.625  0.00  0.00    +0.000 C 
ATOM     11  O   UNL     1       9.594  12.011  18.506  0.00  0.00    +0.000 OA
ENDBRANCH   6   7
ENDBRANCH   4   6
ENDBRANCH   1   3
BRANCH   1  12
ATOM     12  S   UNL     1       7.424   4.738  17.648  0.00  0.00    +0.000 S 
BRANCH  12  13
ATOM     13  C   UNL     1       5.773   4.372  17.960  0.00  0.00    +0.000 A 
ATOM     14  N   UNL     1       4.709   4.856  17.364  0.00  0.00    +0.000 NA
ATOM     15  C   UNL     1       3.648   4.282  18.034  0.00  0.00    +0.000 A 
ATOM     16  C   UNL     1       2.266   4.462  17.859  0.00  0.00    +0.000 A 
ATOM     17  C   UNL     1       1.387   3.873  18.785  0.00  0.00    +0.000 A 
ATOM     18  C   UNL     1       1.873   3.095  19.841  0.00  0.00    +0.000 A 
ATOM     19  C   UNL     1       3.244   2.856  19.997  0.00  0.00    +0.000 A 
ATOM     20  C   UNL     1       4.096   3.474  19.078  0.00  0.00    +0.000 A 
ATOM     21  N   UNL     1       5.461   3.511  18.968  0.00  0.00    +0.000 N 
ATOM     22  H   UNL     1       6.132   3.053  19.567  0.00  0.00    +0.000 HD
ENDBRANCH  12  13
ENDBRANCH   1  12
TORSDOF 5
ENDMDL
MODEL 2
REMARK VINA RESULT:      -7.5      4.584      7.876
REMARK  Name = 
REMARK  5 active torsions:
REMARK  status: ('A' for Active; 'I' for Inactive)
REMARK    1  A    between atoms: C_2  and  C_3
REMARK    2  A    between atoms: C_3  and  S_4
REMARK    3  A    between atoms: S_4  and  C_5
REMARK    4  A    between atoms: N_14  and  C_15
REMARK    5  A    between atoms: C_15  and  C_16
REMARK                            x       y       z     vdW  Elec       q    Type
REMARK                         _______ _______ _______ _____ _____    ______ ____
ROOT
ATOM      1  C   UNL     1       4.955   6.362  17.996  0.00  0.00    +0.000 C 
ENDROOT
BRANCH   1   3
ATOM      2  O   UNL     1       2.546   6.329  18.117  0.00  0.00    +0.000 OA
ATOM      3  C   UNL     1       3.594   5.681  18.053  0.00  0.00    +0.000 C 
ATOM      4  N   UNL     1       3.632   4.308  18.008  0.00  0.00    +0.000 N 
ATOM      5  H   UNL     1       4.522   3.832  18.176  0.00  0.00    +0.000 HD
BRANCH   4   6
ATOM      6  C   UNL     1       2.431   3.498  17.909  0.00  0.00    +0.000 C 
BRANCH   6   7
ATOM      7  C   UNL     1       2.032   2.778  19.200  0.00  0.00    +0.000 C 
ATOM      8  C   UNL     1       1.008   3.488  20.070  0.00  0.00    +0.000 C 
ATOM      9  C   UNL     1       1.259   2.850  21.414  0.00  0.00    +0.000 C 
ATOM     10  C   UNL     1       2.758   2.656  21.395  0.00  0.00    +0.000 C 
ATOM     11  O   UNL     1       3.178   2.537  20.033  0.00  0.00    +0.000 OA
ENDBRANCH   6   7
ENDBRANCH   4   6
ENDBRANCH   1   3
BRANCH   1  12
ATOM     12  S   UNL     1       6.281   5.134  17.888  0.00  0.00    +0.000 S 
BRANCH  12  13
ATOM     13  C   UNL     1       6.306   4.823  16.196  0.00  0.00    +0.000 A 
ATOM     14  N   UNL     1       5.559   3.987  15.515  0.00  0.00    +0.000 NA
ATOM     15  C   UNL     1       6.028   4.084  14.220  0.00  0.00    +0.000 A 
ATOM     16  C   UNL     1       5.634   3.390  13.063  0.00  0.00    +0.000 A 
ATOM     17  C   UNL     1       6.384   3.562  11.887  0.00  0.00    +0.000 A 
ATOM     18  C   UNL     1       7.480   4.431  11.855  0.00  0.00    +0.000 A 
ATOM     19  C   UNL     1       7.851   5.175  12.982  0.00  0.00    +0.000 A 
ATOM     20  C   UNL     1       7.104   4.966  14.144  0.00  0.00    +0.000 A 
ATOM     21  N   UNL     1       7.221   5.463  15.416  0.00  0.00    +0.000 N 
ATOM     22  H   UNL     1       7.907   6.123  15.750  0.00  0.00    +0.000 HD
ENDBRANCH  12  13
ENDBRANCH   1  12
TORSDOF 5
ENDMDL
MODEL 3
REMARK VINA RESULT:      -7.5      4.537      7.773
REMARK  Name = 
REMARK  5 active torsions:
REMARK  status: ('A' for Active; 'I' for Inactive)
REMARK    1  A    between atoms: C_2  and  C_3
REMARK    2  A    between atoms: C_3  and  S_4
REMARK    3  A    between atoms: S_4  and  C_5
REMARK    4  A    between atoms: N_14  and  C_15
REMARK    5  A    between atoms: C_15  and  C_16
REMARK                            x       y       z     vdW  Elec       q    Type
REMARK                         _______ _______ _______ _____ _____    ______ ____
ROOT
ATOM      1  C   UNL     1       6.556   4.661  18.722  0.00  0.00    +0.000 C 
ENDROOT
BRANCH   1   3
ATOM      2  O   UNL     1       4.285   5.383  19.096  0.00  0.00    +0.000 OA
ATOM      3  C   UNL     1       5.043   4.486  18.718  0.00  0.00    +0.000 C 
ATOM      4  N   UNL     1       4.602   3.273  18.245  0.00  0.00    +0.000 N 
ATOM      5  H   UNL     1       5.271   2.505  18.157  0.00  0.00    +0.000 HD
BRANCH   4   6
ATOM      6  C   UNL     1       3.195   2.984  18.035  0.00  0.00    +0.000 C 
BRANCH   6   7
ATOM      7  C   UNL     1       2.449   2.482  19.275  0.00  0.00    +0.000 C 
ATOM      8  C   UNL     1       1.270   3.325  19.731  0.00  0.00    +0.000 C 
ATOM      9  C   UNL     1       1.143   2.910  21.176  0.00  0.00    +0.000 C 
ATOM     10  C   UNL     1       2.587   2.712  21.574  0.00  0.00    +0.000 C 
ATOM     11  O   UNL     1       3.335   2.375  20.402  0.00  0.00    +0.000 OA
ENDBRANCH   6   7
ENDBRANCH   4   6
ENDBRANCH   1   3
BRANCH   1  12
ATOM     12  S   UNL     1       7.041   6.063  17.685  0.00  0.00    +0.000 S 
BRANCH  12  13
ATOM     13  C   UNL     1       6.719   5.439  16.114  0.00  0.00    +0.000 A 
ATOM     14  N   UNL     1       5.701   4.709  15.726  0.00  0.00    +0.000 NA
ATOM     15  C   UNL     1       5.962   4.433  14.399  0.00  0.00    +0.000 A 
ATOM     16  C   UNL     1       5.238   3.656  13.479  0.00  0.00    +0.000 A 
ATOM     17  C   UNL     1       5.805   3.403  12.218  0.00  0.00    +0.000 A 
ATOM     18  C   UNL     1       7.049   3.939  11.870  0.00  0.00    +0.000 A 
ATOM     19  C   UNL     1       7.758   4.763  12.752  0.00  0.00    +0.000 A 
ATOM     20  C   UNL     1       7.183   4.979  14.007  0.00  0.00    +0.000 A 
ATOM     21  N   UNL     1       7.616   5.662  15.113  0.00  0.00    +0.000 N 
ATOM     22  H   UNL     1       8.478   6.175  15.212  0.00  0.00    +0.000 HD
ENDBRANCH  12  13
ENDBRANCH   1  12
TORSDOF 5
ENDMDL
MODEL 4
REMARK VINA RESULT:      -7.4      0.855      1.028
REMARK  Name = 
REMARK  5 active torsions:
REMARK  status: ('A' for Active; 'I' for Inactive)
REMARK    1  A    between atoms: C_2  and  C_3
REMARK    2  A    between atoms: C_3  and  S_4
REMARK    3  A    between atoms: S_4  and  C_5
REMARK    4  A    between atoms: N_14  and  C_15
REMARK    5  A    between atoms: C_15  and  C_16
REMARK                            x       y       z     vdW  Elec       q    Type
REMARK                         _______ _______ _______ _____ _____    ______ ____
ROOT
ATOM      1  C   UNL     1       7.778   6.005  18.753  0.00  0.00    +0.000 C 
ENDROOT
BRANCH   1   3
ATOM      2  O   UNL     1       7.348   7.565  16.964  0.00  0.00    +0.000 OA
ATOM      3  C   UNL     1       7.869   7.360  18.064  0.00  0.00    +0.000 C 
ATOM      4  N   UNL     1       8.551   8.322  18.768  0.00  0.00    +0.000 N 
ATOM      5  H   UNL     1       9.138   8.036  19.555  0.00  0.00    +0.000 HD
BRANCH   4   6
ATOM      6  C   UNL     1       8.617   9.707  18.333  0.00  0.00    +0.000 C 
BRANCH   6   7
ATOM      7  C   UNL     1       9.704  10.544  19.013  0.00  0.00    +0.000 C 
ATOM      8  C   UNL     1       9.473  10.872  20.479  0.00  0.00    +0.000 C 
ATOM      9  C   UNL     1      10.353  12.084  20.659  0.00  0.00    +0.000 C 
ATOM     10  C   UNL     1      10.203  12.782  19.328  0.00  0.00    +0.000 C 
ATOM     11  O   UNL     1       9.886  11.801  18.338  0.00  0.00    +0.000 OA
ENDBRANCH   6   7
ENDBRANCH   4   6
ENDBRANCH   1   3
BRANCH   1  12
ATOM     12  S   UNL     1       7.305   4.717  17.572  0.00  0.00    +0.000 S 
BRANCH  12  13
ATOM     13  C   UNL     1       5.650   4.485  17.980  0.00  0.00    +0.000 A 
ATOM     14  N   UNL     1       4.970   5.043  18.953  0.00  0.00    +0.000 NA
ATOM     15  C   UNL     1       3.718   4.467  18.872  0.00  0.00    +0.000 A 
ATOM     16  C   UNL     1       2.586   4.650  19.685  0.00  0.00    +0.000 A 
ATOM     17  C   UNL     1       1.471   3.818  19.483  0.00  0.00    +0.000 A 
ATOM     18  C   UNL     1       1.472   2.849  18.473  0.00  0.00    +0.000 A 
ATOM     19  C   UNL     1       2.568   2.693  17.617  0.00  0.00    +0.000 A 
ATOM     20  C   UNL     1       3.672   3.515  17.855  0.00  0.00    +0.000 A 
ATOM     21  N   UNL     1       4.909   3.590  17.269  0.00  0.00    +0.000 N 
ATOM     22  H   UNL     1       5.252   3.035  16.501  0.00  0.00    +0.000 HD
ENDBRANCH  12  13
ENDBRANCH   1  12
TORSDOF 5
ENDMDL
MODEL 5
REMARK VINA RESULT:      -7.3      4.076      6.546
REMARK  Name = 
REMARK  5 active torsions:
REMARK  status: ('A' for Active; 'I' for Inactive)
REMARK    1  A    between atoms: C_2  and  C_3
REMARK    2  A    between atoms: C_3  and  S_4
REMARK    3  A    between atoms: S_4  and  C_5
REMARK    4  A    between atoms: N_14  and  C_15
REMARK    5  A    between atoms: C_15  and  C_16
REMARK                            x       y       z     vdW  Elec       q    Type
REMARK                         _______ _______ _______ _____ _____    ______ ____
ROOT
ATOM      1  C   UNL     1       6.310   6.248  17.343  0.00  0.00    +0.000 C 
ENDROOT
BRANCH   1   3
ATOM      2  O   UNL     1       5.274   6.665  15.205  0.00  0.00    +0.000 OA
ATOM      3  C   UNL     1       6.141   6.061  15.841  0.00  0.00    +0.000 C 
ATOM      4  N   UNL     1       7.035   5.192  15.263  0.00  0.00    +0.000 N 
ATOM      5  H   UNL     1       7.575   4.566  15.864  0.00  0.00    +0.000 HD
BRANCH   4   6
ATOM      6  C   UNL     1       7.116   4.999  13.825  0.00  0.00    +0.000 C 
BRANCH   6   7
ATOM      7  C   UNL     1       6.397   3.753  13.302  0.00  0.00    +0.000 C 
ATOM      8  C   UNL     1       6.888   3.210  11.970  0.00  0.00    +0.000 C 
ATOM      9  C   UNL     1       5.693   2.413  11.509  0.00  0.00    +0.000 C 
ATOM     10  C   UNL     1       4.542   3.254  12.011  0.00  0.00    +0.000 C 
ATOM     11  O   UNL     1       4.988   3.994  13.149  0.00  0.00    +0.000 OA
ENDBRANCH   6   7
ENDBRANCH   4   6
ENDBRANCH   1   3
BRANCH   1  12
ATOM     12  S   UNL     1       6.735   4.678  18.139  0.00  0.00    +0.000 S 
BRANCH  12  13
ATOM     13  C   UNL     1       5.276   4.329  18.981  0.00  0.00    +0.000 A 
ATOM     14  N   UNL     1       4.925   3.206  19.560  0.00  0.00    +0.000 NA
ATOM     15  C   UNL     1       3.648   3.444  20.026  0.00  0.00    +0.000 A 
ATOM     16  C   UNL     1       2.755   2.587  20.693  0.00  0.00    +0.000 A 
ATOM     17  C   UNL     1       1.441   3.031  20.923  0.00  0.00    +0.000 A 
ATOM     18  C   UNL     1       1.036   4.310  20.528  0.00  0.00    +0.000 A 
ATOM     19  C   UNL     1       1.928   5.198  19.915  0.00  0.00    +0.000 A 
ATOM     20  C   UNL     1       3.219   4.723  19.676  0.00  0.00    +0.000 A 
ATOM     21  N   UNL     1       4.306   5.282  19.055  0.00  0.00    +0.000 N 
ATOM     22  H   UNL     1       4.367   6.203  18.649  0.00  0.00    +0.000 HD
ENDBRANCH  12  13
ENDBRANCH   1  12
TORSDOF 5
ENDMDL
MODEL 6
REMARK VINA RESULT:      -7.3      4.068      6.312
REMARK  Name = 
REMARK  5 active torsions:
REMARK  status: ('A' for Active; 'I' for Inactive)
REMARK    1  A    between atoms: C_2  and  C_3
REMARK    2  A    between atoms: C_3  and  S_4
REMARK    3  A    between atoms: S_4  and  C_5
REMARK    4  A    between atoms: N_14  and  C_15
REMARK    5  A    between atoms: C_15  and  C_16
REMARK                            x       y       z     vdW  Elec       q    Type
REMARK                         _______ _______ _______ _____ _____    ______ ____
ROOT
ATOM      1  C   UNL     1       7.800   4.818  17.944  0.00  0.00    +0.000 C 
ENDROOT
BRANCH   1   3
ATOM      2  O   UNL     1       7.590   6.532  16.260  0.00  0.00    +0.000 OA
ATOM      3  C   UNL     1       7.276   5.400  16.638  0.00  0.00    +0.000 C 
ATOM      4  N   UNL     1       6.454   4.564  15.922  0.00  0.00    +0.000 N 
ATOM      5  H   UNL     1       6.061   3.741  16.384  0.00  0.00    +0.000 HD
BRANCH   4   6
ATOM      6  C   UNL     1       5.976   4.894  14.590  0.00  0.00    +0.000 C 
BRANCH   6   7
ATOM      7  C   UNL     1       5.945   3.720  13.608  0.00  0.00    +0.000 C 
ATOM      8  C   UNL     1       6.972   3.761  12.488  0.00  0.00    +0.000 C 
ATOM      9  C   UNL     1       6.338   2.849  11.465  0.00  0.00    +0.000 C 
ATOM     10  C   UNL     1       4.869   3.156  11.638  0.00  0.00    +0.000 C 
ATOM     11  O   UNL     1       4.658   3.608  12.978  0.00  0.00    +0.000 OA
ENDBRANCH   6   7
ENDBRANCH   4   6
ENDBRANCH   1   3
BRANCH   1  12
ATOM     12  S   UNL     1       6.825   5.415  19.348  0.00  0.00    +0.000 S 
BRANCH  12  13
ATOM     13  C   UNL     1       5.286   4.735  18.996  0.00  0.00    +0.000 A 
ATOM     14  N   UNL     1       4.226   5.337  18.511  0.00  0.00    +0.000 NA
ATOM     15  C   UNL     1       3.256   4.355  18.482  0.00  0.00    +0.000 A 
ATOM     16  C   UNL     1       1.907   4.430  18.095  0.00  0.00    +0.000 A 
ATOM     17  C   UNL     1       1.082   3.312  18.309  0.00  0.00    +0.000 A 
ATOM     18  C   UNL     1       1.597   2.136  18.865  0.00  0.00    +0.000 A 
ATOM     19  C   UNL     1       2.951   2.024  19.202  0.00  0.00    +0.000 A 
ATOM     20  C   UNL     1       3.743   3.157  19.002  0.00  0.00    +0.000 A 
ATOM     21  N   UNL     1       5.061   3.420  19.271  0.00  0.00    +0.000 N 
ATOM     22  H   UNL     1       5.736   2.789  19.674  0.00  0.00    +0.000 HD
ENDBRANCH  12  13
ENDBRANCH   1  12
TORSDOF 5
ENDMDL
MODEL 7
REMARK VINA RESULT:      -7.3      4.283      7.738
REMARK  Name = 
REMARK  5 active torsions:
REMARK  status: ('A' for Active; 'I' for Inactive)
REMARK    1  A    between atoms: C_2  and  C_3
REMARK    2  A    between atoms: C_3  and  S_4
REMARK    3  A    between atoms: S_4  and  C_5
REMARK    4  A    between atoms: N_14  and  C_15
REMARK    5  A    between atoms: C_15  and  C_16
REMARK                            x       y       z     vdW  Elec       q    Type
REMARK                         _______ _______ _______ _____ _____    ______ ____
ROOT
ATOM      1  C   UNL     1       5.602   6.142  18.060  0.00  0.00    +0.000 C 
ENDROOT
BRANCH   1   3
ATOM      2  O   UNL     1       6.340   4.895  19.989  0.00  0.00    +0.000 OA
ATOM      3  C   UNL     1       5.600   4.945  19.002  0.00  0.00    +0.000 C 
ATOM      4  N   UNL     1       4.707   3.954  18.676  0.00  0.00    +0.000 N 
ATOM      5  H   UNL     1       4.289   3.952  17.743  0.00  0.00    +0.000 HD
BRANCH   4   6
ATOM      6  C   UNL     1       4.467   2.807  19.535  0.00  0.00    +0.000 C 
BRANCH   6   7
ATOM      7  C   UNL     1       2.999   2.570  19.897  0.00  0.00    +0.000 C 
ATOM      8  C   UNL     1       2.011   3.610  19.394  0.00  0.00    +0.000 C 
ATOM      9  C   UNL     1       0.850   3.405  20.336  0.00  0.00    +0.000 C 
ATOM     10  C   UNL     1       1.552   3.074  21.632  0.00  0.00    +0.000 C 
ATOM     11  O   UNL     1       2.822   2.496  21.322  0.00  0.00    +0.000 OA
ENDBRANCH   6   7
ENDBRANCH   4   6
ENDBRANCH   1   3
BRANCH   1  12
ATOM     12  S   UNL     1       7.172   6.251  17.166  0.00  0.00    +0.000 S 
BRANCH  12  13
ATOM     13  C   UNL     1       6.761   5.486  15.681  0.00  0.00    +0.000 A 
ATOM     14  N   UNL     1       5.691   4.781  15.403  0.00  0.00    +0.000 NA
ATOM     15  C   UNL     1       5.890   4.353  14.106  0.00  0.00    +0.000 A 
ATOM     16  C   UNL     1       5.092   3.528  13.295  0.00  0.00    +0.000 A 
ATOM     17  C   UNL     1       5.600   3.111  12.052  0.00  0.00    +0.000 A 
ATOM     18  C   UNL     1       6.859   3.533  11.613  0.00  0.00    +0.000 A 
ATOM     19  C   UNL     1       7.643   4.402  12.381  0.00  0.00    +0.000 A 
ATOM     20  C   UNL     1       7.125   4.781  13.622  0.00  0.00    +0.000 A 
ATOM     21  N   UNL     1       7.633   5.550  14.637  0.00  0.00    +0.000 N 
ATOM     22  H   UNL     1       8.526   6.019  14.655  0.00  0.00    +0.000 HD
ENDBRANCH  12  13
ENDBRANCH   1  12
TORSDOF 5
ENDMDL
MODEL 8
REMARK VINA RESULT:      -7.2      4.609      7.853
REMARK  Name = 
REMARK  5 active torsions:
REMARK  status: ('A' for Active; 'I' for Inactive)
REMARK    1  A    between atoms: C_2  and  C_3
REMARK    2  A    between atoms: C_3  and  S_4
REMARK    3  A    between atoms: S_4  and  C_5
REMARK    4  A    between atoms: N_14  and  C_15
REMARK    5  A    between atoms: C_15  and  C_16
REMARK                            x       y       z     vdW  Elec       q    Type
REMARK                         _______ _______ _______ _____ _____    ______ ____
ROOT
ATOM      1  C   UNL     1       6.258   4.817  18.610  0.00  0.00    +0.000 C 
ENDROOT
BRANCH   1   3
ATOM      2  O   UNL     1       3.882   5.229  18.661  0.00  0.00    +0.000 OA
ATOM      3  C   UNL     1       4.793   4.404  18.556  0.00  0.00    +0.000 C 
ATOM      4  N   UNL     1       4.578   3.060  18.363  0.00  0.00    +0.000 N 
ATOM      5  H   UNL     1       5.355   2.411  18.503  0.00  0.00    +0.000 HD
BRANCH   4   6
ATOM      6  C   UNL     1       3.253   2.507  18.145  0.00  0.00    +0.000 C 
BRANCH   6   7
ATOM      7  C   UNL     1       2.461   2.212  19.422  0.00  0.00    +0.000 C 
ATOM      8  C   UNL     1       1.224   3.065  19.652  0.00  0.00    +0.000 C 
ATOM      9  C   UNL     1       1.034   2.926  21.142  0.00  0.00    +0.000 C 
ATOM     10  C   UNL     1       2.461   2.880  21.638  0.00  0.00    +0.000 C 
ATOM     11  O   UNL     1       3.286   2.366  20.589  0.00  0.00    +0.000 OA
ENDBRANCH   6   7
ENDBRANCH   4   6
ENDBRANCH   1   3
BRANCH   1  12
ATOM     12  S   UNL     1       6.557   6.253  17.548  0.00  0.00    +0.000 S 
BRANCH  12  13
ATOM     13  C   UNL     1       6.667   5.506  16.003  0.00  0.00    +0.000 A 
ATOM     14  N   UNL     1       7.601   5.656  15.095  0.00  0.00    +0.000 NA
ATOM     15  C   UNL     1       7.175   4.885  14.032  0.00  0.00    +0.000 A 
ATOM     16  C   UNL     1       7.754   4.695  12.766  0.00  0.00    +0.000 A 
ATOM     17  C   UNL     1       7.032   3.976  11.797  0.00  0.00    +0.000 A 
ATOM     18  C   UNL     1       5.778   3.431  12.094  0.00  0.00    +0.000 A 
ATOM     19  C   UNL     1       5.213   3.561  13.368  0.00  0.00    +0.000 A 
ATOM     20  C   UNL     1       5.939   4.301  14.303  0.00  0.00    +0.000 A 
ATOM     21  N   UNL     1       5.668   4.674  15.594  0.00  0.00    +0.000 N 
ATOM     22  H   UNL     1       4.845   4.450  16.131  0.00  0.00    +0.000 HD
ENDBRANCH  12  13
ENDBRANCH   1  12
TORSDOF 5
ENDMDL
MODEL 9
REMARK VINA RESULT:      -7.2      1.148      1.294
REMARK  Name = 
REMARK  5 active torsions:
REMARK  status: ('A' for Active; 'I' for Inactive)
REMARK    1  A    between atoms: C_2  and  C_3
REMARK    2  A    between atoms: C_3  and  S_4
REMARK    3  A    between atoms: S_4  and  C_5
REMARK    4  A    between atoms: N_14  and  C_15
REMARK    5  A    between atoms: C_15  and  C_16
REMARK                            x       y       z     vdW  Elec       q    Type
REMARK                         _______ _______ _______ _____ _____    ______ ____
ROOT
ATOM      1  C   UNL     1       7.052   6.529  16.933  0.00  0.00    +0.000 C 
ENDROOT
BRANCH   1   3
ATOM      2  O   UNL     1       8.284   6.711  18.999  0.00  0.00    +0.000 OA
ATOM      3  C   UNL     1       7.811   7.286  18.015  0.00  0.00    +0.000 C 
ATOM      4  N   UNL     1       7.940   8.636  17.794  0.00  0.00    +0.000 N 
ATOM      5  H   UNL     1       7.348   9.080  17.088  0.00  0.00    +0.000 HD
BRANCH   4   6
ATOM      6  C   UNL     1       8.751   9.491  18.643  0.00  0.00    +0.000 C 
BRANCH   6   7
ATOM      7  C   UNL     1       9.337  10.721  17.946  0.00  0.00    +0.000 C 
ATOM      8  C   UNL     1      10.414  11.472  18.712  0.00  0.00    +0.000 C 
ATOM      9  C   UNL     1      10.358  12.831  18.059  0.00  0.00    +0.000 C 
ATOM     10  C   UNL     1       8.881  12.984  17.780  0.00  0.00    +0.000 C 
ATOM     11  O   UNL     1       8.311  11.680  17.639  0.00  0.00    +0.000 OA
ENDBRANCH   6   7
ENDBRANCH   4   6
ENDBRANCH   1   3
BRANCH   1  12
ATOM     12  S   UNL     1       7.208   4.741  17.174  0.00  0.00    +0.000 S 
BRANCH  12  13
ATOM     13  C   UNL     1       5.598   4.324  17.610  0.00  0.00    +0.000 A 
ATOM     14  N   UNL     1       4.481   4.682  17.023  0.00  0.00    +0.000 NA
ATOM     15  C   UNL     1       3.488   4.129  17.805  0.00  0.00    +0.000 A 
ATOM     16  C   UNL     1       2.090   4.216  17.686  0.00  0.00    +0.000 A 
ATOM     17  C   UNL     1       1.292   3.684  18.714  0.00  0.00    +0.000 A 
ATOM     18  C   UNL     1       1.872   3.053  19.819  0.00  0.00    +0.000 A 
ATOM     19  C   UNL     1       3.260   2.906  19.927  0.00  0.00    +0.000 A 
ATOM     20  C   UNL     1       4.030   3.464  18.904  0.00  0.00    +0.000 A 
ATOM     21  N   UNL     1       5.385   3.562  18.719  0.00  0.00    +0.000 N 
ATOM     22  H   UNL     1       6.108   3.209  19.326  0.00  0.00    +0.000 HD
ENDBRANCH  12  13
ENDBRANCH   1  12
TORSDOF 5
ENDMDL
