MODEL 1
REMARK VINA RESULT:      -8.8      0.000      0.000
REMARK  Name = 
REMARK  8 active torsions:
REMARK  status: ('A' for Active; 'I' for Inactive)
REMARK    1  A    between atoms: C_1  and  C_2
REMARK    2  A    between atoms: N_4  and  C_5
REMARK    3  A    between atoms: C_8  and  N_9
REMARK    4  A    between atoms: C_10  and  C_12
REMARK    5  A    between atoms: C_12  and  C_13
REMARK    6  A    between atoms: C_15  and  C_16
REMARK    7  A    between atoms: C_23  and  C_24
REMARK    8  A    between atoms: C_27  and  C_28
REMARK                            x       y       z     vdW  Elec       q    Type
REMARK                         _______ _______ _______ _____ _____    ______ ____
ROOT
ATOM      1  C   UNL     1       6.376   5.335  18.048  0.00  0.00    +0.000 A 
ATOM      2  S   UNL     1       5.446   5.328  19.496  0.00  0.00    +0.000 S 
ATOM      3  C   UNL     1       4.251   4.344  18.769  0.00  0.00    +0.000 A 
ATOM      4  N   UNL     1       4.498   4.034  17.513  0.00  0.00    +0.000 NA
ATOM      5  C   UNL     1       5.668   4.650  17.064  0.00  0.00    +0.000 A 
ENDROOT
BRANCH   5   6
ATOM      6  C   UNL     1       6.078   4.487  15.664  0.00  0.00    +0.000 A 
ATOM      7  C   UNL     1       7.263   5.037  15.156  0.00  0.00    +0.000 A 
ATOM      8  C   UNL     1       7.623   4.880  13.813  0.00  0.00    +0.000 A 
ATOM      9  C   UNL     1       6.778   4.210  12.929  0.00  0.00    +0.000 A 
ATOM     10  C   UNL     1       7.133   4.089  11.477  0.00  0.00    +0.000 C 
ATOM     11  C   UNL     1       5.578   3.682  13.415  0.00  0.00    +0.000 A 
ATOM     12  C   UNL     1       5.234   3.817  14.768  0.00  0.00    +0.000 A 
ENDBRANCH   5   6
BRANCH   3  13
ATOM     13  C   UNL     1       3.119   3.859  19.565  0.00  0.00    +0.000 A 
ATOM     14  C   UNL     1       1.817   4.363  19.436  0.00  0.00    +0.000 A 
ATOM     15  C   UNL     1       0.795   3.891  20.259  0.00  0.00    +0.000 A 
ATOM     16  C   UNL     1       1.104   2.918  21.192  0.00  0.00    +0.000 A 
ATOM     17  N   UNL     1       2.338   2.393  21.345  0.00  0.00    +0.000 NA
ATOM     18  C   UNL     1       3.311   2.870  20.525  0.00  0.00    +0.000 A 
ENDBRANCH   3  13
BRANCH   1  19
ATOM     19  C   UNL     1       7.731   5.986  17.998  0.00  0.00    +0.000 C 
BRANCH  19  21
ATOM     20  N   UNL     1       8.669   8.179  18.495  0.00  0.00    +0.000 N 
ATOM     21  C   UNL     1       7.675   7.488  17.813  0.00  0.00    +0.000 C 
ATOM     22  O   UNL     1       6.790   7.976  17.113  0.00  0.00    +0.000 OA
ATOM     23  H   UNL     1       9.369   7.637  18.982  0.00  0.00    +0.000 HD
BRANCH  20  27
ATOM     24  C   UNL     1       9.003  12.385  18.885  0.00  0.00    +0.000 A 
ATOM     25  C   UNL     1       8.404  11.828  17.761  0.00  0.00    +0.000 A 
ATOM     26  C   UNL     1       8.288  10.448  17.623  0.00  0.00    +0.000 A 
ATOM     27  C   UNL     1       8.771   9.587  18.601  0.00  0.00    +0.000 A 
ATOM     28  C   UNL     1       9.362  10.135  19.741  0.00  0.00    +0.000 A 
ATOM     29  C   UNL     1       9.495  11.530  19.874  0.00  0.00    +0.000 A 
BRANCH  24  33
ATOM     30  C   UNL     1      10.083  15.994  18.885  0.00  0.00    +0.000 C 
ATOM     31  C   UNL     1      10.080  14.574  18.387  0.00  0.00    +0.000 C 
ATOM     32  O   UNL     1      10.851  14.232  17.497  0.00  0.00    +0.000 OA
ATOM     33  N   UNL     1       9.149  13.781  19.044  0.00  0.00    +0.000 N 
ATOM     34  H   UNL     1       8.480  14.243  19.644  0.00  0.00    +0.000 HD
ENDBRANCH  24  33
ENDBRANCH  20  27
ENDBRANCH  19  21
ENDBRANCH   1  19
TORSDOF 6
ENDMDL
MODEL 2
REMARK VINA RESULT:      -8.6      0.660      1.160
REMARK  Name = 
REMARK  8 active torsions:
REMARK  status: ('A' for Active; 'I' for Inactive)
REMARK    1  A    between atoms: C_1  and  C_2
REMARK    2  A    between atoms: N_4  and  C_5
REMARK    3  A    between atoms: C_8  and  N_9
REMARK    4  A    between atoms: C_10  and  C_12
REMARK    5  A    between atoms: C_12  and  C_13
REMARK    6  A    between atoms: C_15  and  C_16
REMARK    7  A    between atoms: C_23  and  C_24
REMARK    8  A    between atoms: C_27  and  C_28
REMARK                            x       y       z     vdW  Elec       q    Type
REMARK                         _______ _______ _______ _____ _____    ______ ____
ROOT
ATOM      1  C   UNL     1       6.281   5.397  17.940  0.00  0.00    +0.000 A 
ATOM      2  S   UNL     1       5.268   5.390  19.332  0.00  0.00    +0.000 S 
ATOM      3  C   UNL     1       4.089   4.458  18.516  0.00  0.00    +0.000 A 
ATOM      4  N   UNL     1       4.400   4.166  17.270  0.00  0.00    +0.000 NA
ATOM      5  C   UNL     1       5.611   4.754  16.902  0.00  0.00    +0.000 A 
ENDROOT
BRANCH   5   6
ATOM      6  C   UNL     1       6.098   4.608  15.525  0.00  0.00    +0.000 A 
ATOM      7  C   UNL     1       7.257   5.246  15.062  0.00  0.00    +0.000 A 
ATOM      8  C   UNL     1       7.690   5.102  13.740  0.00  0.00    +0.000 A 
ATOM      9  C   UNL     1       6.943   4.354  12.830  0.00  0.00    +0.000 A 
ATOM     10  C   UNL     1       7.373   4.243  11.397  0.00  0.00    +0.000 C 
ATOM     11  C   UNL     1       5.769   3.736  13.270  0.00  0.00    +0.000 A 
ATOM     12  C   UNL     1       5.353   3.860  14.603  0.00  0.00    +0.000 A 
ENDBRANCH   5   6
BRANCH   3  13
ATOM     13  C   UNL     1       2.899   3.991  19.234  0.00  0.00    +0.000 A 
ATOM     14  C   UNL     1       2.746   4.107  20.623  0.00  0.00    +0.000 A 
ATOM     15  C   UNL     1       1.608   3.598  21.250  0.00  0.00    +0.000 A 
ATOM     16  C   UNL     1       0.648   2.987  20.465  0.00  0.00    +0.000 A 
ATOM     17  N   UNL     1       0.744   2.863  19.125  0.00  0.00    +0.000 NA
ATOM     18  C   UNL     1       1.861   3.374  18.543  0.00  0.00    +0.000 A 
ENDBRANCH   3  13
BRANCH   1  19
ATOM     19  C   UNL     1       7.655   6.008  17.983  0.00  0.00    +0.000 C 
BRANCH  19  21
ATOM     20  N   UNL     1       8.652   8.153  18.568  0.00  0.00    +0.000 N 
ATOM     21  C   UNL     1       7.652   7.517  17.843  0.00  0.00    +0.000 C 
ATOM     22  O   UNL     1       6.800   8.054  17.140  0.00  0.00    +0.000 OA
ATOM     23  H   UNL     1       9.323   7.573  19.053  0.00  0.00    +0.000 HD
BRANCH  20  27
ATOM     24  C   UNL     1       9.068  12.353  18.946  0.00  0.00    +0.000 A 
ATOM     25  C   UNL     1       9.431  11.513  19.992  0.00  0.00    +0.000 A 
ATOM     26  C   UNL     1       9.300  10.132  19.878  0.00  0.00    +0.000 A 
ATOM     27  C   UNL     1       8.798   9.552  18.719  0.00  0.00    +0.000 A 
ATOM     28  C   UNL     1       8.442  10.385  17.656  0.00  0.00    +0.000 A 
ATOM     29  C   UNL     1       8.558  11.783  17.776  0.00  0.00    +0.000 A 
BRANCH  24  33
ATOM     30  C   UNL     1      10.125  15.968  18.970  0.00  0.00    +0.000 C 
ATOM     31  C   UNL     1      10.244  14.517  18.588  0.00  0.00    +0.000 C 
ATOM     32  O   UNL     1      11.216  14.127  17.950  0.00  0.00    +0.000 OA
ATOM     33  N   UNL     1       9.174  13.758  19.040  0.00  0.00    +0.000 N 
ATOM     34  H   UNL     1       8.375  14.251  19.417  0.00  0.00    +0.000 HD
ENDBRANCH  24  33
ENDBRANCH  20  27
ENDBRANCH  19  21
ENDBRANCH   1  19
TORSDOF 6
ENDMDL
MODEL 3
REMARK VINA RESULT:      -8.5      2.136      5.445
REMARK  Name = 
REMARK  8 active torsions:
REMARK  status: ('A' for Active; 'I' for Inactive)
REMARK    1  A    between atoms: C_1  and  C_2
REMARK    2  A    between atoms: N_4  and  C_5
REMARK    3  A    between atoms: C_8  and  N_9
REMARK    4  A    between atoms: C_10  and  C_12
REMARK    5  A    between atoms: C_12  and  C_13
REMARK    6  A    between atoms: C_15  and  C_16
REMARK    7  A    between atoms: C_23  and  C_24
REMARK    8  A    between atoms: C_27  and  C_28
REMARK                            x       y       z     vdW  Elec       q    Type
REMARK                         _______ _______ _______ _____ _____    ______ ____
ROOT
ATOM      1  C   UNL     1       6.663   5.805  17.207  0.00  0.00    +0.000 A 
ATOM      2  S   UNL     1       7.467   5.023  15.901  0.00  0.00    +0.000 S 
ATOM      3  C   UNL     1       5.980   4.747  15.101  0.00  0.00    +0.000 A 
ATOM      4  N   UNL     1       4.926   5.189  15.754  0.00  0.00    +0.000 NA
ATOM      5  C   UNL     1       5.289   5.730  16.989  0.00  0.00    +0.000 A 
ENDROOT
BRANCH   5   6
ATOM      6  C   UNL     1       4.246   6.213  17.902  0.00  0.00    +0.000 A 
ATOM      7  C   UNL     1       3.568   7.423  17.702  0.00  0.00    +0.000 A 
ATOM      8  C   UNL     1       2.588   7.867  18.596  0.00  0.00    +0.000 A 
ATOM      9  C   UNL     1       2.297   7.133  19.746  0.00  0.00    +0.000 A 
ATOM     10  C   UNL     1       1.288   7.634  20.736  0.00  0.00    +0.000 C 
ATOM     11  C   UNL     1       2.987   5.938  19.974  0.00  0.00    +0.000 A 
ATOM     12  C   UNL     1       3.948   5.483  19.061  0.00  0.00    +0.000 A 
ENDBRANCH   5   6
BRANCH   3  13
ATOM     13  C   UNL     1       5.969   4.139  13.767  0.00  0.00    +0.000 A 
ATOM     14  C   UNL     1       4.812   3.621  13.169  0.00  0.00    +0.000 A 
ATOM     15  C   UNL     1       4.880   3.011  11.916  0.00  0.00    +0.000 A 
ATOM     16  C   UNL     1       6.111   2.939  11.291  0.00  0.00    +0.000 A 
ATOM     17  N   UNL     1       7.250   3.434  11.820  0.00  0.00    +0.000 NA
ATOM     18  C   UNL     1       7.150   4.027  13.039  0.00  0.00    +0.000 A 
ENDBRANCH   3  13
BRANCH   1  19
ATOM     19  C   UNL     1       7.439   6.449  18.323  0.00  0.00    +0.000 C 
BRANCH  19  21
ATOM     20  N   UNL     1       8.685   8.437  18.980  0.00  0.00    +0.000 N 
ATOM     21  C   UNL     1       7.805   7.893  18.053  0.00  0.00    +0.000 C 
ATOM     22  O   UNL     1       7.314   8.467  17.082  0.00  0.00    +0.000 OA
ATOM     23  H   UNL     1       9.055   7.823  19.693  0.00  0.00    +0.000 HD
BRANCH  20  27
ATOM     24  C   UNL     1       9.895  12.496  19.081  0.00  0.00    +0.000 A 
ATOM     25  C   UNL     1       9.732  11.781  20.261  0.00  0.00    +0.000 A 
ATOM     26  C   UNL     1       9.336  10.447  20.240  0.00  0.00    +0.000 A 
ATOM     27  C   UNL     1       9.087   9.792  19.040  0.00  0.00    +0.000 A 
ATOM     28  C   UNL     1       9.262  10.496  17.846  0.00  0.00    +0.000 A 
ATOM     29  C   UNL     1       9.646  11.849  17.867  0.00  0.00    +0.000 A 
BRANCH  24  33
ATOM     30  C   UNL     1      10.121  16.254  18.960  0.00  0.00    +0.000 C 
ATOM     31  C   UNL     1       9.415  14.938  19.143  0.00  0.00    +0.000 C 
ATOM     32  O   UNL     1       8.203  14.911  19.326  0.00  0.00    +0.000 OA
ATOM     33  N   UNL     1      10.280  13.855  19.073  0.00  0.00    +0.000 N 
ATOM     34  H   UNL     1      11.273  14.047  19.073  0.00  0.00    +0.000 HD
ENDBRANCH  24  33
ENDBRANCH  20  27
ENDBRANCH  19  21
ENDBRANCH   1  19
TORSDOF 6
ENDMDL
MODEL 4
REMARK VINA RESULT:      -8.5      0.991      1.554
REMARK  Name = 
REMARK  8 active torsions:
REMARK  status: ('A' for Active; 'I' for Inactive)
REMARK    1  A    between atoms: C_1  and  C_2
REMARK    2  A    between atoms: N_4  and  C_5
REMARK    3  A    between atoms: C_8  and  N_9
REMARK    4  A    between atoms: C_10  and  C_12
REMARK    5  A    between atoms: C_12  and  C_13
REMARK    6  A    between atoms: C_15  and  C_16
REMARK    7  A    between atoms: C_23  and  C_24
REMARK    8  A    between atoms: C_27  and  C_28
REMARK                            x       y       z     vdW  Elec       q    Type
REMARK                         _______ _______ _______ _____ _____    ______ ____
ROOT
ATOM      1  C   UNL     1       6.375   5.422  17.990  0.00  0.00    +0.000 A 
ATOM      2  S   UNL     1       5.483   5.411  19.462  0.00  0.00    +0.000 S 
ATOM      3  C   UNL     1       4.257   4.449  18.757  0.00  0.00    +0.000 A 
ATOM      4  N   UNL     1       4.466   4.150  17.492  0.00  0.00    +0.000 NA
ATOM      5  C   UNL     1       5.631   4.756  17.018  0.00  0.00    +0.000 A 
ENDROOT
BRANCH   5   6
ATOM      6  C   UNL     1       6.002   4.605  15.605  0.00  0.00    +0.000 A 
ATOM      7  C   UNL     1       5.274   3.803  14.715  0.00  0.00    +0.000 A 
ATOM      8  C   UNL     1       5.658   3.664  13.378  0.00  0.00    +0.000 A 
ATOM      9  C   UNL     1       6.814   4.285  12.907  0.00  0.00    +0.000 A 
ATOM     10  C   UNL     1       7.260   4.093  11.488  0.00  0.00    +0.000 C 
ATOM     11  C   UNL     1       7.567   5.065  13.791  0.00  0.00    +0.000 A 
ATOM     12  C   UNL     1       7.163   5.224  15.123  0.00  0.00    +0.000 A 
ENDBRANCH   5   6
BRANCH   3  13
ATOM     13  C   UNL     1       3.141   3.969  19.578  0.00  0.00    +0.000 A 
ATOM     14  C   UNL     1       1.846   4.500  19.500  0.00  0.00    +0.000 A 
ATOM     15  C   UNL     1       0.841   4.029  20.345  0.00  0.00    +0.000 A 
ATOM     16  C   UNL     1       1.159   3.032  21.248  0.00  0.00    +0.000 A 
ATOM     17  N   UNL     1       2.387   2.481  21.352  0.00  0.00    +0.000 NA
ATOM     18  C   UNL     1       3.344   2.956  20.511  0.00  0.00    +0.000 A 
ENDBRANCH   3  13
BRANCH   1  19
ATOM     19  C   UNL     1       7.735   6.057  17.910  0.00  0.00    +0.000 C 
BRANCH  19  21
ATOM     20  N   UNL     1       8.711   8.202  18.529  0.00  0.00    +0.000 N 
ATOM     21  C   UNL     1       7.694   7.569  17.825  0.00  0.00    +0.000 C 
ATOM     22  O   UNL     1       6.801   8.111  17.178  0.00  0.00    +0.000 OA
ATOM     23  H   UNL     1       9.414   7.622  18.964  0.00  0.00    +0.000 HD
BRANCH  20  27
ATOM     24  C   UNL     1       9.056  12.394  19.040  0.00  0.00    +0.000 A 
ATOM     25  C   UNL     1       9.429  11.528  20.060  0.00  0.00    +0.000 A 
ATOM     26  C   UNL     1       9.321  10.150  19.903  0.00  0.00    +0.000 A 
ATOM     27  C   UNL     1       8.833   9.599  18.725  0.00  0.00    +0.000 A 
ATOM     28  C   UNL     1       8.468  10.458  17.686  0.00  0.00    +0.000 A 
ATOM     29  C   UNL     1       8.561  11.853  17.850  0.00  0.00    +0.000 A 
BRANCH  24  33
ATOM     30  C   UNL     1       8.543  16.057  19.757  0.00  0.00    +0.000 C 
ATOM     31  C   UNL     1       8.284  14.585  19.936  0.00  0.00    +0.000 C 
ATOM     32  O   UNL     1       7.392  14.205  20.687  0.00  0.00    +0.000 OA
ATOM     33  N   UNL     1       9.139  13.798  19.177  0.00  0.00    +0.000 N 
ATOM     34  H   UNL     1       9.922  14.254  18.729  0.00  0.00    +0.000 HD
ENDBRANCH  24  33
ENDBRANCH  20  27
ENDBRANCH  19  21
ENDBRANCH   1  19
TORSDOF 6
ENDMDL
MODEL 5
REMARK VINA RESULT:      -8.3      1.060      1.452
REMARK  Name = 
REMARK  8 active torsions:
REMARK  status: ('A' for Active; 'I' for Inactive)
REMARK    1  A    between atoms: C_1  and  C_2
REMARK    2  A    between atoms: N_4  and  C_5
REMARK    3  A    between atoms: C_8  and  N_9
REMARK    4  A    between atoms: C_10  and  C_12
REMARK    5  A    between atoms: C_12  and  C_13
REMARK    6  A    between atoms: C_15  and  C_16
REMARK    7  A    between atoms: C_23  and  C_24
REMARK    8  A    between atoms: C_27  and  C_28
REMARK                            x       y       z     vdW  Elec       q    Type
REMARK                         _______ _______ _______ _____ _____    ______ ____
ROOT
ATOM      1  C   UNL     1       6.408   5.478  17.959  0.00  0.00    +0.000 A 
ATOM      2  S   UNL     1       5.435   5.481  19.379  0.00  0.00    +0.000 S 
ATOM      3  C   UNL     1       4.242   4.528  18.608  0.00  0.00    +0.000 A 
ATOM      4  N   UNL     1       4.519   4.222  17.358  0.00  0.00    +0.000 NA
ATOM      5  C   UNL     1       5.715   4.816  16.949  0.00  0.00    +0.000 A 
ENDROOT
BRANCH   5   6
ATOM      6  C   UNL     1       6.164   4.656  15.560  0.00  0.00    +0.000 A 
ATOM      7  C   UNL     1       7.277   5.333  15.043  0.00  0.00    +0.000 A 
ATOM      8  C   UNL     1       7.674   5.174  13.711  0.00  0.00    +0.000 A 
ATOM      9  C   UNL     1       6.934   4.369  12.845  0.00  0.00    +0.000 A 
ATOM     10  C   UNL     1       7.323   4.240  11.403  0.00  0.00    +0.000 C 
ATOM     11  C   UNL     1       5.804   3.710  13.340  0.00  0.00    +0.000 A 
ATOM     12  C   UNL     1       5.426   3.850  14.682  0.00  0.00    +0.000 A 
ENDBRANCH   5   6
BRANCH   3  13
ATOM     13  C   UNL     1       3.076   4.061  19.366  0.00  0.00    +0.000 A 
ATOM     14  C   UNL     1       2.769   2.705  19.543  0.00  0.00    +0.000 A 
ATOM     15  C   UNL     1       1.617   2.330  20.235  0.00  0.00    +0.000 A 
ATOM     16  C   UNL     1       0.801   3.327  20.736  0.00  0.00    +0.000 A 
ATOM     17  N   UNL     1       1.062   4.645  20.602  0.00  0.00    +0.000 NA
ATOM     18  C   UNL     1       2.194   4.979  19.928  0.00  0.00    +0.000 A 
ENDBRANCH   3  13
BRANCH   1  19
ATOM     19  C   UNL     1       7.777   6.101  17.954  0.00  0.00    +0.000 C 
BRANCH  19  21
ATOM     20  N   UNL     1       8.752   8.237  18.605  0.00  0.00    +0.000 N 
ATOM     21  C   UNL     1       7.755   7.613  17.865  0.00  0.00    +0.000 C 
ATOM     22  O   UNL     1       6.892   8.163  17.185  0.00  0.00    +0.000 OA
ATOM     23  H   UNL     1       9.433   7.650  19.067  0.00  0.00    +0.000 HD
BRANCH  20  27
ATOM     24  C   UNL     1       9.130  12.426  19.117  0.00  0.00    +0.000 A 
ATOM     25  C   UNL     1       9.331  11.565  20.189  0.00  0.00    +0.000 A 
ATOM     26  C   UNL     1       9.211  10.187  20.032  0.00  0.00    +0.000 A 
ATOM     27  C   UNL     1       8.881   9.632  18.802  0.00  0.00    +0.000 A 
ATOM     28  C   UNL     1       8.691  10.487  17.713  0.00  0.00    +0.000 A 
ATOM     29  C   UNL     1       8.796  11.881  17.875  0.00  0.00    +0.000 A 
BRANCH  24  33
ATOM     30  C   UNL     1       8.649  16.162  19.141  0.00  0.00    +0.000 C 
ATOM     31  C   UNL     1       8.189  14.731  19.077  0.00  0.00    +0.000 C 
ATOM     32  O   UNL     1       7.006  14.473  18.884  0.00  0.00    +0.000 OA
ATOM     33  N   UNL     1       9.229  13.829  19.251  0.00  0.00    +0.000 N 
ATOM     34  H   UNL     1      10.122  14.195  19.556  0.00  0.00    +0.000 HD
ENDBRANCH  24  33
ENDBRANCH  20  27
ENDBRANCH  19  21
ENDBRANCH   1  19
TORSDOF 6
ENDMDL
MODEL 6
REMARK VINA RESULT:      -8.1      6.965     11.656
REMARK  Name = 
REMARK  8 active torsions:
REMARK  status: ('A' for Active; 'I' for Inactive)
REMARK    1  A    between atoms: C_1  and  C_2
REMARK    2  A    between atoms: N_4  and  C_5
REMARK    3  A    between atoms: C_8  and  N_9
REMARK    4  A    between atoms: C_10  and  C_12
REMARK    5  A    between atoms: C_12  and  C_13
REMARK    6  A    between atoms: C_15  and  C_16
REMARK    7  A    between atoms: C_23  and  C_24
REMARK    8  A    between atoms: C_27  and  C_28
REMARK                            x       y       z     vdW  Elec       q    Type
REMARK                         _______ _______ _______ _____ _____    ______ ____
ROOT
ATOM      1  C   UNL     1       0.155  11.998  20.461  0.00  0.00    +0.000 A 
ATOM      2  S   UNL     1       1.712  12.725  20.364  0.00  0.00    +0.000 S 
ATOM      3  C   UNL     1       1.192  13.761  19.106  0.00  0.00    +0.000 A 
ATOM      4  N   UNL     1      -0.063  13.587  18.748  0.00  0.00    +0.000 NA
ATOM      5  C   UNL     1      -0.648  12.538  19.459  0.00  0.00    +0.000 A 
ENDROOT
BRANCH   5   6
ATOM      6  C   UNL     1      -2.027  12.136  19.152  0.00  0.00    +0.000 A 
ATOM      7  C   UNL     1      -2.348  11.303  18.072  0.00  0.00    +0.000 A 
ATOM      8  C   UNL     1      -3.672  10.948  17.793  0.00  0.00    +0.000 A 
ATOM      9  C   UNL     1      -4.717  11.462  18.560  0.00  0.00    +0.000 A 
ATOM     10  C   UNL     1      -6.142  11.130  18.229  0.00  0.00    +0.000 C 
ATOM     11  C   UNL     1      -4.414  12.318  19.623  0.00  0.00    +0.000 A 
ATOM     12  C   UNL     1      -3.084  12.649  19.916  0.00  0.00    +0.000 A 
ENDBRANCH   5   6
BRANCH   3  13
ATOM     13  C   UNL     1       2.099  14.786  18.579  0.00  0.00    +0.000 A 
ATOM     14  C   UNL     1       3.390  14.502  18.112  0.00  0.00    +0.000 A 
ATOM     15  C   UNL     1       4.220  15.531  17.670  0.00  0.00    +0.000 A 
ATOM     16  C   UNL     1       3.732  16.824  17.702  0.00  0.00    +0.000 A 
ATOM     17  N   UNL     1       2.493  17.146  18.131  0.00  0.00    +0.000 NA
ATOM     18  C   UNL     1       1.706  16.121  18.551  0.00  0.00    +0.000 A 
ENDBRANCH   3  13
BRANCH   1  19
ATOM     19  C   UNL     1      -0.163  10.980  21.521  0.00  0.00    +0.000 C 
BRANCH  19  21
ATOM     20  N   UNL     1       1.286   9.146  20.833  0.00  0.00    +0.000 N 
ATOM     21  C   UNL     1      -0.026   9.548  21.047  0.00  0.00    +0.000 C 
ATOM     22  O   UNL     1      -1.038   8.870  20.881  0.00  0.00    +0.000 OA
ATOM     23  H   UNL     1       2.022   9.796  21.074  0.00  0.00    +0.000 HD
BRANCH  20  27
ATOM     24  C   UNL     1       2.507   5.488  19.078  0.00  0.00    +0.000 A 
ATOM     25  C   UNL     1       1.989   5.511  20.367  0.00  0.00    +0.000 A 
ATOM     26  C   UNL     1       1.583   6.707  20.953  0.00  0.00    +0.000 A 
ATOM     27  C   UNL     1       1.689   7.912  20.269  0.00  0.00    +0.000 A 
ATOM     28  C   UNL     1       2.196   7.900  18.968  0.00  0.00    +0.000 A 
ATOM     29  C   UNL     1       2.622   6.694  18.381  0.00  0.00    +0.000 A 
BRANCH  24  33
ATOM     30  C   UNL     1       2.904   2.048  17.595  0.00  0.00    +0.000 C 
ATOM     31  C   UNL     1       2.123   3.239  18.081  0.00  0.00    +0.000 C 
ATOM     32  O   UNL     1       0.898   3.202  18.108  0.00  0.00    +0.000 OA
ATOM     33  N   UNL     1       2.942   4.292  18.465  0.00  0.00    +0.000 N 
ATOM     34  H   UNL     1       3.925   4.228  18.238  0.00  0.00    +0.000 HD
ENDBRANCH  24  33
ENDBRANCH  20  27
ENDBRANCH  19  21
ENDBRANCH   1  19
TORSDOF 6
ENDMDL
MODEL 7
REMARK VINA RESULT:      -8.1      8.717     11.405
REMARK  Name = 
REMARK  8 active torsions:
REMARK  status: ('A' for Active; 'I' for Inactive)
REMARK    1  A    between atoms: C_1  and  C_2
REMARK    2  A    between atoms: N_4  and  C_5
REMARK    3  A    between atoms: C_8  and  N_9
REMARK    4  A    between atoms: C_10  and  C_12
REMARK    5  A    between atoms: C_12  and  C_13
REMARK    6  A    between atoms: C_15  and  C_16
REMARK    7  A    between atoms: C_23  and  C_24
REMARK    8  A    between atoms: C_27  and  C_28
REMARK                            x       y       z     vdW  Elec       q    Type
REMARK                         _______ _______ _______ _____ _____    ______ ____
ROOT
ATOM      1  C   UNL     1      -2.274  12.328  20.049  0.00  0.00    +0.000 A 
ATOM      2  S   UNL     1      -2.883  12.991  21.516  0.00  0.00    +0.000 S 
ATOM      3  C   UNL     1      -4.492  12.651  21.045  0.00  0.00    +0.000 A 
ATOM      4  N   UNL     1      -4.600  12.089  19.860  0.00  0.00    +0.000 NA
ATOM      5  C   UNL     1      -3.352  11.964  19.246  0.00  0.00    +0.000 A 
ENDROOT
BRANCH   5   6
ATOM      6  C   UNL     1      -3.267  11.426  17.883  0.00  0.00    +0.000 A 
ATOM      7  C   UNL     1      -4.190  11.758  16.881  0.00  0.00    +0.000 A 
ATOM      8  C   UNL     1      -4.094  11.219  15.594  0.00  0.00    +0.000 A 
ATOM      9  C   UNL     1      -3.099  10.291  15.289  0.00  0.00    +0.000 A 
ATOM     10  C   UNL     1      -3.027   9.667  13.927  0.00  0.00    +0.000 C 
ATOM     11  C   UNL     1      -2.189   9.928  16.287  0.00  0.00    +0.000 A 
ATOM     12  C   UNL     1      -2.271  10.491  17.568  0.00  0.00    +0.000 A 
ENDBRANCH   5   6
BRANCH   3  13
ATOM     13  C   UNL     1      -5.596  12.917  21.972  0.00  0.00    +0.000 A 
ATOM     14  C   UNL     1      -6.921  13.110  21.554  0.00  0.00    +0.000 A 
ATOM     15  C   UNL     1      -7.916  13.407  22.485  0.00  0.00    +0.000 A 
ATOM     16  C   UNL     1      -7.559  13.499  23.817  0.00  0.00    +0.000 A 
ATOM     17  N   UNL     1      -6.301  13.308  24.270  0.00  0.00    +0.000 NA
ATOM     18  C   UNL     1      -5.355  13.015  23.339  0.00  0.00    +0.000 A 
ENDBRANCH   3  13
BRANCH   1  19
ATOM     19  C   UNL     1      -0.794  12.195  19.811  0.00  0.00    +0.000 C 
BRANCH  19  21
ATOM     20  N   UNL     1       0.813  10.473  19.190  0.00  0.00    +0.000 N 
ATOM     21  C   UNL     1      -0.275  10.785  19.996  0.00  0.00    +0.000 C 
ATOM     22  O   UNL     1      -0.830  10.040  20.801  0.00  0.00    +0.000 OA
ATOM     23  H   UNL     1       1.203  11.211  18.620  0.00  0.00    +0.000 HD
BRANCH  20  27
ATOM     24  C   UNL     1       2.601   6.658  18.743  0.00  0.00    +0.000 A 
ATOM     25  C   UNL     1       2.163   7.088  19.990  0.00  0.00    +0.000 A 
ATOM     26  C   UNL     1       1.573   8.339  20.148  0.00  0.00    +0.000 A 
ATOM     27  C   UNL     1       1.409   9.196  19.067  0.00  0.00    +0.000 A 
ATOM     28  C   UNL     1       1.833   8.769  17.806  0.00  0.00    +0.000 A 
ATOM     29  C   UNL     1       2.444   7.512  17.648  0.00  0.00    +0.000 A 
BRANCH  24  33
ATOM     30  C   UNL     1       3.486   3.057  18.080  0.00  0.00    +0.000 C 
ATOM     31  C   UNL     1       2.614   4.281  18.002  0.00  0.00    +0.000 C 
ATOM     32  O   UNL     1       1.500   4.212  17.494  0.00  0.00    +0.000 OA
ATOM     33  N   UNL     1       3.218   5.401  18.556  0.00  0.00    +0.000 N 
ATOM     34  H   UNL     1       4.198   5.335  18.795  0.00  0.00    +0.000 HD
ENDBRANCH  24  33
ENDBRANCH  20  27
ENDBRANCH  19  21
ENDBRANCH   1  19
TORSDOF 6
ENDMDL
MODEL 8
REMARK VINA RESULT:      -8.1      7.903     10.946
REMARK  Name = 
REMARK  8 active torsions:
REMARK  status: ('A' for Active; 'I' for Inactive)
REMARK    1  A    between atoms: C_1  and  C_2
REMARK    2  A    between atoms: N_4  and  C_5
REMARK    3  A    between atoms: C_8  and  N_9
REMARK    4  A    between atoms: C_10  and  C_12
REMARK    5  A    between atoms: C_12  and  C_13
REMARK    6  A    between atoms: C_15  and  C_16
REMARK    7  A    between atoms: C_23  and  C_24
REMARK    8  A    between atoms: C_27  and  C_28
REMARK                            x       y       z     vdW  Elec       q    Type
REMARK                         _______ _______ _______ _____ _____    ______ ____
ROOT
ATOM      1  C   UNL     1      -0.517  11.694  19.726  0.00  0.00    +0.000 A 
ATOM      2  S   UNL     1      -0.372  12.417  21.281  0.00  0.00    +0.000 S 
ATOM      3  C   UNL     1      -2.066  12.633  21.381  0.00  0.00    +0.000 A 
ATOM      4  N   UNL     1      -2.727  12.212  20.323  0.00  0.00    +0.000 NA
ATOM      5  C   UNL     1      -1.855  11.741  19.339  0.00  0.00    +0.000 A 
ENDROOT
BRANCH   5   6
ATOM      6  C   UNL     1      -2.393  11.294  18.049  0.00  0.00    +0.000 A 
ATOM      7  C   UNL     1      -3.617  11.753  17.541  0.00  0.00    +0.000 A 
ATOM      8  C   UNL     1      -4.115  11.299  16.316  0.00  0.00    +0.000 A 
ATOM      9  C   UNL     1      -3.423  10.332  15.588  0.00  0.00    +0.000 A 
ATOM     10  C   UNL     1      -3.981   9.800  14.301  0.00  0.00    +0.000 C 
ATOM     11  C   UNL     1      -2.215   9.842  16.096  0.00  0.00    +0.000 A 
ATOM     12  C   UNL     1      -1.706  10.321  17.311  0.00  0.00    +0.000 A 
ENDBRANCH   5   6
BRANCH   3  13
ATOM     13  C   UNL     1      -2.664  13.171  22.607  0.00  0.00    +0.000 A 
ATOM     14  C   UNL     1      -3.334  12.376  23.548  0.00  0.00    +0.000 A 
ATOM     15  C   UNL     1      -3.922  12.959  24.670  0.00  0.00    +0.000 A 
ATOM     16  C   UNL     1      -3.821  14.329  24.823  0.00  0.00    +0.000 A 
ATOM     17  N   UNL     1      -3.176  15.134  23.953  0.00  0.00    +0.000 NA
ATOM     18  C   UNL     1      -2.608  14.536  22.872  0.00  0.00    +0.000 A 
ENDBRANCH   3  13
BRANCH   1  19
ATOM     19  C   UNL     1       0.681  11.119  19.021  0.00  0.00    +0.000 C 
BRANCH  19  21
ATOM     20  N   UNL     1       2.003   9.103  18.672  0.00  0.00    +0.000 N 
ATOM     21  C   UNL     1       0.990   9.691  19.419  0.00  0.00    +0.000 C 
ATOM     22  O   UNL     1       0.348   9.166  20.327  0.00  0.00    +0.000 OA
ATOM     23  H   UNL     1       2.486   9.680  17.997  0.00  0.00    +0.000 HD
BRANCH  20  27
ATOM     24  C   UNL     1       3.223   5.048  18.820  0.00  0.00    +0.000 A 
ATOM     25  C   UNL     1       2.501   5.604  19.868  0.00  0.00    +0.000 A 
ATOM     26  C   UNL     1       2.094   6.934  19.830  0.00  0.00    +0.000 A 
ATOM     27  C   UNL     1       2.401   7.747  18.746  0.00  0.00    +0.000 A 
ATOM     28  C   UNL     1       3.115   7.196  17.679  0.00  0.00    +0.000 A 
ATOM     29  C   UNL     1       3.541   5.856  17.724  0.00  0.00    +0.000 A 
BRANCH  24  33
ATOM     30  C   UNL     1       3.694   1.325  18.482  0.00  0.00    +0.000 C 
ATOM     31  C   UNL     1       3.088   2.659  18.133  0.00  0.00    +0.000 C 
ATOM     32  O   UNL     1       2.184   2.726  17.308  0.00  0.00    +0.000 OA
ATOM     33  N   UNL     1       3.664   3.706  18.839  0.00  0.00    +0.000 N 
ATOM     34  H   UNL     1       4.504   3.510  19.367  0.00  0.00    +0.000 HD
ENDBRANCH  24  33
ENDBRANCH  20  27
ENDBRANCH  19  21
ENDBRANCH   1  19
TORSDOF 6
ENDMDL
MODEL 9
REMARK VINA RESULT:      -8.1      8.799     11.469
REMARK  Name = 
REMARK  8 active torsions:
REMARK  status: ('A' for Active; 'I' for Inactive)
REMARK    1  A    between atoms: C_1  and  C_2
REMARK    2  A    between atoms: N_4  and  C_5
REMARK    3  A    between atoms: C_8  and  N_9
REMARK    4  A    between atoms: C_10  and  C_12
REMARK    5  A    between atoms: C_12  and  C_13
REMARK    6  A    between atoms: C_15  and  C_16
REMARK    7  A    between atoms: C_23  and  C_24
REMARK    8  A    between atoms: C_27  and  C_28
REMARK                            x       y       z     vdW  Elec       q    Type
REMARK                         _______ _______ _______ _____ _____    ______ ____
ROOT
ATOM      1  C   UNL     1      -2.343  12.445  20.198  0.00  0.00    +0.000 A 
ATOM      2  S   UNL     1      -2.963  13.116  21.656  0.00  0.00    +0.000 S 
ATOM      3  C   UNL     1      -4.566  12.741  21.192  0.00  0.00    +0.000 A 
ATOM      4  N   UNL     1      -4.665  12.162  20.014  0.00  0.00    +0.000 NA
ATOM      5  C   UNL     1      -3.415  12.051  19.401  0.00  0.00    +0.000 A 
ENDROOT
BRANCH   5   6
ATOM      6  C   UNL     1      -3.321  11.496  18.045  0.00  0.00    +0.000 A 
ATOM      7  C   UNL     1      -4.255  11.791  17.042  0.00  0.00    +0.000 A 
ATOM      8  C   UNL     1      -4.151  11.237  15.762  0.00  0.00    +0.000 A 
ATOM      9  C   UNL     1      -3.134  10.330  15.467  0.00  0.00    +0.000 A 
ATOM     10  C   UNL     1      -3.051   9.689  14.113  0.00  0.00    +0.000 C 
ATOM     11  C   UNL     1      -2.212  10.003  16.466  0.00  0.00    +0.000 A 
ATOM     12  C   UNL     1      -2.304  10.582  17.739  0.00  0.00    +0.000 A 
ENDBRANCH   5   6
BRANCH   3  13
ATOM     13  C   UNL     1      -5.674  12.999  22.116  0.00  0.00    +0.000 A 
ATOM     14  C   UNL     1      -5.609  13.945  23.149  0.00  0.00    +0.000 A 
ATOM     15  C   UNL     1      -6.684  14.106  24.024  0.00  0.00    +0.000 A 
ATOM     16  C   UNL     1      -7.802  13.314  23.839  0.00  0.00    +0.000 A 
ATOM     17  N   UNL     1      -7.916  12.400  22.853  0.00  0.00    +0.000 NA
ATOM     18  C   UNL     1      -6.856  12.270  22.013  0.00  0.00    +0.000 A 
ENDBRANCH   3  13
BRANCH   1  19
ATOM     19  C   UNL     1      -0.861  12.336  19.961  0.00  0.00    +0.000 C 
BRANCH  19  21
ATOM     20  N   UNL     1       0.724  10.633  19.237  0.00  0.00    +0.000 N 
ATOM     21  C   UNL     1      -0.328  10.925  20.096  0.00  0.00    +0.000 C 
ATOM     22  O   UNL     1      -0.843  10.162  20.911  0.00  0.00    +0.000 OA
ATOM     23  H   UNL     1       1.085  11.383  18.663  0.00  0.00    +0.000 HD
BRANCH  20  27
ATOM     24  C   UNL     1       2.505   6.814  18.796  0.00  0.00    +0.000 A 
ATOM     25  C   UNL     1       2.350   7.649  17.696  0.00  0.00    +0.000 A 
ATOM     26  C   UNL     1       1.767   8.906  17.829  0.00  0.00    +0.000 A 
ATOM     27  C   UNL     1       1.319   9.361  19.063  0.00  0.00    +0.000 A 
ATOM     28  C   UNL     1       1.483   8.537  20.179  0.00  0.00    +0.000 A 
ATOM     29  C   UNL     1       2.056   7.259  20.042  0.00  0.00    +0.000 A 
BRANCH  24  33
ATOM     30  C   UNL     1       3.274   3.160  18.294  0.00  0.00    +0.000 C 
ATOM     31  C   UNL     1       2.465   4.418  18.122  0.00  0.00    +0.000 C 
ATOM     32  O   UNL     1       1.388   4.380  17.536  0.00  0.00    +0.000 OA
ATOM     33  N   UNL     1       3.077   5.527  18.687  0.00  0.00    +0.000 N 
ATOM     34  H   UNL     1       4.035   5.427  18.997  0.00  0.00    +0.000 HD
ENDBRANCH  24  33
ENDBRANCH  20  27
ENDBRANCH  19  21
ENDBRANCH   1  19
TORSDOF 6
ENDMDL
