MODEL 1
REMARK VINA RESULT:      -7.0      0.000      0.000
REMARK  Name = 
REMARK  8 active torsions:
REMARK  status: ('A' for Active; 'I' for Inactive)
REMARK    1  A    between atoms: C_1  and  C_2
REMARK    2  A    between atoms: C_2  and  N_3
REMARK    3  A    between atoms: N_3  and  C_4
REMARK    4  A    between atoms: C_4  and  C_5
REMARK    5  A    between atoms: N_12  and  C_13
REMARK    6  A    between atoms: C_15  and  C_16
REMARK    7  A    between atoms: C_21  and  O_22
REMARK    8  A    between atoms: O_22  and  C_23
REMARK                            x       y       z     vdW  Elec       q    Type
REMARK                         _______ _______ _______ _____ _____    ______ ____
ROOT
ATOM      1  N   UNL     1       2.423   6.433  19.420  0.00  0.00    +0.000 N 
ATOM      2  C   UNL     1       3.443   6.242  18.480  0.00  0.00    +0.000 C 
ATOM      3  O   UNL     1       3.900   7.172  17.814  0.00  0.00    +0.000 OA
ATOM      4  N   UNL     1       3.895   4.948  18.338  0.00  0.00    +0.000 N 
ATOM      5  H   UNL     1       3.150   4.270  18.276  0.00  0.00    +0.000 HD
ENDROOT
BRANCH   4   6
ATOM      6  C   UNL     1       5.046   4.690  17.550  0.00  0.00    +0.000 A 
ATOM      7  C   UNL     1       4.869   4.407  16.180  0.00  0.00    +0.000 A 
ATOM      8  C   UNL     1       5.974   4.199  15.342  0.00  0.00    +0.000 A 
ATOM      9  C   UNL     1       7.262   4.269  15.875  0.00  0.00    +0.000 A 
ATOM     10  C   UNL     1       7.446   4.554  17.232  0.00  0.00    +0.000 A 
ATOM     11  C   UNL     1       6.347   4.772  18.075  0.00  0.00    +0.000 A 
BRANCH   8  12
ATOM     12  C   UNL     1       5.822   3.942  13.883  0.00  0.00    +0.000 C 
ATOM     13  N   UNL     1       6.944   3.593  13.190  0.00  0.00    +0.000 N 
ATOM     14  O   UNL     1       4.740   4.058  13.321  0.00  0.00    +0.000 OA
ATOM     15  H   UNL     1       7.874   3.735  13.562  0.00  0.00    +0.000 HD
ATOM     16  H   UNL     1       6.853   3.536  12.179  0.00  0.00    +0.000 HD
ENDBRANCH   8  12
BRANCH  11  17
ATOM     17  O   UNL     1       6.663   5.116  19.362  0.00  0.00    +0.000 OA
ATOM     18  C   UNL     1       7.881   5.842  19.518  0.00  0.00    +0.000 C 
ENDBRANCH  11  17
ENDBRANCH   4   6
BRANCH   1  20
ATOM     19  C   UNL     1       1.343   8.140  20.921  0.00  0.00    +0.000 C 
ATOM     20  C   UNL     1       1.956   7.819  19.557  0.00  0.00    +0.000 C 
ENDBRANCH   1  20
BRANCH   1  21
ATOM     21  C   UNL     1       2.170   5.493  20.538  0.00  0.00    +0.000 C 
BRANCH  21  22
ATOM     22  C   UNL     1       1.234   4.293  20.260  0.00  0.00    +0.000 C 
ATOM     23  C   UNL     1       1.790   2.990  20.826  0.00  0.00    +0.000 C 
ATOM     24  C   UNL     1       1.193   1.949  19.914  0.00  0.00    +0.000 C 
ATOM     25  C   UNL     1       1.170   2.662  18.580  0.00  0.00    +0.000 C 
ATOM     26  O   UNL     1       1.083   4.070  18.844  0.00  0.00    +0.000 OA
ENDBRANCH  21  22
ENDBRANCH   1  21
TORSDOF 6
ENDMDL
MODEL 2
REMARK VINA RESULT:      -6.8      1.158      1.311
REMARK  Name = 
REMARK  8 active torsions:
REMARK  status: ('A' for Active; 'I' for Inactive)
REMARK    1  A    between atoms: C_1  and  C_2
REMARK    2  A    between atoms: C_2  and  N_3
REMARK    3  A    between atoms: N_3  and  C_4
REMARK    4  A    between atoms: C_4  and  C_5
REMARK    5  A    between atoms: N_12  and  C_13
REMARK    6  A    between atoms: C_15  and  C_16
REMARK    7  A    between atoms: C_21  and  O_22
REMARK    8  A    between atoms: O_22  and  C_23
REMARK                            x       y       z     vdW  Elec       q    Type
REMARK                         _______ _______ _______ _____ _____    ______ ____
ROOT
ATOM      1  N   UNL     1       2.956   6.520  18.566  0.00  0.00    +0.000 N 
ATOM      2  C   UNL     1       3.793   6.375  17.454  0.00  0.00    +0.000 C 
ATOM      3  O   UNL     1       3.998   7.298  16.665  0.00  0.00    +0.000 OA
ATOM      4  N   UNL     1       4.363   5.131  17.290  0.00  0.00    +0.000 N 
ATOM      5  H   UNL     1       3.707   4.373  17.411  0.00  0.00    +0.000 HD
ENDROOT
BRANCH   4   6
ATOM      6  C   UNL     1       5.365   4.944  16.304  0.00  0.00    +0.000 A 
ATOM      7  C   UNL     1       5.011   4.287  15.107  0.00  0.00    +0.000 A 
ATOM      8  C   UNL     1       5.946   4.123  14.074  0.00  0.00    +0.000 A 
ATOM      9  C   UNL     1       7.242   4.613  14.239  0.00  0.00    +0.000 A 
ATOM     10  C   UNL     1       7.599   5.271  15.421  0.00  0.00    +0.000 A 
ATOM     11  C   UNL     1       6.668   5.446  16.455  0.00  0.00    +0.000 A 
BRANCH   8  12
ATOM     12  C   UNL     1       5.591   3.473  12.783  0.00  0.00    +0.000 C 
ATOM     13  N   UNL     1       6.559   2.733  12.169  0.00  0.00    +0.000 N 
ATOM     14  O   UNL     1       4.483   3.612  12.279  0.00  0.00    +0.000 OA
ATOM     15  H   UNL     1       7.536   2.807  12.421  0.00  0.00    +0.000 HD
ATOM     16  H   UNL     1       6.346   2.393  11.235  0.00  0.00    +0.000 HD
ENDBRANCH   8  12
BRANCH  11  17
ATOM     17  O   UNL     1       7.120   6.171  17.526  0.00  0.00    +0.000 OA
ATOM     18  C   UNL     1       7.695   5.404  18.581  0.00  0.00    +0.000 C 
ENDBRANCH  11  17
ENDBRANCH   4   6
BRANCH   1  20
ATOM     19  C   UNL     1       1.757   8.109  20.107  0.00  0.00    +0.000 C 
ATOM     20  C   UNL     1       2.359   7.854  18.725  0.00  0.00    +0.000 C 
ENDBRANCH   1  20
BRANCH   1  21
ATOM     21  C   UNL     1       3.037   5.642  19.758  0.00  0.00    +0.000 C 
BRANCH  21  22
ATOM     22  C   UNL     1       1.946   4.558  19.917  0.00  0.00    +0.000 C 
ATOM     23  C   UNL     1       1.991   3.895  21.291  0.00  0.00    +0.000 C 
ATOM     24  C   UNL     1       1.425   2.525  21.020  0.00  0.00    +0.000 C 
ATOM     25  C   UNL     1       1.937   2.233  19.627  0.00  0.00    +0.000 C 
ATOM     26  O   UNL     1       2.131   3.492  18.964  0.00  0.00    +0.000 OA
ENDBRANCH  21  22
ENDBRANCH   1  21
TORSDOF 6
ENDMDL
MODEL 3
REMARK VINA RESULT:      -6.7      1.511      1.790
REMARK  Name = 
REMARK  8 active torsions:
REMARK  status: ('A' for Active; 'I' for Inactive)
REMARK    1  A    between atoms: C_1  and  C_2
REMARK    2  A    between atoms: C_2  and  N_3
REMARK    3  A    between atoms: N_3  and  C_4
REMARK    4  A    between atoms: C_4  and  C_5
REMARK    5  A    between atoms: N_12  and  C_13
REMARK    6  A    between atoms: C_15  and  C_16
REMARK    7  A    between atoms: C_21  and  O_22
REMARK    8  A    between atoms: O_22  and  C_23
REMARK                            x       y       z     vdW  Elec       q    Type
REMARK                         _______ _______ _______ _____ _____    ______ ____
ROOT
ATOM      1  N   UNL     1       3.331   5.999  18.692  0.00  0.00    +0.000 N 
ATOM      2  C   UNL     1       4.063   5.942  17.500  0.00  0.00    +0.000 C 
ATOM      3  O   UNL     1       4.091   6.881  16.704  0.00  0.00    +0.000 OA
ATOM      4  N   UNL     1       4.741   4.764  17.268  0.00  0.00    +0.000 N 
ATOM      5  H   UNL     1       4.183   3.942  17.446  0.00  0.00    +0.000 HD
ENDROOT
BRANCH   4   6
ATOM      6  C   UNL     1       5.653   4.682  16.185  0.00  0.00    +0.000 A 
ATOM      7  C   UNL     1       5.221   4.067  14.992  0.00  0.00    +0.000 A 
ATOM      8  C   UNL     1       6.062   4.008  13.870  0.00  0.00    +0.000 A 
ATOM      9  C   UNL     1       7.341   4.560  13.942  0.00  0.00    +0.000 A 
ATOM     10  C   UNL     1       7.774   5.177  15.120  0.00  0.00    +0.000 A 
ATOM     11  C   UNL     1       6.938   5.248  16.243  0.00  0.00    +0.000 A 
BRANCH   8  12
ATOM     12  C   UNL     1       5.619   3.404  12.583  0.00  0.00    +0.000 C 
ATOM     13  N   UNL     1       6.484   2.548  11.965  0.00  0.00    +0.000 N 
ATOM     14  O   UNL     1       4.534   3.678  12.086  0.00  0.00    +0.000 OA
ATOM     15  H   UNL     1       7.464   2.501  12.210  0.00  0.00    +0.000 HD
ATOM     16  H   UNL     1       6.224   2.236  11.033  0.00  0.00    +0.000 HD
ENDBRANCH   8  12
BRANCH  11  17
ATOM     17  O   UNL     1       7.451   5.943  17.306  0.00  0.00    +0.000 OA
ATOM     18  C   UNL     1       7.490   7.360  17.147  0.00  0.00    +0.000 C 
ENDBRANCH  11  17
ENDBRANCH   4   6
BRANCH   1  20
ATOM     19  C   UNL     1       1.888   7.334  20.264  0.00  0.00    +0.000 C 
ATOM     20  C   UNL     1       2.617   7.263  18.922  0.00  0.00    +0.000 C 
ENDBRANCH   1  20
BRANCH   1  21
ATOM     21  C   UNL     1       3.622   5.135  19.861  0.00  0.00    +0.000 C 
BRANCH  21  22
ATOM     22  C   UNL     1       2.918   3.759  19.920  0.00  0.00    +0.000 C 
ATOM     23  C   UNL     1       1.616   3.747  19.125  0.00  0.00    +0.000 C 
ATOM     24  C   UNL     1       0.802   2.696  19.834  0.00  0.00    +0.000 C 
ATOM     25  C   UNL     1       1.223   2.878  21.275  0.00  0.00    +0.000 C 
ATOM     26  O   UNL     1       2.553   3.420  21.272  0.00  0.00    +0.000 OA
ENDBRANCH  21  22
ENDBRANCH   1  21
TORSDOF 6
ENDMDL
MODEL 4
REMARK VINA RESULT:      -6.6      2.729      5.177
REMARK  Name = 
REMARK  8 active torsions:
REMARK  status: ('A' for Active; 'I' for Inactive)
REMARK    1  A    between atoms: C_1  and  C_2
REMARK    2  A    between atoms: C_2  and  N_3
REMARK    3  A    between atoms: N_3  and  C_4
REMARK    4  A    between atoms: C_4  and  C_5
REMARK    5  A    between atoms: N_12  and  C_13
REMARK    6  A    between atoms: C_15  and  C_16
REMARK    7  A    between atoms: C_21  and  O_22
REMARK    8  A    between atoms: O_22  and  C_23
REMARK                            x       y       z     vdW  Elec       q    Type
REMARK                         _______ _______ _______ _____ _____    ______ ____
ROOT
ATOM      1  N   UNL     1       1.532   8.396  19.803  0.00  0.00    +0.000 N 
ATOM      2  C   UNL     1       2.280   7.240  19.552  0.00  0.00    +0.000 C 
ATOM      3  O   UNL     1       2.312   6.297  20.343  0.00  0.00    +0.000 OA
ATOM      4  N   UNL     1       2.989   7.229  18.370  0.00  0.00    +0.000 N 
ATOM      5  H   UNL     1       3.491   8.088  18.198  0.00  0.00    +0.000 HD
ENDROOT
BRANCH   4   6
ATOM      6  C   UNL     1       3.624   6.034  17.944  0.00  0.00    +0.000 A 
ATOM      7  C   UNL     1       5.033   5.995  17.925  0.00  0.00    +0.000 A 
ATOM      8  C   UNL     1       5.715   4.823  17.567  0.00  0.00    +0.000 A 
ATOM      9  C   UNL     1       4.985   3.685  17.222  0.00  0.00    +0.000 A 
ATOM     10  C   UNL     1       3.587   3.713  17.244  0.00  0.00    +0.000 A 
ATOM     11  C   UNL     1       2.898   4.878  17.609  0.00  0.00    +0.000 A 
BRANCH   8  12
ATOM     12  C   UNL     1       7.201   4.738  17.579  0.00  0.00    +0.000 C 
ATOM     13  N   UNL     1       7.823   4.517  16.384  0.00  0.00    +0.000 N 
ATOM     14  O   UNL     1       7.841   4.841  18.618  0.00  0.00    +0.000 OA
ATOM     15  H   UNL     1       7.326   4.180  15.571  0.00  0.00    +0.000 HD
ATOM     16  H   UNL     1       8.824   4.343  16.420  0.00  0.00    +0.000 HD
ENDBRANCH   8  12
BRANCH  11  17
ATOM     17  O   UNL     1       1.535   4.754  17.664  0.00  0.00    +0.000 OA
ATOM     18  C   UNL     1       1.056   3.607  18.364  0.00  0.00    +0.000 C 
ENDBRANCH  11  17
ENDBRANCH   4   6
BRANCH   1  20
ATOM     19  C   UNL     1       1.440   9.192  22.189  0.00  0.00    +0.000 C 
ATOM     20  C   UNL     1       0.782   8.388  21.067  0.00  0.00    +0.000 C 
ENDBRANCH   1  20
BRANCH   1  21
ATOM     21  C   UNL     1       1.091   9.321  18.731  0.00  0.00    +0.000 C 
BRANCH  21  22
ATOM     22  C   UNL     1      -0.141  10.209  19.022  0.00  0.00    +0.000 C 
ATOM     23  C   UNL     1      -1.150  10.183  17.878  0.00  0.00    +0.000 C 
ATOM     24  C   UNL     1      -1.828  11.523  17.999  0.00  0.00    +0.000 C 
ATOM     25  C   UNL     1      -0.700  12.415  18.467  0.00  0.00    +0.000 C 
ATOM     26  O   UNL     1       0.239  11.591  19.175  0.00  0.00    +0.000 OA
ENDBRANCH  21  22
ENDBRANCH   1  21
TORSDOF 6
ENDMDL
MODEL 5
REMARK VINA RESULT:      -6.4      2.463      4.900
REMARK  Name = 
REMARK  8 active torsions:
REMARK  status: ('A' for Active; 'I' for Inactive)
REMARK    1  A    between atoms: C_1  and  C_2
REMARK    2  A    between atoms: C_2  and  N_3
REMARK    3  A    between atoms: N_3  and  C_4
REMARK    4  A    between atoms: C_4  and  C_5
REMARK    5  A    between atoms: N_12  and  C_13
REMARK    6  A    between atoms: C_15  and  C_16
REMARK    7  A    between atoms: C_21  and  O_22
REMARK    8  A    between atoms: O_22  and  C_23
REMARK                            x       y       z     vdW  Elec       q    Type
REMARK                         _______ _______ _______ _____ _____    ______ ____
ROOT
ATOM      1  N   UNL     1       1.484   8.835  18.987  0.00  0.00    +0.000 N 
ATOM      2  C   UNL     1       2.176   7.903  18.205  0.00  0.00    +0.000 C 
ATOM      3  O   UNL     1       2.553   8.160  17.061  0.00  0.00    +0.000 OA
ATOM      4  N   UNL     1       2.397   6.674  18.790  0.00  0.00    +0.000 N 
ATOM      5  H   UNL     1       1.580   6.298  19.249  0.00  0.00    +0.000 HD
ENDROOT
BRANCH   4   6
ATOM      6  C   UNL     1       3.246   5.735  18.150  0.00  0.00    +0.000 A 
ATOM      7  C   UNL     1       4.630   6.001  18.114  0.00  0.00    +0.000 A 
ATOM      8  C   UNL     1       5.523   5.082  17.543  0.00  0.00    +0.000 A 
ATOM      9  C   UNL     1       5.031   3.894  17.001  0.00  0.00    +0.000 A 
ATOM     10  C   UNL     1       3.660   3.621  17.039  0.00  0.00    +0.000 A 
ATOM     11  C   UNL     1       2.762   4.530  17.615  0.00  0.00    +0.000 A 
BRANCH   8  12
ATOM     12  C   UNL     1       6.994   5.314  17.528  0.00  0.00    +0.000 C 
ATOM     13  N   UNL     1       7.461   6.310  16.720  0.00  0.00    +0.000 N 
ATOM     14  O   UNL     1       7.758   4.629  18.197  0.00  0.00    +0.000 OA
ATOM     15  H   UNL     1       6.900   6.713  15.981  0.00  0.00    +0.000 HD
ATOM     16  H   UNL     1       8.471   6.382  16.627  0.00  0.00    +0.000 HD
ENDBRANCH   8  12
BRANCH  11  17
ATOM     17  O   UNL     1       1.458   4.111  17.656  0.00  0.00    +0.000 OA
ATOM     18  C   UNL     1       1.209   2.974  18.481  0.00  0.00    +0.000 C 
ENDBRANCH  11  17
ENDBRANCH   4   6
BRANCH   1  20
ATOM     19  C   UNL     1      -0.172  10.354  17.855  0.00  0.00    +0.000 C 
ATOM     20  C   UNL     1       1.260  10.138  18.346  0.00  0.00    +0.000 C 
ENDBRANCH   1  20
BRANCH   1  21
ATOM     21  C   UNL     1       1.423   8.761  20.467  0.00  0.00    +0.000 C 
BRANCH  21  22
ATOM     22  C   UNL     1       0.151   9.309  21.153  0.00  0.00    +0.000 C 
ATOM     23  C   UNL     1       0.287  10.784  21.519  0.00  0.00    +0.000 C 
ATOM     24  C   UNL     1      -0.635  10.921  22.703  0.00  0.00    +0.000 C 
ATOM     25  C   UNL     1      -0.474   9.585  23.394  0.00  0.00    +0.000 C 
ATOM     26  O   UNL     1      -0.107   8.622  22.394  0.00  0.00    +0.000 OA
ENDBRANCH  21  22
ENDBRANCH   1  21
TORSDOF 6
ENDMDL
MODEL 6
REMARK VINA RESULT:      -6.4      1.675      2.384
REMARK  Name = 
REMARK  8 active torsions:
REMARK  status: ('A' for Active; 'I' for Inactive)
REMARK    1  A    between atoms: C_1  and  C_2
REMARK    2  A    between atoms: C_2  and  N_3
REMARK    3  A    between atoms: N_3  and  C_4
REMARK    4  A    between atoms: C_4  and  C_5
REMARK    5  A    between atoms: N_12  and  C_13
REMARK    6  A    between atoms: C_15  and  C_16
REMARK    7  A    between atoms: C_21  and  O_22
REMARK    8  A    between atoms: O_22  and  C_23
REMARK                            x       y       z     vdW  Elec       q    Type
REMARK                         _______ _______ _______ _____ _____    ______ ____
ROOT
ATOM      1  N   UNL     1       3.956   5.002  18.608  0.00  0.00    +0.000 N 
ATOM      2  C   UNL     1       4.480   5.145  17.319  0.00  0.00    +0.000 C 
ATOM      3  O   UNL     1       4.466   6.222  16.723  0.00  0.00    +0.000 OA
ATOM      4  N   UNL     1       5.001   4.001  16.752  0.00  0.00    +0.000 N 
ATOM      5  H   UNL     1       4.406   3.194  16.865  0.00  0.00    +0.000 HD
ENDROOT
BRANCH   4   6
ATOM      6  C   UNL     1       5.718   4.088  15.531  0.00  0.00    +0.000 A 
ATOM      7  C   UNL     1       5.149   3.506  14.379  0.00  0.00    +0.000 A 
ATOM      8  C   UNL     1       5.786   3.610  13.134  0.00  0.00    +0.000 A 
ATOM      9  C   UNL     1       6.999   4.293  13.039  0.00  0.00    +0.000 A 
ATOM     10  C   UNL     1       7.567   4.878  14.176  0.00  0.00    +0.000 A 
ATOM     11  C   UNL     1       6.932   4.786  15.423  0.00  0.00    +0.000 A 
BRANCH   8  12
ATOM     12  C   UNL     1       5.190   3.044  11.892  0.00  0.00    +0.000 C 
ATOM     13  N   UNL     1       5.701   1.863  11.436  0.00  0.00    +0.000 N 
ATOM     14  O   UNL     1       4.293   3.621  11.291  0.00  0.00    +0.000 OA
ATOM     15  H   UNL     1       6.589   1.501  11.755  0.00  0.00    +0.000 HD
ATOM     16  H   UNL     1       5.370   1.547  10.528  0.00  0.00    +0.000 HD
ENDBRANCH   8  12
BRANCH  11  17
ATOM     17  O   UNL     1       7.550   5.464  16.440  0.00  0.00    +0.000 OA
ATOM     18  C   UNL     1       7.848   4.687  17.598  0.00  0.00    +0.000 C 
ENDBRANCH  11  17
ENDBRANCH   4   6
BRANCH   1  20
ATOM     19  C   UNL     1       1.897   6.394  19.008  0.00  0.00    +0.000 C 
ATOM     20  C   UNL     1       3.406   6.232  19.195  0.00  0.00    +0.000 C 
ENDBRANCH   1  20
BRANCH   1  21
ATOM     21  C   UNL     1       4.349   3.903  19.523  0.00  0.00    +0.000 C 
BRANCH  21  22
ATOM     22  C   UNL     1       3.243   2.916  19.965  0.00  0.00    +0.000 C 
ATOM     23  C   UNL     1       2.180   2.727  18.887  0.00  0.00    +0.000 C 
ATOM     24  C   UNL     1       0.953   2.371  19.687  0.00  0.00    +0.000 C 
ATOM     25  C   UNL     1       1.132   3.201  20.939  0.00  0.00    +0.000 C 
ATOM     26  O   UNL     1       2.541   3.408  21.123  0.00  0.00    +0.000 OA
ENDBRANCH  21  22
ENDBRANCH   1  21
TORSDOF 6
ENDMDL
MODEL 7
REMARK VINA RESULT:      -6.4      0.991      1.184
REMARK  Name = 
REMARK  8 active torsions:
REMARK  status: ('A' for Active; 'I' for Inactive)
REMARK    1  A    between atoms: C_1  and  C_2
REMARK    2  A    between atoms: C_2  and  N_3
REMARK    3  A    between atoms: N_3  and  C_4
REMARK    4  A    between atoms: C_4  and  C_5
REMARK    5  A    between atoms: N_12  and  C_13
REMARK    6  A    between atoms: C_15  and  C_16
REMARK    7  A    between atoms: C_21  and  O_22
REMARK    8  A    between atoms: O_22  and  C_23
REMARK                            x       y       z     vdW  Elec       q    Type
REMARK                         _______ _______ _______ _____ _____    ______ ____
ROOT
ATOM      1  N   UNL     1       2.365   6.892  19.136  0.00  0.00    +0.000 N 
ATOM      2  C   UNL     1       3.451   6.625  18.294  0.00  0.00    +0.000 C 
ATOM      3  O   UNL     1       3.909   7.473  17.528  0.00  0.00    +0.000 OA
ATOM      4  N   UNL     1       3.968   5.349  18.367  0.00  0.00    +0.000 N 
ATOM      5  H   UNL     1       3.258   4.631  18.361  0.00  0.00    +0.000 HD
ENDROOT
BRANCH   4   6
ATOM      6  C   UNL     1       5.178   5.043  17.693  0.00  0.00    +0.000 A 
ATOM      7  C   UNL     1       5.139   4.875  16.293  0.00  0.00    +0.000 A 
ATOM      8  C   UNL     1       6.314   4.627  15.567  0.00  0.00    +0.000 A 
ATOM      9  C   UNL     1       7.531   4.541  16.243  0.00  0.00    +0.000 A 
ATOM     10  C   UNL     1       7.579   4.712  17.630  0.00  0.00    +0.000 A 
ATOM     11  C   UNL     1       6.411   4.969  18.362  0.00  0.00    +0.000 A 
BRANCH   8  12
ATOM     12  C   UNL     1       6.312   4.487  14.085  0.00  0.00    +0.000 C 
ATOM     13  N   UNL     1       7.307   5.120  13.397  0.00  0.00    +0.000 N 
ATOM     14  O   UNL     1       5.444   3.851  13.502  0.00  0.00    +0.000 OA
ATOM     15  H   UNL     1       7.874   5.845  13.814  0.00  0.00    +0.000 HD
ATOM     16  H   UNL     1       7.229   5.117  12.384  0.00  0.00    +0.000 HD
ENDBRANCH   8  12
BRANCH  11  17
ATOM     17  O   UNL     1       6.601   5.193  19.700  0.00  0.00    +0.000 OA
ATOM     18  C   UNL     1       7.936   5.525  20.078  0.00  0.00    +0.000 C 
ENDBRANCH  11  17
ENDBRANCH   4   6
BRANCH   1  20
ATOM     19  C   UNL     1       1.238   8.786  20.352  0.00  0.00    +0.000 C 
ATOM     20  C   UNL     1       1.830   8.257  19.044  0.00  0.00    +0.000 C 
ENDBRANCH   1  20
BRANCH   1  21
ATOM     21  C   UNL     1       2.081   6.108  20.362  0.00  0.00    +0.000 C 
BRANCH  21  22
ATOM     22  C   UNL     1       2.242   4.572  20.276  0.00  0.00    +0.000 C 
ATOM     23  C   UNL     1       0.964   3.887  19.802  0.00  0.00    +0.000 C 
ATOM     24  C   UNL     1       1.065   2.521  20.429  0.00  0.00    +0.000 C 
ATOM     25  C   UNL     1       1.744   2.820  21.747  0.00  0.00    +0.000 C 
ATOM     26  O   UNL     1       2.531   4.007  21.570  0.00  0.00    +0.000 OA
ENDBRANCH  21  22
ENDBRANCH   1  21
TORSDOF 6
ENDMDL
MODEL 8
REMARK VINA RESULT:      -6.3      2.982      5.334
REMARK  Name = 
REMARK  8 active torsions:
REMARK  status: ('A' for Active; 'I' for Inactive)
REMARK    1  A    between atoms: C_1  and  C_2
REMARK    2  A    between atoms: C_2  and  N_3
REMARK    3  A    between atoms: N_3  and  C_4
REMARK    4  A    between atoms: C_4  and  C_5
REMARK    5  A    between atoms: N_12  and  C_13
REMARK    6  A    between atoms: C_15  and  C_16
REMARK    7  A    between atoms: C_21  and  O_22
REMARK    8  A    between atoms: O_22  and  C_23
REMARK                            x       y       z     vdW  Elec       q    Type
REMARK                         _______ _______ _______ _____ _____    ______ ____
ROOT
ATOM      1  N   UNL     1       1.288   8.741  19.927  0.00  0.00    +0.000 N 
ATOM      2  C   UNL     1       1.925   7.517  19.695  0.00  0.00    +0.000 C 
ATOM      3  O   UNL     1       1.877   6.590  20.504  0.00  0.00    +0.000 OA
ATOM      4  N   UNL     1       2.622   7.418  18.509  0.00  0.00    +0.000 N 
ATOM      5  H   UNL     1       3.199   8.224  18.317  0.00  0.00    +0.000 HD
ENDROOT
BRANCH   4   6
ATOM      6  C   UNL     1       3.141   6.162  18.103  0.00  0.00    +0.000 A 
ATOM      7  C   UNL     1       2.379   5.006  18.372  0.00  0.00    +0.000 A 
ATOM      8  C   UNL     1       2.817   3.743  17.945  0.00  0.00    +0.000 A 
ATOM      9  C   UNL     1       4.023   3.634  17.251  0.00  0.00    +0.000 A 
ATOM     10  C   UNL     1       4.781   4.777  16.976  0.00  0.00    +0.000 A 
ATOM     11  C   UNL     1       4.346   6.044  17.392  0.00  0.00    +0.000 A 
BRANCH   8  12
ATOM     12  C   UNL     1       2.015   2.510  18.175  0.00  0.00    +0.000 C 
ATOM     13  N   UNL     1       2.700   1.343  18.352  0.00  0.00    +0.000 N 
ATOM     14  O   UNL     1       0.791   2.534  18.185  0.00  0.00    +0.000 OA
ATOM     15  H   UNL     1       3.675   1.247  18.101  0.00  0.00    +0.000 HD
ATOM     16  H   UNL     1       2.145   0.493  18.390  0.00  0.00    +0.000 HD
ENDBRANCH   8  12
BRANCH  11  17
ATOM     17  O   UNL     1       5.139   7.088  16.995  0.00  0.00    +0.000 OA
ATOM     18  C   UNL     1       6.535   6.920  17.236  0.00  0.00    +0.000 C 
ENDBRANCH  11  17
ENDBRANCH   4   6
BRANCH   1  20
ATOM     19  C   UNL     1       1.355   9.432  22.347  0.00  0.00    +0.000 C 
ATOM     20  C   UNL     1       0.551   8.827  21.195  0.00  0.00    +0.000 C 
ENDBRANCH   1  20
BRANCH   1  21
ATOM     21  C   UNL     1       0.926   9.683  18.840  0.00  0.00    +0.000 C 
BRANCH  21  22
ATOM     22  C   UNL     1      -0.410  10.448  18.980  0.00  0.00    +0.000 C 
ATOM     23  C   UNL     1      -1.345  10.190  17.802  0.00  0.00    +0.000 C 
ATOM     24  C   UNL     1      -2.172  11.449  17.749  0.00  0.00    +0.000 C 
ATOM     25  C   UNL     1      -1.175  12.508  18.167  0.00  0.00    +0.000 C 
ATOM     26  O   UNL     1      -0.193  11.873  19.000  0.00  0.00    +0.000 OA
ENDBRANCH  21  22
ENDBRANCH   1  21
TORSDOF 6
ENDMDL
MODEL 9
REMARK VINA RESULT:      -6.3      1.410      1.513
REMARK  Name = 
REMARK  8 active torsions:
REMARK  status: ('A' for Active; 'I' for Inactive)
REMARK    1  A    between atoms: C_1  and  C_2
REMARK    2  A    between atoms: C_2  and  N_3
REMARK    3  A    between atoms: N_3  and  C_4
REMARK    4  A    between atoms: C_4  and  C_5
REMARK    5  A    between atoms: N_12  and  C_13
REMARK    6  A    between atoms: C_15  and  C_16
REMARK    7  A    between atoms: C_21  and  O_22
REMARK    8  A    between atoms: O_22  and  C_23
REMARK                            x       y       z     vdW  Elec       q    Type
REMARK                         _______ _______ _______ _____ _____    ______ ____
ROOT
ATOM      1  N   UNL     1       3.092   6.169  18.746  0.00  0.00    +0.000 N 
ATOM      2  C   UNL     1       3.893   6.111  17.599  0.00  0.00    +0.000 C 
ATOM      3  O   UNL     1       3.990   7.060  16.820  0.00  0.00    +0.000 OA
ATOM      4  N   UNL     1       4.556   4.921  17.390  0.00  0.00    +0.000 N 
ATOM      5  H   UNL     1       3.971   4.110  17.521  0.00  0.00    +0.000 HD
ENDROOT
BRANCH   4   6
ATOM      6  C   UNL     1       5.530   4.833  16.362  0.00  0.00    +0.000 A 
ATOM      7  C   UNL     1       5.159   4.237  15.139  0.00  0.00    +0.000 A 
ATOM      8  C   UNL     1       6.063   4.173  14.068  0.00  0.00    +0.000 A 
ATOM      9  C   UNL     1       7.345   4.701  14.221  0.00  0.00    +0.000 A 
ATOM     10  C   UNL     1       7.719   5.299  15.430  0.00  0.00    +0.000 A 
ATOM     11  C   UNL     1       6.819   5.375  16.501  0.00  0.00    +0.000 A 
BRANCH   8  12
ATOM     12  C   UNL     1       5.688   3.590  12.751  0.00  0.00    +0.000 C 
ATOM     13  N   UNL     1       4.397   3.757  12.339  0.00  0.00    +0.000 N 
ATOM     14  O   UNL     1       6.494   2.967  12.072  0.00  0.00    +0.000 OA
ATOM     15  H   UNL     1       3.660   4.035  12.973  0.00  0.00    +0.000 HD
ATOM     16  H   UNL     1       4.121   3.257  11.498  0.00  0.00    +0.000 HD
ENDBRANCH   8  12
BRANCH  11  17
ATOM     17  O   UNL     1       7.280   6.050  17.600  0.00  0.00    +0.000 OA
ATOM     18  C   UNL     1       7.539   7.438  17.399  0.00  0.00    +0.000 C 
ENDBRANCH  11  17
ENDBRANCH   4   6
BRANCH   1  20
ATOM     19  C   UNL     1       1.909   7.668  20.385  0.00  0.00    +0.000 C 
ATOM     20  C   UNL     1       2.395   7.446  18.952  0.00  0.00    +0.000 C 
ENDBRANCH   1  20
BRANCH   1  21
ATOM     21  C   UNL     1       3.293   5.282  19.917  0.00  0.00    +0.000 C 
BRANCH  21  22
ATOM     22  C   UNL     1       2.327   4.085  20.074  0.00  0.00    +0.000 C 
ATOM     23  C   UNL     1       3.035   2.747  19.876  0.00  0.00    +0.000 C 
ATOM     24  C   UNL     1       1.927   1.854  19.380  0.00  0.00    +0.000 C 
ATOM     25  C   UNL     1       1.093   2.804  18.550  0.00  0.00    +0.000 C 
ATOM     26  O   UNL     1       1.284   4.124  19.081  0.00  0.00    +0.000 OA
ENDBRANCH  21  22
ENDBRANCH   1  21
TORSDOF 6
ENDMDL
