MODEL 1
REMARK VINA RESULT:      -8.3      0.000      0.000
REMARK  Name = 
REMARK  5 active torsions:
REMARK  status: ('A' for Active; 'I' for Inactive)
REMARK    1  A    between atoms: N_3  and  C_4
REMARK    2  A    between atoms: C_4  and  C_5
REMARK    3  A    between atoms: C_5  and  C_6
REMARK    4  A    between atoms: N_13  and  C_14
REMARK    5  A    between atoms: N_18  and  C_19
REMARK                            x       y       z     vdW  Elec       q    Type
REMARK                         _______ _______ _______ _____ _____    ______ ____
ROOT
ATOM      1  O   UNL     1       4.777   5.031  19.594  0.00  0.00    +0.000 OA
ATOM      2  C   UNL     1       5.370   4.042  19.223  0.00  0.00    +0.000 C 
ATOM      3  N   UNL     1       5.114   2.738  19.514  0.00  0.00    +0.000 N 
ATOM      4  N   UNL     1       6.444   4.125  18.305  0.00  0.00    +0.000 N 
ATOM      5  H   UNL     1       5.755   2.011  19.239  0.00  0.00    +0.000 HD
ATOM      6  H   UNL     1       6.761   3.298  17.822  0.00  0.00    +0.000 HD
ENDROOT
BRANCH   4   7
ATOM      7  C   UNL     1       6.905   5.355  17.860  0.00  0.00    +0.000 A 
ATOM      8  C   UNL     1       7.360   6.417  18.613  0.00  0.00    +0.000 A 
ATOM      9  N   UNL     1       7.930   7.346  17.790  0.00  0.00    +0.000 NA
ATOM     10  N   UNL     1       7.844   6.902  16.542  0.00  0.00    +0.000 NA
ATOM     11  N   UNL     1       7.138   5.749  16.550  0.00  0.00    +0.000 N 
BRANCH  11  12
ATOM     12  C   UNL     1       6.677   5.136  15.361  0.00  0.00    +0.000 A 
ATOM     13  C   UNL     1       5.434   4.490  15.358  0.00  0.00    +0.000 A 
ATOM     14  C   UNL     1       4.983   3.863  14.196  0.00  0.00    +0.000 A 
ATOM     15  C   UNL     1       5.779   3.850  13.050  0.00  0.00    +0.000 A 
ATOM     16  C   UNL     1       7.025   4.471  13.059  0.00  0.00    +0.000 A 
ATOM     17  C   UNL     1       7.475   5.123  14.207  0.00  0.00    +0.000 A 
ENDBRANCH  11  12
ENDBRANCH   4   7
BRANCH   3  18
ATOM     18  C   UNL     1       4.047   2.370  20.425  0.00  0.00    +0.000 C 
BRANCH  18  19
ATOM     19  C   UNL     1       2.901   1.636  19.719  0.00  0.00    +0.000 C 
BRANCH  19  20
ATOM     20  C   UNL     1       1.557   2.381  19.870  0.00  0.00    +0.000 C 
ATOM     21  C   UNL     1       1.736   3.779  20.494  0.00  0.00    +0.000 C 
ATOM     22  C   UNL     1       1.663   4.796  19.347  0.00  0.00    +0.000 C 
ATOM     23  C   UNL     1       1.497   3.972  18.088  0.00  0.00    +0.000 C 
ATOM     24  F   UNL     1       0.763   4.602  17.156  0.00  0.00    +0.000 F 
ATOM     25  F   UNL     1       2.708   3.705  17.541  0.00  0.00    +0.000 F 
ATOM     26  C   UNL     1       0.849   2.683  18.545  0.00  0.00    +0.000 C 
ENDBRANCH  19  20
ENDBRANCH  18  19
ENDBRANCH   3  18
TORSDOF 5
ENDMDL
MODEL 2
REMARK VINA RESULT:      -8.3      0.365      1.053
REMARK  Name = 
REMARK  5 active torsions:
REMARK  status: ('A' for Active; 'I' for Inactive)
REMARK    1  A    between atoms: N_3  and  C_4
REMARK    2  A    between atoms: C_4  and  C_5
REMARK    3  A    between atoms: C_5  and  C_6
REMARK    4  A    between atoms: N_13  and  C_14
REMARK    5  A    between atoms: N_18  and  C_19
REMARK                            x       y       z     vdW  Elec       q    Type
REMARK                         _______ _______ _______ _____ _____    ______ ____
ROOT
ATOM      1  O   UNL     1       4.877   5.145  19.325  0.00  0.00    +0.000 OA
ATOM      2  C   UNL     1       5.409   4.127  18.942  0.00  0.00    +0.000 C 
ATOM      3  N   UNL     1       5.133   2.841  19.290  0.00  0.00    +0.000 N 
ATOM      4  N   UNL     1       6.411   4.147  17.944  0.00  0.00    +0.000 N 
ATOM      5  H   UNL     1       5.728   2.085  18.991  0.00  0.00    +0.000 HD
ATOM      6  H   UNL     1       6.665   3.296  17.464  0.00  0.00    +0.000 HD
ENDROOT
BRANCH   4   7
ATOM      7  C   UNL     1       6.876   5.347  17.427  0.00  0.00    +0.000 A 
ATOM      8  C   UNL     1       7.302   6.463  18.117  0.00  0.00    +0.000 A 
ATOM      9  N   UNL     1       7.889   7.338  17.248  0.00  0.00    +0.000 NA
ATOM     10  N   UNL     1       7.842   6.808  16.032  0.00  0.00    +0.000 NA
ATOM     11  N   UNL     1       7.144   5.651  16.100  0.00  0.00    +0.000 N 
BRANCH  11  12
ATOM     12  C   UNL     1       6.722   4.954  14.944  0.00  0.00    +0.000 A 
ATOM     13  C   UNL     1       7.569   4.893  13.829  0.00  0.00    +0.000 A 
ATOM     14  C   UNL     1       7.150   4.228  12.677  0.00  0.00    +0.000 A 
ATOM     15  C   UNL     1       5.880   3.653  12.620  0.00  0.00    +0.000 A 
ATOM     16  C   UNL     1       5.027   3.733  13.719  0.00  0.00    +0.000 A 
ATOM     17  C   UNL     1       5.446   4.374  14.884  0.00  0.00    +0.000 A 
ENDBRANCH  11  12
ENDBRANCH   4   7
BRANCH   3  18
ATOM     18  C   UNL     1       4.128   2.535  20.290  0.00  0.00    +0.000 C 
BRANCH  18  19
ATOM     19  C   UNL     1       2.932   1.776  19.704  0.00  0.00    +0.000 C 
BRANCH  19  20
ATOM     20  C   UNL     1       1.610   2.555  19.881  0.00  0.00    +0.000 C 
ATOM     21  C   UNL     1       1.843   3.977  20.426  0.00  0.00    +0.000 C 
ATOM     22  C   UNL     1       1.735   4.939  19.235  0.00  0.00    +0.000 C 
ATOM     23  C   UNL     1       1.494   4.058  18.027  0.00  0.00    +0.000 C 
ATOM     24  F   UNL     1       0.728   4.657  17.101  0.00  0.00    +0.000 F 
ATOM     25  F   UNL     1       2.673   3.740  17.439  0.00  0.00    +0.000 F 
ATOM     26  C   UNL     1       0.845   2.806  18.577  0.00  0.00    +0.000 C 
ENDBRANCH  19  20
ENDBRANCH  18  19
ENDBRANCH   3  18
TORSDOF 5
ENDMDL
MODEL 3
REMARK VINA RESULT:      -8.1      5.207      8.389
REMARK  Name = 
REMARK  5 active torsions:
REMARK  status: ('A' for Active; 'I' for Inactive)
REMARK    1  A    between atoms: N_3  and  C_4
REMARK    2  A    between atoms: C_4  and  C_5
REMARK    3  A    between atoms: C_5  and  C_6
REMARK    4  A    between atoms: N_13  and  C_14
REMARK    5  A    between atoms: N_18  and  C_19
REMARK                            x       y       z     vdW  Elec       q    Type
REMARK                         _______ _______ _______ _____ _____    ______ ____
ROOT
ATOM      1  O   UNL     1       6.843   7.937  16.603  0.00  0.00    +0.000 OA
ATOM      2  C   UNL     1       7.473   7.454  17.518  0.00  0.00    +0.000 C 
ATOM      3  N   UNL     1       8.274   8.080  18.422  0.00  0.00    +0.000 N 
ATOM      4  N   UNL     1       7.383   6.077  17.832  0.00  0.00    +0.000 N 
ATOM      5  H   UNL     1       8.840   7.550  19.066  0.00  0.00    +0.000 HD
ATOM      6  H   UNL     1       7.708   5.740  18.727  0.00  0.00    +0.000 HD
ENDROOT
BRANCH   4   7
ATOM      7  C   UNL     1       6.629   5.217  17.048  0.00  0.00    +0.000 A 
ATOM      8  C   UNL     1       7.055   4.422  16.005  0.00  0.00    +0.000 A 
ATOM      9  N   UNL     1       6.055   3.564  15.649  0.00  0.00    +0.000 NA
ATOM     10  N   UNL     1       5.010   3.797  16.434  0.00  0.00    +0.000 NA
ATOM     11  N   UNL     1       5.299   4.859  17.220  0.00  0.00    +0.000 N 
BRANCH  11  12
ATOM     12  C   UNL     1       4.319   5.503  18.012  0.00  0.00    +0.000 A 
ATOM     13  C   UNL     1       3.751   6.703  17.563  0.00  0.00    +0.000 A 
ATOM     14  C   UNL     1       2.803   7.355  18.349  0.00  0.00    +0.000 A 
ATOM     15  C   UNL     1       2.442   6.836  19.593  0.00  0.00    +0.000 A 
ATOM     16  C   UNL     1       3.023   5.656  20.051  0.00  0.00    +0.000 A 
ATOM     17  C   UNL     1       3.955   4.981  19.262  0.00  0.00    +0.000 A 
ENDBRANCH  11  12
ENDBRANCH   4   7
BRANCH   3  18
ATOM     18  C   UNL     1       8.526   9.506  18.338  0.00  0.00    +0.000 C 
BRANCH  18  19
ATOM     19  C   UNL     1       9.498   9.993  19.419  0.00  0.00    +0.000 C 
BRANCH  19  20
ATOM     20  C   UNL     1       9.470  11.529  19.571  0.00  0.00    +0.000 C 
ATOM     21  C   UNL     1      10.496  12.028  20.606  0.00  0.00    +0.000 C 
ATOM     22  C   UNL     1      11.699  12.572  19.823  0.00  0.00    +0.000 C 
ATOM     23  C   UNL     1      11.370  12.332  18.364  0.00  0.00    +0.000 C 
ATOM     24  F   UNL     1      11.885  13.277  17.560  0.00  0.00    +0.000 F 
ATOM     25  F   UNL     1      11.870  11.138  17.963  0.00  0.00    +0.000 F 
ATOM     26  C   UNL     1       9.858  12.297  18.303  0.00  0.00    +0.000 C 
ENDBRANCH  19  20
ENDBRANCH  18  19
ENDBRANCH   3  18
TORSDOF 5
ENDMDL
MODEL 4
REMARK VINA RESULT:      -8.1      1.690      1.976
REMARK  Name = 
REMARK  5 active torsions:
REMARK  status: ('A' for Active; 'I' for Inactive)
REMARK    1  A    between atoms: N_3  and  C_4
REMARK    2  A    between atoms: C_4  and  C_5
REMARK    3  A    between atoms: C_5  and  C_6
REMARK    4  A    between atoms: N_13  and  C_14
REMARK    5  A    between atoms: N_18  and  C_19
REMARK                            x       y       z     vdW  Elec       q    Type
REMARK                         _______ _______ _______ _____ _____    ______ ____
ROOT
ATOM      1  O   UNL     1       5.206   3.573  18.294  0.00  0.00    +0.000 OA
ATOM      2  C   UNL     1       4.336   3.821  17.487  0.00  0.00    +0.000 C 
ATOM      3  N   UNL     1       3.125   3.221  17.333  0.00  0.00    +0.000 N 
ATOM      4  N   UNL     1       4.452   4.903  16.583  0.00  0.00    +0.000 N 
ATOM      5  H   UNL     1       2.536   3.439  16.545  0.00  0.00    +0.000 HD
ATOM      6  H   UNL     1       3.636   5.245  16.097  0.00  0.00    +0.000 HD
ENDROOT
BRANCH   4   7
ATOM      7  C   UNL     1       5.606   5.671  16.537  0.00  0.00    +0.000 A 
ATOM      8  C   UNL     1       6.050   6.595  17.459  0.00  0.00    +0.000 A 
ATOM      9  N   UNL     1       7.330   6.961  17.155  0.00  0.00    +0.000 NA
ATOM     10  N   UNL     1       7.703   6.298  16.067  0.00  0.00    +0.000 NA
ATOM     11  N   UNL     1       6.643   5.589  15.618  0.00  0.00    +0.000 N 
BRANCH  11  12
ATOM     12  C   UNL     1       6.639   4.951  14.356  0.00  0.00    +0.000 A 
ATOM     13  C   UNL     1       5.656   3.993  14.072  0.00  0.00    +0.000 A 
ATOM     14  C   UNL     1       5.662   3.343  12.838  0.00  0.00    +0.000 A 
ATOM     15  C   UNL     1       6.658   3.618  11.902  0.00  0.00    +0.000 A 
ATOM     16  C   UNL     1       7.649   4.553  12.192  0.00  0.00    +0.000 A 
ATOM     17  C   UNL     1       7.640   5.228  13.412  0.00  0.00    +0.000 A 
ENDBRANCH  11  12
ENDBRANCH   4   7
BRANCH   3  18
ATOM     18  C   UNL     1       2.742   2.085  18.151  0.00  0.00    +0.000 C 
BRANCH  18  19
ATOM     19  C   UNL     1       1.323   2.221  18.714  0.00  0.00    +0.000 C 
BRANCH  19  20
ATOM     20  C   UNL     1       1.329   2.581  20.215  0.00  0.00    +0.000 C 
ATOM     21  C   UNL     1       2.752   2.845  20.743  0.00  0.00    +0.000 C 
ATOM     22  C   UNL     1       2.925   4.368  20.831  0.00  0.00    +0.000 C 
ATOM     23  C   UNL     1       1.628   4.950  20.310  0.00  0.00    +0.000 C 
ATOM     24  F   UNL     1       1.309   6.109  20.909  0.00  0.00    +0.000 F 
ATOM     25  F   UNL     1       1.726   5.192  18.980  0.00  0.00    +0.000 F 
ATOM     26  C   UNL     1       0.588   3.879  20.557  0.00  0.00    +0.000 C 
ENDBRANCH  19  20
ENDBRANCH  18  19
ENDBRANCH   3  18
TORSDOF 5
ENDMDL
MODEL 5
REMARK VINA RESULT:      -8.1      5.429      8.653
REMARK  Name = 
REMARK  5 active torsions:
REMARK  status: ('A' for Active; 'I' for Inactive)
REMARK    1  A    between atoms: N_3  and  C_4
REMARK    2  A    between atoms: C_4  and  C_5
REMARK    3  A    between atoms: C_5  and  C_6
REMARK    4  A    between atoms: N_13  and  C_14
REMARK    5  A    between atoms: N_18  and  C_19
REMARK                            x       y       z     vdW  Elec       q    Type
REMARK                         _______ _______ _______ _____ _____    ______ ____
ROOT
ATOM      1  O   UNL     1       7.926   6.640  18.593  0.00  0.00    +0.000 OA
ATOM      2  C   UNL     1       7.630   7.504  17.797  0.00  0.00    +0.000 C 
ATOM      3  N   UNL     1       8.015   8.809  17.778  0.00  0.00    +0.000 N 
ATOM      4  N   UNL     1       6.846   7.220  16.654  0.00  0.00    +0.000 N 
ATOM      5  H   UNL     1       7.604   9.460  17.128  0.00  0.00    +0.000 HD
ATOM      6  H   UNL     1       6.816   7.875  15.886  0.00  0.00    +0.000 HD
ENDROOT
BRANCH   4   7
ATOM      7  C   UNL     1       6.322   5.953  16.448  0.00  0.00    +0.000 A 
ATOM      8  C   UNL     1       6.835   4.935  15.672  0.00  0.00    +0.000 A 
ATOM      9  N   UNL     1       6.143   3.784  15.916  0.00  0.00    +0.000 NA
ATOM     10  N   UNL     1       5.206   4.048  16.819  0.00  0.00    +0.000 NA
ATOM     11  N   UNL     1       5.230   5.375  17.080  0.00  0.00    +0.000 N 
BRANCH  11  12
ATOM     12  C   UNL     1       4.216   6.017  17.828  0.00  0.00    +0.000 A 
ATOM     13  C   UNL     1       3.687   7.231  17.370  0.00  0.00    +0.000 A 
ATOM     14  C   UNL     1       2.704   7.882  18.116  0.00  0.00    +0.000 A 
ATOM     15  C   UNL     1       2.271   7.346  19.328  0.00  0.00    +0.000 A 
ATOM     16  C   UNL     1       2.813   6.151  19.797  0.00  0.00    +0.000 A 
ATOM     17  C   UNL     1       3.778   5.479  19.048  0.00  0.00    +0.000 A 
ENDBRANCH  11  12
ENDBRANCH   4   7
BRANCH   3  18
ATOM     18  C   UNL     1       8.842   9.361  18.833  0.00  0.00    +0.000 C 
BRANCH  18  19
ATOM     19  C   UNL     1       9.206  10.830  18.584  0.00  0.00    +0.000 C 
BRANCH  19  20
ATOM     20  C   UNL     1      10.660  11.143  19.001  0.00  0.00    +0.000 C 
ATOM     21  C   UNL     1      11.379  12.036  17.970  0.00  0.00    +0.000 C 
ATOM     22  C   UNL     1      11.378  13.463  18.533  0.00  0.00    +0.000 C 
ATOM     23  C   UNL     1      10.622  13.380  19.841  0.00  0.00    +0.000 C 
ATOM     24  F   UNL     1      11.076  14.255  20.753  0.00  0.00    +0.000 F 
ATOM     25  F   UNL     1       9.308  13.646  19.639  0.00  0.00    +0.000 F 
ATOM     26  C   UNL     1      10.786  11.947  20.300  0.00  0.00    +0.000 C 
ENDBRANCH  19  20
ENDBRANCH  18  19
ENDBRANCH   3  18
TORSDOF 5
ENDMDL
MODEL 6
REMARK VINA RESULT:      -8.0      5.271      8.525
REMARK  Name = 
REMARK  5 active torsions:
REMARK  status: ('A' for Active; 'I' for Inactive)
REMARK    1  A    between atoms: N_3  and  C_4
REMARK    2  A    between atoms: C_4  and  C_5
REMARK    3  A    between atoms: C_5  and  C_6
REMARK    4  A    between atoms: N_13  and  C_14
REMARK    5  A    between atoms: N_18  and  C_19
REMARK                            x       y       z     vdW  Elec       q    Type
REMARK                         _______ _______ _______ _____ _____    ______ ____
ROOT
ATOM      1  O   UNL     1       7.835   6.499  18.405  0.00  0.00    +0.000 OA
ATOM      2  C   UNL     1       7.494   7.363  17.627  0.00  0.00    +0.000 C 
ATOM      3  N   UNL     1       7.873   8.669  17.587  0.00  0.00    +0.000 N 
ATOM      4  N   UNL     1       6.652   7.075  16.527  0.00  0.00    +0.000 N 
ATOM      5  H   UNL     1       7.425   9.318  16.960  0.00  0.00    +0.000 HD
ATOM      6  H   UNL     1       6.578   7.730  15.762  0.00  0.00    +0.000 HD
ENDROOT
BRANCH   4   7
ATOM      7  C   UNL     1       6.122   5.806  16.349  0.00  0.00    +0.000 A 
ATOM      8  C   UNL     1       6.568   4.808  15.508  0.00  0.00    +0.000 A 
ATOM      9  N   UNL     1       5.913   3.645  15.796  0.00  0.00    +0.000 NA
ATOM     10  N   UNL     1       5.066   3.882  16.790  0.00  0.00    +0.000 NA
ATOM     11  N   UNL     1       5.102   5.204  17.072  0.00  0.00    +0.000 N 
BRANCH  11  12
ATOM     12  C   UNL     1       4.160   5.821  17.928  0.00  0.00    +0.000 A 
ATOM     13  C   UNL     1       3.788   5.180  19.117  0.00  0.00    +0.000 A 
ATOM     14  C   UNL     1       2.841   5.770  19.954  0.00  0.00    +0.000 A 
ATOM     15  C   UNL     1       2.241   6.978  19.596  0.00  0.00    +0.000 A 
ATOM     16  C   UNL     1       2.592   7.605  18.402  0.00  0.00    +0.000 A 
ATOM     17  C   UNL     1       3.556   7.036  17.570  0.00  0.00    +0.000 A 
ENDBRANCH  11  12
ENDBRANCH   4   7
BRANCH   3  18
ATOM     18  C   UNL     1       8.752   9.224  18.597  0.00  0.00    +0.000 C 
BRANCH  18  19
ATOM     19  C   UNL     1       9.036  10.714  18.371  0.00  0.00    +0.000 C 
BRANCH  19  20
ATOM     20  C   UNL     1      10.503  11.078  18.687  0.00  0.00    +0.000 C 
ATOM     21  C   UNL     1      11.047  12.166  17.741  0.00  0.00    +0.000 C 
ATOM     22  C   UNL     1      11.017  13.491  18.515  0.00  0.00    +0.000 C 
ATOM     23  C   UNL     1      10.414  13.156  19.863  0.00  0.00    +0.000 C 
ATOM     24  F   UNL     1      10.908  13.921  20.850  0.00  0.00    +0.000 F 
ATOM     25  F   UNL     1       9.072  13.344  19.834  0.00  0.00    +0.000 F 
ATOM     26  C   UNL     1      10.718  11.689  20.076  0.00  0.00    +0.000 C 
ENDBRANCH  19  20
ENDBRANCH  18  19
ENDBRANCH   3  18
TORSDOF 5
ENDMDL
MODEL 7
REMARK VINA RESULT:      -8.0      5.398      8.541
REMARK  Name = 
REMARK  5 active torsions:
REMARK  status: ('A' for Active; 'I' for Inactive)
REMARK    1  A    between atoms: N_3  and  C_4
REMARK    2  A    between atoms: C_4  and  C_5
REMARK    3  A    between atoms: C_5  and  C_6
REMARK    4  A    between atoms: N_13  and  C_14
REMARK    5  A    between atoms: N_18  and  C_19
REMARK                            x       y       z     vdW  Elec       q    Type
REMARK                         _______ _______ _______ _____ _____    ______ ____
ROOT
ATOM      1  O   UNL     1       8.010   6.477  18.560  0.00  0.00    +0.000 OA
ATOM      2  C   UNL     1       7.710   7.407  17.844  0.00  0.00    +0.000 C 
ATOM      3  N   UNL     1       8.118   8.703  17.919  0.00  0.00    +0.000 N 
ATOM      4  N   UNL     1       6.892   7.228  16.703  0.00  0.00    +0.000 N 
ATOM      5  H   UNL     1       7.702   9.410  17.334  0.00  0.00    +0.000 HD
ATOM      6  H   UNL     1       6.854   7.944  15.992  0.00  0.00    +0.000 HD
ENDROOT
BRANCH   4   7
ATOM      7  C   UNL     1       6.340   5.991  16.411  0.00  0.00    +0.000 A 
ATOM      8  C   UNL     1       6.837   5.012  15.577  0.00  0.00    +0.000 A 
ATOM      9  N   UNL     1       6.114   3.865  15.739  0.00  0.00    +0.000 NA
ATOM     10  N   UNL     1       5.174   4.094  16.647  0.00  0.00    +0.000 NA
ATOM     11  N   UNL     1       5.227   5.400  16.993  0.00  0.00    +0.000 N 
BRANCH  11  12
ATOM     12  C   UNL     1       4.220   6.018  17.772  0.00  0.00    +0.000 A 
ATOM     13  C   UNL     1       3.668   7.233  17.344  0.00  0.00    +0.000 A 
ATOM     14  C   UNL     1       2.693   7.860  18.119  0.00  0.00    +0.000 A 
ATOM     15  C   UNL     1       2.289   7.299  19.331  0.00  0.00    +0.000 A 
ATOM     16  C   UNL     1       2.854   6.104  19.769  0.00  0.00    +0.000 A 
ATOM     17  C   UNL     1       3.812   5.455  18.991  0.00  0.00    +0.000 A 
ENDBRANCH  11  12
ENDBRANCH   4   7
BRANCH   3  18
ATOM     18  C   UNL     1       8.981   9.155  18.992  0.00  0.00    +0.000 C 
BRANCH  18  19
ATOM     19  C   UNL     1       9.003  10.683  19.122  0.00  0.00    +0.000 C 
BRANCH  19  20
ATOM     20  C   UNL     1       9.727  11.353  17.934  0.00  0.00    +0.000 C 
ATOM     21  C   UNL     1       9.124  12.729  17.589  0.00  0.00    +0.000 C 
ATOM     22  C   UNL     1      10.058  13.792  18.184  0.00  0.00    +0.000 C 
ATOM     23  C   UNL     1      11.146  13.017  18.899  0.00  0.00    +0.000 C 
ATOM     24  F   UNL     1      12.329  13.651  18.871  0.00  0.00    +0.000 F 
ATOM     25  F   UNL     1      10.811  12.834  20.199  0.00  0.00    +0.000 F 
ATOM     26  C   UNL     1      11.202  11.678  18.195  0.00  0.00    +0.000 C 
ENDBRANCH  19  20
ENDBRANCH  18  19
ENDBRANCH   3  18
TORSDOF 5
ENDMDL
MODEL 8
REMARK VINA RESULT:      -7.9      5.597      8.764
REMARK  Name = 
REMARK  5 active torsions:
REMARK  status: ('A' for Active; 'I' for Inactive)
REMARK    1  A    between atoms: N_3  and  C_4
REMARK    2  A    between atoms: C_4  and  C_5
REMARK    3  A    between atoms: C_5  and  C_6
REMARK    4  A    between atoms: N_13  and  C_14
REMARK    5  A    between atoms: N_18  and  C_19
REMARK                            x       y       z     vdW  Elec       q    Type
REMARK                         _______ _______ _______ _____ _____    ______ ____
ROOT
ATOM      1  O   UNL     1       8.076   6.863  18.587  0.00  0.00    +0.000 OA
ATOM      2  C   UNL     1       7.695   7.697  17.795  0.00  0.00    +0.000 C 
ATOM      3  N   UNL     1       8.028   9.014  17.723  0.00  0.00    +0.000 N 
ATOM      4  N   UNL     1       6.849   7.357  16.713  0.00  0.00    +0.000 N 
ATOM      5  H   UNL     1       7.551   9.634  17.089  0.00  0.00    +0.000 HD
ATOM      6  H   UNL     1       6.743   7.993  15.936  0.00  0.00    +0.000 HD
ENDROOT
BRANCH   4   7
ATOM      7  C   UNL     1       6.361   6.068  16.570  0.00  0.00    +0.000 A 
ATOM      8  C   UNL     1       6.899   5.031  15.837  0.00  0.00    +0.000 A 
ATOM      9  N   UNL     1       6.242   3.872  16.138  0.00  0.00    +0.000 NA
ATOM     10  N   UNL     1       5.304   4.149  17.036  0.00  0.00    +0.000 NA
ATOM     11  N   UNL     1       5.291   5.487  17.235  0.00  0.00    +0.000 N 
BRANCH  11  12
ATOM     12  C   UNL     1       4.264   6.132  17.962  0.00  0.00    +0.000 A 
ATOM     13  C   UNL     1       3.846   5.595  19.188  0.00  0.00    +0.000 A 
ATOM     14  C   UNL     1       2.817   6.213  19.899  0.00  0.00    +0.000 A 
ATOM     15  C   UNL     1       2.182   7.341  19.380  0.00  0.00    +0.000 A 
ATOM     16  C   UNL     1       2.579   7.862  18.150  0.00  0.00    +0.000 A 
ATOM     17  C   UNL     1       3.624   7.268  17.443  0.00  0.00    +0.000 A 
ENDBRANCH  11  12
ENDBRANCH   4   7
BRANCH   3  18
ATOM     18  C   UNL     1       8.902   9.621  18.709  0.00  0.00    +0.000 C 
BRANCH  18  19
ATOM     19  C   UNL     1       9.348  11.031  18.307  0.00  0.00    +0.000 C 
BRANCH  19  20
ATOM     20  C   UNL     1       9.995  11.791  19.485  0.00  0.00    +0.000 C 
ATOM     21  C   UNL     1      11.512  11.535  19.576  0.00  0.00    +0.000 C 
ATOM     22  C   UNL     1      12.212  12.763  18.979  0.00  0.00    +0.000 C 
ATOM     23  C   UNL     1      11.097  13.674  18.511  0.00  0.00    +0.000 C 
ATOM     24  F   UNL     1      11.421  14.974  18.611  0.00  0.00    +0.000 F 
ATOM     25  F   UNL     1      10.805  13.426  17.211  0.00  0.00    +0.000 F 
ATOM     26  C   UNL     1       9.908  13.317  19.377  0.00  0.00    +0.000 C 
ENDBRANCH  19  20
ENDBRANCH  18  19
ENDBRANCH   3  18
TORSDOF 5
ENDMDL
MODEL 9
REMARK VINA RESULT:      -7.9      1.458      1.982
REMARK  Name = 
REMARK  5 active torsions:
REMARK  status: ('A' for Active; 'I' for Inactive)
REMARK    1  A    between atoms: N_3  and  C_4
REMARK    2  A    between atoms: C_4  and  C_5
REMARK    3  A    between atoms: C_5  and  C_6
REMARK    4  A    between atoms: N_13  and  C_14
REMARK    5  A    between atoms: N_18  and  C_19
REMARK                            x       y       z     vdW  Elec       q    Type
REMARK                         _______ _______ _______ _____ _____    ______ ____
ROOT
ATOM      1  O   UNL     1       4.912   4.026  19.075  0.00  0.00    +0.000 OA
ATOM      2  C   UNL     1       4.712   3.421  18.045  0.00  0.00    +0.000 C 
ATOM      3  N   UNL     1       3.950   2.311  17.846  0.00  0.00    +0.000 N 
ATOM      4  N   UNL     1       5.225   3.877  16.808  0.00  0.00    +0.000 N 
ATOM      5  H   UNL     1       3.959   1.831  16.960  0.00  0.00    +0.000 HD
ATOM      6  H   UNL     1       4.854   3.514  15.942  0.00  0.00    +0.000 HD
ENDROOT
BRANCH   4   7
ATOM      7  C   UNL     1       6.045   4.993  16.747  0.00  0.00    +0.000 A 
ATOM      8  C   UNL     1       6.291   5.924  17.734  0.00  0.00    +0.000 A 
ATOM      9  N   UNL     1       7.323   6.732  17.350  0.00  0.00    +0.000 NA
ATOM     10  N   UNL     1       7.731   6.341  16.149  0.00  0.00    +0.000 NA
ATOM     11  N   UNL     1       6.907   5.357  15.722  0.00  0.00    +0.000 N 
BRANCH  11  12
ATOM     12  C   UNL     1       6.930   4.877  14.392  0.00  0.00    +0.000 A 
ATOM     13  C   UNL     1       7.782   5.480  13.457  0.00  0.00    +0.000 A 
ATOM     14  C   UNL     1       7.793   5.028  12.138  0.00  0.00    +0.000 A 
ATOM     15  C   UNL     1       6.936   4.001  11.739  0.00  0.00    +0.000 A 
ATOM     16  C   UNL     1       6.071   3.417  12.661  0.00  0.00    +0.000 A 
ATOM     17  C   UNL     1       6.070   3.844  13.989  0.00  0.00    +0.000 A 
ENDBRANCH  11  12
ENDBRANCH   4   7
BRANCH   3  18
ATOM     18  C   UNL     1       3.292   1.646  18.953  0.00  0.00    +0.000 C 
BRANCH  18  19
ATOM     19  C   UNL     1       1.786   1.930  18.995  0.00  0.00    +0.000 C 
BRANCH  19  20
ATOM     20  C   UNL     1       1.325   2.401  20.392  0.00  0.00    +0.000 C 
ATOM     21  C   UNL     1       2.514   2.761  21.304  0.00  0.00    +0.000 C 
ATOM     22  C   UNL     1       2.628   4.291  21.313  0.00  0.00    +0.000 C 
ATOM     23  C   UNL     1       1.545   4.781  20.375  0.00  0.00    +0.000 C 
ATOM     24  F   UNL     1       1.040   5.968  20.749  0.00  0.00    +0.000 F 
ATOM     25  F   UNL     1       2.043   4.926  19.122  0.00  0.00    +0.000 F 
ATOM     26  C   UNL     1       0.496   3.690  20.382  0.00  0.00    +0.000 C 
ENDBRANCH  19  20
ENDBRANCH  18  19
ENDBRANCH   3  18
TORSDOF 5
ENDMDL
