MODEL 1
REMARK VINA RESULT:      -8.3      0.000      0.000
REMARK  Name = 
REMARK  6 active torsions:
REMARK  status: ('A' for Active; 'I' for Inactive)
REMARK    1  A    between atoms: C_1  and  C_2
REMARK    2  A    between atoms: C_2  and  C_3
REMARK    3  A    between atoms: C_6  and  C_7
REMARK    4  A    between atoms: C_14  and  C_16
REMARK    5  A    between atoms: C_16  and  C_17
REMARK    6  A    between atoms: C_17  and  N_18
REMARK                            x       y       z     vdW  Elec       q    Type
REMARK                         _______ _______ _______ _____ _____    ______ ____
ROOT
ATOM      1  C   UNL     1       3.381   4.481  18.850  0.00  0.00    +0.000 C 
ATOM      2  C   UNL     1       2.340   3.885  17.873  0.00  0.00    +0.000 C 
ATOM      3  C   UNL     1       1.465   2.766  18.430  0.00  0.00    +0.000 C 
ATOM      4  C   UNL     1       0.694   3.127  19.692  0.00  0.00    +0.000 C 
ATOM      5  C   UNL     1       1.620   3.256  20.898  0.00  0.00    +0.000 C 
ATOM      6  C   UNL     1       2.216   4.653  21.085  0.00  0.00    +0.000 C 
ATOM      7  N   UNL     1       2.722   5.334  19.879  0.00  0.00    +0.000 N 
ATOM      8  C   UNL     1       2.455   6.683  19.627  0.00  0.00    +0.000 C 
ATOM      9  O   UNL     1       2.717   7.234  18.556  0.00  0.00    +0.000 OA
ENDROOT
BRANCH   1  13
ATOM     10  C   UNL     1       6.356   6.260  17.758  0.00  0.00    +0.000 A 
ATOM     11  C   UNL     1       5.701   6.305  16.548  0.00  0.00    +0.000 A 
ATOM     12  C   UNL     1       4.504   5.591  16.724  0.00  0.00    +0.000 A 
ATOM     13  C   UNL     1       4.448   5.209  18.056  0.00  0.00    +0.000 A 
ATOM     14  O   UNL     1       5.605   5.590  18.687  0.00  0.00    +0.000 OA
BRANCH  10  16
ATOM     15  C   UNL     1       7.887   8.224  17.695  0.00  0.00    +0.000 C 
ATOM     16  C   UNL     1       7.672   6.797  18.176  0.00  0.00    +0.000 C 
ENDBRANCH  10  16
ENDBRANCH   1  13
BRANCH   8  17
ATOM     17  C   UNL     1       1.840   7.530  20.727  0.00  0.00    +0.000 C 
BRANCH  17  18
ATOM     18  C   UNL     1       1.173   8.754  20.098  0.00  0.00    +0.000 C 
BRANCH  18  19
ATOM     19  N   UNL     1       0.325   9.497  21.017  0.00  0.00    +0.000 N 
ATOM     20  C   UNL     1       0.332   9.172  22.422  0.00  0.00    +0.000 C 
ATOM     21  C   UNL     1      -0.680  10.126  23.003  0.00  0.00    +0.000 C 
ATOM     22  C   UNL     1      -0.494  11.383  22.161  0.00  0.00    +0.000 C 
ATOM     23  C   UNL     1       0.018  10.846  20.849  0.00  0.00    +0.000 C 
ATOM     24  O   UNL     1       0.185  11.524  19.844  0.00  0.00    +0.000 OA
ENDBRANCH  18  19
ENDBRANCH  17  18
ENDBRANCH   8  17
TORSDOF 5
ENDMDL
MODEL 2
REMARK VINA RESULT:      -8.2      1.693      2.227
REMARK  Name = 
REMARK  6 active torsions:
REMARK  status: ('A' for Active; 'I' for Inactive)
REMARK    1  A    between atoms: C_1  and  C_2
REMARK    2  A    between atoms: C_2  and  C_3
REMARK    3  A    between atoms: C_6  and  C_7
REMARK    4  A    between atoms: C_14  and  C_16
REMARK    5  A    between atoms: C_16  and  C_17
REMARK    6  A    between atoms: C_17  and  N_18
REMARK                            x       y       z     vdW  Elec       q    Type
REMARK                         _______ _______ _______ _____ _____    ______ ____
ROOT
ATOM      1  C   UNL     1       3.786   4.054  19.135  0.00  0.00    +0.000 C 
ATOM      2  C   UNL     1       2.991   3.210  18.111  0.00  0.00    +0.000 C 
ATOM      3  C   UNL     1       1.883   2.331  18.685  0.00  0.00    +0.000 C 
ATOM      4  C   UNL     1       0.843   3.074  19.511  0.00  0.00    +0.000 C 
ATOM      5  C   UNL     1       1.416   3.545  20.845  0.00  0.00    +0.000 C 
ATOM      6  C   UNL     1       2.085   4.921  20.790  0.00  0.00    +0.000 C 
ATOM      7  N   UNL     1       2.968   5.192  19.641  0.00  0.00    +0.000 N 
ATOM      8  C   UNL     1       2.925   6.406  18.948  0.00  0.00    +0.000 C 
ATOM      9  O   UNL     1       3.524   6.600  17.889  0.00  0.00    +0.000 OA
ENDROOT
BRANCH   1  13
ATOM     10  C   UNL     1       6.562   4.728  16.888  0.00  0.00    +0.000 A 
ATOM     11  C   UNL     1       7.180   5.182  18.032  0.00  0.00    +0.000 A 
ATOM     12  C   UNL     1       6.229   5.073  19.060  0.00  0.00    +0.000 A 
ATOM     13  C   UNL     1       5.100   4.484  18.512  0.00  0.00    +0.000 A 
ATOM     14  O   UNL     1       5.289   4.303  17.165  0.00  0.00    +0.000 OA
BRANCH  10  16
ATOM     15  C   UNL     1       6.010   4.003  14.571  0.00  0.00    +0.000 C 
ATOM     16  C   UNL     1       7.042   4.637  15.489  0.00  0.00    +0.000 C 
ENDBRANCH  10  16
ENDBRANCH   1  13
BRANCH   8  17
ATOM     17  C   UNL     1       2.129   7.560  19.533  0.00  0.00    +0.000 C 
BRANCH  17  18
ATOM     18  C   UNL     1       1.940   8.630  18.457  0.00  0.00    +0.000 C 
BRANCH  18  19
ATOM     19  N   UNL     1       1.140   9.764  18.892  0.00  0.00    +0.000 N 
ATOM     20  C   UNL     1       0.340   9.662  20.087  0.00  0.00    +0.000 C 
ATOM     21  C   UNL     1      -0.338  11.005  20.165  0.00  0.00    +0.000 C 
ATOM     22  C   UNL     1       0.720  11.960  19.625  0.00  0.00    +0.000 C 
ATOM     23  C   UNL     1       1.530  11.088  18.700  0.00  0.00    +0.000 C 
ATOM     24  O   UNL     1       2.417  11.500  17.965  0.00  0.00    +0.000 OA
ENDBRANCH  18  19
ENDBRANCH  17  18
ENDBRANCH   8  17
TORSDOF 5
ENDMDL
MODEL 3
REMARK VINA RESULT:      -8.0      0.963      1.179
REMARK  Name = 
REMARK  6 active torsions:
REMARK  status: ('A' for Active; 'I' for Inactive)
REMARK    1  A    between atoms: C_1  and  C_2
REMARK    2  A    between atoms: C_2  and  C_3
REMARK    3  A    between atoms: C_6  and  C_7
REMARK    4  A    between atoms: C_14  and  C_16
REMARK    5  A    between atoms: C_16  and  C_17
REMARK    6  A    between atoms: C_17  and  N_18
REMARK                            x       y       z     vdW  Elec       q    Type
REMARK                         _______ _______ _______ _____ _____    ______ ____
ROOT
ATOM      1  C   UNL     1       3.444   4.193  18.921  0.00  0.00    +0.000 C 
ATOM      2  C   UNL     1       2.463   3.487  17.956  0.00  0.00    +0.000 C 
ATOM      3  C   UNL     1       1.575   2.411  18.575  0.00  0.00    +0.000 C 
ATOM      4  C   UNL     1       0.735   2.877  19.755  0.00  0.00    +0.000 C 
ATOM      5  C   UNL     1       1.596   3.139  20.989  0.00  0.00    +0.000 C 
ATOM      6  C   UNL     1       2.163   4.558  21.069  0.00  0.00    +0.000 C 
ATOM      7  N   UNL     1       2.722   5.129  19.829  0.00  0.00    +0.000 N 
ATOM      8  C   UNL     1       2.450   6.443  19.434  0.00  0.00    +0.000 C 
ATOM      9  O   UNL     1       2.760   6.892  18.328  0.00  0.00    +0.000 OA
ENDROOT
BRANCH   1  13
ATOM     10  C   UNL     1       6.411   5.977  17.815  0.00  0.00    +0.000 A 
ATOM     11  C   UNL     1       5.869   5.794  16.563  0.00  0.00    +0.000 A 
ATOM     12  C   UNL     1       4.700   5.037  16.749  0.00  0.00    +0.000 A 
ATOM     13  C   UNL     1       4.541   4.860  18.115  0.00  0.00    +0.000 A 
ATOM     14  O   UNL     1       5.613   5.408  18.773  0.00  0.00    +0.000 OA
BRANCH  10  16
ATOM     15  C   UNL     1       7.811   8.027  17.610  0.00  0.00    +0.000 C 
ATOM     16  C   UNL     1       7.652   6.658  18.253  0.00  0.00    +0.000 C 
ENDBRANCH  10  16
ENDBRANCH   1  13
BRANCH   8  17
ATOM     17  C   UNL     1       1.767   7.380  20.414  0.00  0.00    +0.000 C 
BRANCH  17  18
ATOM     18  C   UNL     1       1.760   8.793  19.828  0.00  0.00    +0.000 C 
BRANCH  18  19
ATOM     19  N   UNL     1       0.883   9.715  20.532  0.00  0.00    +0.000 N 
ATOM     20  C   UNL     1      -0.436   9.987  20.016  0.00  0.00    +0.000 C 
ATOM     21  C   UNL     1      -0.991  10.988  20.995  0.00  0.00    +0.000 C 
ATOM     22  C   UNL     1      -0.399  10.538  22.326  0.00  0.00    +0.000 C 
ATOM     23  C   UNL     1       0.882   9.856  21.919  0.00  0.00    +0.000 C 
ATOM     24  O   UNL     1       1.727   9.450  22.705  0.00  0.00    +0.000 OA
ENDBRANCH  18  19
ENDBRANCH  17  18
ENDBRANCH   8  17
TORSDOF 5
ENDMDL
MODEL 4
REMARK VINA RESULT:      -8.0      0.879      1.016
REMARK  Name = 
REMARK  6 active torsions:
REMARK  status: ('A' for Active; 'I' for Inactive)
REMARK    1  A    between atoms: C_1  and  C_2
REMARK    2  A    between atoms: C_2  and  C_3
REMARK    3  A    between atoms: C_6  and  C_7
REMARK    4  A    between atoms: C_14  and  C_16
REMARK    5  A    between atoms: C_16  and  C_17
REMARK    6  A    between atoms: C_17  and  N_18
REMARK                            x       y       z     vdW  Elec       q    Type
REMARK                         _______ _______ _______ _____ _____    ______ ____
ROOT
ATOM      1  C   UNL     1       3.330   4.209  18.785  0.00  0.00    +0.000 C 
ATOM      2  C   UNL     1       2.241   3.477  17.965  0.00  0.00    +0.000 C 
ATOM      3  C   UNL     1       1.392   2.467  18.733  0.00  0.00    +0.000 C 
ATOM      4  C   UNL     1       0.685   3.029  19.958  0.00  0.00    +0.000 C 
ATOM      5  C   UNL     1       1.670   3.337  21.083  0.00  0.00    +0.000 C 
ATOM      6  C   UNL     1       2.277   4.741  21.019  0.00  0.00    +0.000 C 
ATOM      7  N   UNL     1       2.724   5.219  19.698  0.00  0.00    +0.000 N 
ATOM      8  C   UNL     1       2.447   6.515  19.250  0.00  0.00    +0.000 C 
ATOM      9  O   UNL     1       2.657   6.888  18.094  0.00  0.00    +0.000 OA
ENDROOT
BRANCH   1  13
ATOM     10  C   UNL     1       6.134   5.964  17.278  0.00  0.00    +0.000 A 
ATOM     11  C   UNL     1       5.582   5.520  16.098  0.00  0.00    +0.000 A 
ATOM     12  C   UNL     1       4.476   4.731  16.456  0.00  0.00    +0.000 A 
ATOM     13  C   UNL     1       4.358   4.794  17.835  0.00  0.00    +0.000 A 
ATOM     14  O   UNL     1       5.400   5.524  18.349  0.00  0.00    +0.000 OA
BRANCH  10  16
ATOM     15  C   UNL     1       8.017   6.411  18.846  0.00  0.00    +0.000 C 
ATOM     16  C   UNL     1       7.330   6.796  17.545  0.00  0.00    +0.000 C 
ENDBRANCH  10  16
ENDBRANCH   1  13
BRANCH   8  17
ATOM     17  C   UNL     1       1.888   7.530  20.232  0.00  0.00    +0.000 C 
BRANCH  17  18
ATOM     18  C   UNL     1       1.495   8.796  19.469  0.00  0.00    +0.000 C 
BRANCH  18  19
ATOM     19  N   UNL     1       0.504   9.609  20.154  0.00  0.00    +0.000 N 
ATOM     20  C   UNL     1       0.826  10.217  21.422  0.00  0.00    +0.000 C 
ATOM     21  C   UNL     1      -0.448  10.929  21.797  0.00  0.00    +0.000 C 
ATOM     22  C   UNL     1      -0.989  11.403  20.454  0.00  0.00    +0.000 C 
ATOM     23  C   UNL     1      -0.433  10.393  19.483  0.00  0.00    +0.000 C 
ATOM     24  O   UNL     1      -0.730  10.340  18.297  0.00  0.00    +0.000 OA
ENDBRANCH  18  19
ENDBRANCH  17  18
ENDBRANCH   8  17
TORSDOF 5
ENDMDL
MODEL 5
REMARK VINA RESULT:      -8.0      1.191      1.545
REMARK  Name = 
REMARK  6 active torsions:
REMARK  status: ('A' for Active; 'I' for Inactive)
REMARK    1  A    between atoms: C_1  and  C_2
REMARK    2  A    between atoms: C_2  and  C_3
REMARK    3  A    between atoms: C_6  and  C_7
REMARK    4  A    between atoms: C_14  and  C_16
REMARK    5  A    between atoms: C_16  and  C_17
REMARK    6  A    between atoms: C_17  and  N_18
REMARK                            x       y       z     vdW  Elec       q    Type
REMARK                         _______ _______ _______ _____ _____    ______ ____
ROOT
ATOM      1  C   UNL     1       3.398   4.054  18.941  0.00  0.00    +0.000 C 
ATOM      2  C   UNL     1       2.422   3.381  17.947  0.00  0.00    +0.000 C 
ATOM      3  C   UNL     1       1.554   2.262  18.516  0.00  0.00    +0.000 C 
ATOM      4  C   UNL     1       0.715   2.655  19.723  0.00  0.00    +0.000 C 
ATOM      5  C   UNL     1       1.579   2.869  20.963  0.00  0.00    +0.000 C 
ATOM      6  C   UNL     1       2.125   4.291  21.111  0.00  0.00    +0.000 C 
ATOM      7  N   UNL     1       2.667   4.931  19.898  0.00  0.00    +0.000 N 
ATOM      8  C   UNL     1       2.372   6.259  19.571  0.00  0.00    +0.000 C 
ATOM      9  O   UNL     1       2.668   6.768  18.488  0.00  0.00    +0.000 OA
ENDROOT
BRANCH   1  13
ATOM     10  C   UNL     1       6.341   5.919  17.908  0.00  0.00    +0.000 A 
ATOM     11  C   UNL     1       5.779   5.818  16.656  0.00  0.00    +0.000 A 
ATOM     12  C   UNL     1       4.615   5.046  16.810  0.00  0.00    +0.000 A 
ATOM     13  C   UNL     1       4.479   4.778  18.163  0.00  0.00    +0.000 A 
ATOM     14  O   UNL     1       5.560   5.284  18.839  0.00  0.00    +0.000 OA
BRANCH  10  16
ATOM     15  C   UNL     1       7.825   7.906  17.675  0.00  0.00    +0.000 C 
ATOM     16  C   UNL     1       7.588   6.574  18.370  0.00  0.00    +0.000 C 
ENDBRANCH  10  16
ENDBRANCH   1  13
BRANCH   8  17
ATOM     17  C   UNL     1       1.682   7.135  20.601  0.00  0.00    +0.000 C 
BRANCH  17  18
ATOM     18  C   UNL     1       1.945   8.603  20.262  0.00  0.00    +0.000 C 
BRANCH  18  19
ATOM     19  N   UNL     1       0.810   9.276  19.652  0.00  0.00    +0.000 N 
ATOM     20  C   UNL     1      -0.147   9.966  20.481  0.00  0.00    +0.000 C 
ATOM     21  C   UNL     1      -1.154  10.486  19.488  0.00  0.00    +0.000 C 
ATOM     22  C   UNL     1      -0.299  10.828  18.274  0.00  0.00    +0.000 C 
ATOM     23  C   UNL     1       0.870   9.885  18.399  0.00  0.00    +0.000 C 
ATOM     24  O   UNL     1       1.741   9.750  17.551  0.00  0.00    +0.000 OA
ENDBRANCH  18  19
ENDBRANCH  17  18
ENDBRANCH   8  17
TORSDOF 5
ENDMDL
MODEL 6
REMARK VINA RESULT:      -7.9      1.976      2.592
REMARK  Name = 
REMARK  6 active torsions:
REMARK  status: ('A' for Active; 'I' for Inactive)
REMARK    1  A    between atoms: C_1  and  C_2
REMARK    2  A    between atoms: C_2  and  C_3
REMARK    3  A    between atoms: C_6  and  C_7
REMARK    4  A    between atoms: C_14  and  C_16
REMARK    5  A    between atoms: C_16  and  C_17
REMARK    6  A    between atoms: C_17  and  N_18
REMARK                            x       y       z     vdW  Elec       q    Type
REMARK                         _______ _______ _______ _____ _____    ______ ____
ROOT
ATOM      1  C   UNL     1       3.751   4.159  19.081  0.00  0.00    +0.000 C 
ATOM      2  C   UNL     1       2.937   3.297  18.087  0.00  0.00    +0.000 C 
ATOM      3  C   UNL     1       1.822   2.450  18.693  0.00  0.00    +0.000 C 
ATOM      4  C   UNL     1       0.797   3.231  19.504  0.00  0.00    +0.000 C 
ATOM      5  C   UNL     1       1.386   3.732  20.820  0.00  0.00    +0.000 C 
ATOM      6  C   UNL     1       2.073   5.096  20.721  0.00  0.00    +0.000 C 
ATOM      7  N   UNL     1       2.952   5.323  19.559  0.00  0.00    +0.000 N 
ATOM      8  C   UNL     1       2.921   6.517  18.832  0.00  0.00    +0.000 C 
ATOM      9  O   UNL     1       3.515   6.671  17.764  0.00  0.00    +0.000 OA
ENDROOT
BRANCH   1  13
ATOM     10  C   UNL     1       6.532   4.705  16.805  0.00  0.00    +0.000 A 
ATOM     11  C   UNL     1       7.147   5.222  17.923  0.00  0.00    +0.000 A 
ATOM     12  C   UNL     1       6.194   5.171  18.954  0.00  0.00    +0.000 A 
ATOM     13  C   UNL     1       5.066   4.553  18.437  0.00  0.00    +0.000 A 
ATOM     14  O   UNL     1       5.258   4.297  17.103  0.00  0.00    +0.000 OA
BRANCH  10  16
ATOM     15  C   UNL     1       5.885   4.196  14.455  0.00  0.00    +0.000 C 
ATOM     16  C   UNL     1       7.014   4.535  15.415  0.00  0.00    +0.000 C 
ENDBRANCH  10  16
ENDBRANCH   1  13
BRANCH   8  17
ATOM     17  C   UNL     1       2.144   7.697  19.389  0.00  0.00    +0.000 C 
BRANCH  17  18
ATOM     18  C   UNL     1       1.699   8.591  18.230  0.00  0.00    +0.000 C 
BRANCH  18  19
ATOM     19  N   UNL     1       1.550   9.991  18.593  0.00  0.00    +0.000 N 
ATOM     20  C   UNL     1       2.363  10.990  17.945  0.00  0.00    +0.000 C 
ATOM     21  C   UNL     1       1.932  12.271  18.611  0.00  0.00    +0.000 C 
ATOM     22  C   UNL     1       0.445  12.051  18.858  0.00  0.00    +0.000 C 
ATOM     23  C   UNL     1       0.334  10.552  18.978  0.00  0.00    +0.000 C 
ATOM     24  O   UNL     1      -0.687   9.959  19.300  0.00  0.00    +0.000 OA
ENDBRANCH  18  19
ENDBRANCH  17  18
ENDBRANCH   8  17
TORSDOF 5
ENDMDL
MODEL 7
REMARK VINA RESULT:      -7.9      1.694      2.358
REMARK  Name = 
REMARK  6 active torsions:
REMARK  status: ('A' for Active; 'I' for Inactive)
REMARK    1  A    between atoms: C_1  and  C_2
REMARK    2  A    between atoms: C_2  and  C_3
REMARK    3  A    between atoms: C_6  and  C_7
REMARK    4  A    between atoms: C_14  and  C_16
REMARK    5  A    between atoms: C_16  and  C_17
REMARK    6  A    between atoms: C_17  and  N_18
REMARK                            x       y       z     vdW  Elec       q    Type
REMARK                         _______ _______ _______ _____ _____    ______ ____
ROOT
ATOM      1  C   UNL     1       3.730   4.075  19.162  0.00  0.00    +0.000 C 
ATOM      2  C   UNL     1       2.957   3.236  18.117  0.00  0.00    +0.000 C 
ATOM      3  C   UNL     1       1.853   2.336  18.665  0.00  0.00    +0.000 C 
ATOM      4  C   UNL     1       0.794   3.055  19.488  0.00  0.00    +0.000 C 
ATOM      5  C   UNL     1       1.345   3.516  20.835  0.00  0.00    +0.000 C 
ATOM      6  C   UNL     1       1.998   4.900  20.807  0.00  0.00    +0.000 C 
ATOM      7  N   UNL     1       2.892   5.197  19.672  0.00  0.00    +0.000 N 
ATOM      8  C   UNL     1       2.842   6.419  18.995  0.00  0.00    +0.000 C 
ATOM      9  O   UNL     1       3.453   6.634  17.945  0.00  0.00    +0.000 OA
ENDROOT
BRANCH   1  13
ATOM     10  C   UNL     1       6.537   4.786  16.966  0.00  0.00    +0.000 A 
ATOM     11  C   UNL     1       7.118   5.273  18.115  0.00  0.00    +0.000 A 
ATOM     12  C   UNL     1       6.147   5.154  19.124  0.00  0.00    +0.000 A 
ATOM     13  C   UNL     1       5.046   4.529  18.560  0.00  0.00    +0.000 A 
ATOM     14  O   UNL     1       5.269   4.333  17.221  0.00  0.00    +0.000 OA
BRANCH  10  16
ATOM     15  C   UNL     1       6.072   3.974  14.658  0.00  0.00    +0.000 C 
ATOM     16  C   UNL     1       7.050   4.686  15.579  0.00  0.00    +0.000 C 
ENDBRANCH  10  16
ENDBRANCH   1  13
BRANCH   8  17
ATOM     17  C   UNL     1       2.025   7.555  19.585  0.00  0.00    +0.000 C 
BRANCH  17  18
ATOM     18  C   UNL     1       2.101   8.762  18.648  0.00  0.00    +0.000 C 
BRANCH  18  19
ATOM     19  N   UNL     1       0.987   9.685  18.788  0.00  0.00    +0.000 N 
ATOM     20  C   UNL     1      -0.113   9.629  17.857  0.00  0.00    +0.000 C 
ATOM     21  C   UNL     1      -1.017  10.742  18.323  0.00  0.00    +0.000 C 
ATOM     22  C   UNL     1      -0.852  10.712  19.838  0.00  0.00    +0.000 C 
ATOM     23  C   UNL     1       0.534  10.149  20.022  0.00  0.00    +0.000 C 
ATOM     24  O   UNL     1       1.109  10.071  21.099  0.00  0.00    +0.000 OA
ENDBRANCH  18  19
ENDBRANCH  17  18
ENDBRANCH   8  17
TORSDOF 5
ENDMDL
MODEL 8
REMARK VINA RESULT:      -7.9      1.015      1.521
REMARK  Name = 
REMARK  6 active torsions:
REMARK  status: ('A' for Active; 'I' for Inactive)
REMARK    1  A    between atoms: C_1  and  C_2
REMARK    2  A    between atoms: C_2  and  C_3
REMARK    3  A    between atoms: C_6  and  C_7
REMARK    4  A    between atoms: C_14  and  C_16
REMARK    5  A    between atoms: C_16  and  C_17
REMARK    6  A    between atoms: C_17  and  N_18
REMARK                            x       y       z     vdW  Elec       q    Type
REMARK                         _______ _______ _______ _____ _____    ______ ____
ROOT
ATOM      1  C   UNL     1       3.346   4.495  18.878  0.00  0.00    +0.000 C 
ATOM      2  C   UNL     1       2.289   3.904  17.916  0.00  0.00    +0.000 C 
ATOM      3  C   UNL     1       1.385   2.822  18.498  0.00  0.00    +0.000 C 
ATOM      4  C   UNL     1       0.625   3.232  19.751  0.00  0.00    +0.000 C 
ATOM      5  C   UNL     1       1.555   3.365  20.955  0.00  0.00    +0.000 C 
ATOM      6  C   UNL     1       2.188   4.750  21.109  0.00  0.00    +0.000 C 
ATOM      7  N   UNL     1       2.711   5.389  19.887  0.00  0.00    +0.000 N 
ATOM      8  C   UNL     1       2.480   6.739  19.604  0.00  0.00    +0.000 C 
ATOM      9  O   UNL     1       2.756   7.257  18.520  0.00  0.00    +0.000 OA
ENDROOT
BRANCH   1  13
ATOM     10  C   UNL     1       6.339   6.224  17.754  0.00  0.00    +0.000 A 
ATOM     11  C   UNL     1       5.723   6.174  16.524  0.00  0.00    +0.000 A 
ATOM     12  C   UNL     1       4.527   5.461  16.714  0.00  0.00    +0.000 A 
ATOM     13  C   UNL     1       4.432   5.176  18.067  0.00  0.00    +0.000 A 
ATOM     14  O   UNL     1       5.565   5.613  18.706  0.00  0.00    +0.000 OA
BRANCH  10  16
ATOM     15  C   UNL     1       7.837   8.209  17.627  0.00  0.00    +0.000 C 
ATOM     16  C   UNL     1       7.636   6.804  18.173  0.00  0.00    +0.000 C 
ENDBRANCH  10  16
ENDBRANCH   1  13
BRANCH   8  17
ATOM     17  C   UNL     1       1.888   7.627  20.684  0.00  0.00    +0.000 C 
BRANCH  17  18
ATOM     18  C   UNL     1       0.798   8.503  20.066  0.00  0.00    +0.000 C 
BRANCH  18  19
ATOM     19  N   UNL     1       1.149   9.913  19.995  0.00  0.00    +0.000 N 
ATOM     20  C   UNL     1       1.135  10.593  18.723  0.00  0.00    +0.000 C 
ATOM     21  C   UNL     1       1.577  11.990  19.074  0.00  0.00    +0.000 C 
ATOM     22  C   UNL     1       0.963  12.214  20.450  0.00  0.00    +0.000 C 
ATOM     23  C   UNL     1       0.867  10.819  21.015  0.00  0.00    +0.000 C 
ATOM     24  O   UNL     1       0.533  10.562  22.164  0.00  0.00    +0.000 OA
ENDBRANCH  18  19
ENDBRANCH  17  18
ENDBRANCH   8  17
TORSDOF 5
ENDMDL
MODEL 9
REMARK VINA RESULT:      -7.7      1.803      2.099
REMARK  Name = 
REMARK  6 active torsions:
REMARK  status: ('A' for Active; 'I' for Inactive)
REMARK    1  A    between atoms: C_1  and  C_2
REMARK    2  A    between atoms: C_2  and  C_3
REMARK    3  A    between atoms: C_6  and  C_7
REMARK    4  A    between atoms: C_14  and  C_16
REMARK    5  A    between atoms: C_16  and  C_17
REMARK    6  A    between atoms: C_17  and  N_18
REMARK                            x       y       z     vdW  Elec       q    Type
REMARK                         _______ _______ _______ _____ _____    ______ ____
ROOT
ATOM      1  C   UNL     1       3.733   4.421  18.776  0.00  0.00    +0.000 C 
ATOM      2  C   UNL     1       2.906   3.565  17.788  0.00  0.00    +0.000 C 
ATOM      3  C   UNL     1       1.811   2.700  18.408  0.00  0.00    +0.000 C 
ATOM      4  C   UNL     1       0.798   3.461  19.251  0.00  0.00    +0.000 C 
ATOM      5  C   UNL     1       1.411   3.951  20.560  0.00  0.00    +0.000 C 
ATOM      6  C   UNL     1       2.084   5.322  20.464  0.00  0.00    +0.000 C 
ATOM      7  N   UNL     1       2.935   5.571  19.286  0.00  0.00    +0.000 N 
ATOM      8  C   UNL     1       2.877   6.774  18.575  0.00  0.00    +0.000 C 
ATOM      9  O   UNL     1       3.446   6.948  17.496  0.00  0.00    +0.000 OA
ENDROOT
BRANCH   1  13
ATOM     10  C   UNL     1       6.922   5.939  17.918  0.00  0.00    +0.000 A 
ATOM     11  C   UNL     1       6.773   5.230  16.748  0.00  0.00    +0.000 A 
ATOM     12  C   UNL     1       5.590   4.486  16.889  0.00  0.00    +0.000 A 
ATOM     13  C   UNL     1       5.030   4.835  18.108  0.00  0.00    +0.000 A 
ATOM     14  O   UNL     1       5.867   5.704  18.761  0.00  0.00    +0.000 OA
BRANCH  10  16
ATOM     15  C   UNL     1       7.901   8.218  17.688  0.00  0.00    +0.000 C 
ATOM     16  C   UNL     1       7.989   6.862  18.372  0.00  0.00    +0.000 C 
ENDBRANCH  10  16
ENDBRANCH   1  13
BRANCH   8  17
ATOM     17  C   UNL     1       2.102   7.940  19.164  0.00  0.00    +0.000 C 
BRANCH  17  18
ATOM     18  C   UNL     1       1.750   8.920  18.044  0.00  0.00    +0.000 C 
BRANCH  18  19
ATOM     19  N   UNL     1       1.506  10.277  18.506  0.00  0.00    +0.000 N 
ATOM     20  C   UNL     1       2.292  11.366  17.981  0.00  0.00    +0.000 C 
ATOM     21  C   UNL     1       1.759  12.565  18.722  0.00  0.00    +0.000 C 
ATOM     22  C   UNL     1       0.276  12.249  18.874  0.00  0.00    +0.000 C 
ATOM     23  C   UNL     1       0.244  10.741  18.870  0.00  0.00    +0.000 C 
ATOM     24  O   UNL     1      -0.756  10.073  19.092  0.00  0.00    +0.000 OA
ENDBRANCH  18  19
ENDBRANCH  17  18
ENDBRANCH   8  17
TORSDOF 5
ENDMDL
