MODEL 1
REMARK VINA RESULT:      -6.5      0.000      0.000
REMARK  Name = 
REMARK  10 active torsions:
REMARK  status: ('A' for Active; 'I' for Inactive)
REMARK    1  A    between atoms: N_1  and  C_2
REMARK    2  A    between atoms: C_2  and  C_3
REMARK    3  A    between atoms: C_2  and  C_18
REMARK    4  A    between atoms: C_3  and  C_4
REMARK    5  A    between atoms: C_4  and  S_5
REMARK    6  A    between atoms: S_5  and  C_6
REMARK    7  A    between atoms: C_6  and  C_7
REMARK    8  A    between atoms: C_11  and  O_12
REMARK    9  A    between atoms: O_12  and  C_13
REMARK   10  A    between atoms: C_18  and  O_20
REMARK                            x       y       z     vdW  Elec       q    Type
REMARK                         _______ _______ _______ _____ _____    ______ ____
ROOT
ATOM      1  C   UNK     1       2.826   5.289  18.091  0.00  0.00    +0.000 C 
ENDROOT
BRANCH   1   2
ATOM      2  C   UNK     1       4.275   5.091  17.698  0.00  0.00    +0.000 A 
ATOM      3  C   UNK     1       5.332   5.555  18.496  0.00  0.00    +0.000 A 
ATOM      4  C   UNK     1       6.657   5.348  18.115  0.00  0.00    +0.000 A 
ATOM      5  C   UNK     1       6.943   4.630  16.959  0.00  0.00    +0.000 A 
ATOM      6  C   UNK     1       5.910   4.094  16.184  0.00  0.00    +0.000 A 
ATOM      7  C   UNK     1       4.585   4.356  16.535  0.00  0.00    +0.000 A 
BRANCH   6   8
ATOM      8  O   UNK     1       6.328   3.405  15.088  0.00  0.00    +0.000 OA
BRANCH   8   9
ATOM      9  C   UNK     1       6.188   3.986  13.800  0.00  0.00    +0.000 C 
ATOM     10  F   UNK     1       6.660   3.226  12.789  0.00  0.00    +0.000 F 
ATOM     11  F   UNK     1       4.884   4.250  13.572  0.00  0.00    +0.000 F 
ATOM     12  F   UNK     1       6.862   5.159  13.782  0.00  0.00    +0.000 F 
ENDBRANCH   8   9
ENDBRANCH   6   8
ENDBRANCH   1   2
BRANCH   1  13
ATOM     13  S   UNK     1       2.607   6.131  19.693  0.00  0.00    +0.000 S 
BRANCH  13  14
ATOM     14  C   UNK     1       1.583   4.892  20.544  0.00  0.00    +0.000 C 
BRANCH  14  15
ATOM     15  C   UNK     1       1.637   3.591  19.743  0.00  0.00    +0.000 C 
BRANCH  15  16
ATOM     16  C   UNK     1       2.413   2.451  20.410  0.00  0.00    +0.000 C 
BRANCH  16  17
ATOM     17  N   UNK     1       2.657   2.661  21.864  0.00  0.00    +0.000 NA
ATOM     18  H   UNK     1       3.226   1.879  22.204  0.00  0.00    +0.000 HD
ATOM     19  H   UNK     1       1.772   2.573  22.372  0.00  0.00    +0.000 HD
ENDBRANCH  16  17
BRANCH  16  20
ATOM     20  C   UNK     1       3.758   2.159  19.722  0.00  0.00    +0.000 C 
ATOM     21  O   UNK     1       4.861   2.430  20.165  0.00  0.00    +0.000 OA
BRANCH  20  22
ATOM     22  O   UNK     1       3.561   1.556  18.520  0.00  0.00    +0.000 OA
ATOM     23  H   UNK     1       2.923   0.817  18.679  0.00  0.00    +0.000 HD
ENDBRANCH  20  22
ENDBRANCH  16  20
ENDBRANCH  15  16
ENDBRANCH  14  15
ENDBRANCH  13  14
ENDBRANCH   1  13
TORSDOF 10
ENDMDL
MODEL 2
REMARK VINA RESULT:      -6.4      0.721      1.143
REMARK  Name = 
REMARK  10 active torsions:
REMARK  status: ('A' for Active; 'I' for Inactive)
REMARK    1  A    between atoms: N_1  and  C_2
REMARK    2  A    between atoms: C_2  and  C_3
REMARK    3  A    between atoms: C_2  and  C_18
REMARK    4  A    between atoms: C_3  and  C_4
REMARK    5  A    between atoms: C_4  and  S_5
REMARK    6  A    between atoms: S_5  and  C_6
REMARK    7  A    between atoms: C_6  and  C_7
REMARK    8  A    between atoms: C_11  and  O_12
REMARK    9  A    between atoms: O_12  and  C_13
REMARK   10  A    between atoms: C_18  and  O_20
REMARK                            x       y       z     vdW  Elec       q    Type
REMARK                         _______ _______ _______ _____ _____    ______ ____
ROOT
ATOM      1  C   UNK     1       3.857   6.202  18.781  0.00  0.00    +0.000 C 
ENDROOT
BRANCH   1   2
ATOM      2  C   UNK     1       5.105   5.613  18.156  0.00  0.00    +0.000 A 
ATOM      3  C   UNK     1       6.369   5.751  18.749  0.00  0.00    +0.000 A 
ATOM      4  C   UNK     1       7.499   5.188  18.157  0.00  0.00    +0.000 A 
ATOM      5  C   UNK     1       7.373   4.437  16.993  0.00  0.00    +0.000 A 
ATOM      6  C   UNK     1       6.115   4.224  16.422  0.00  0.00    +0.000 A 
ATOM      7  C   UNK     1       4.995   4.840  16.983  0.00  0.00    +0.000 A 
BRANCH   6   8
ATOM      8  O   UNK     1       6.132   3.463  15.294  0.00  0.00    +0.000 OA
BRANCH   8   9
ATOM      9  C   UNK     1       6.091   4.094  14.023  0.00  0.00    +0.000 C 
ATOM     10  F   UNK     1       6.745   5.273  13.962  0.00  0.00    +0.000 F 
ATOM     11  F   UNK     1       6.611   3.261  13.096  0.00  0.00    +0.000 F 
ATOM     12  F   UNK     1       4.797   4.324  13.699  0.00  0.00    +0.000 F 
ENDBRANCH   8   9
ENDBRANCH   6   8
ENDBRANCH   1   2
BRANCH   1  13
ATOM     13  S   UNK     1       2.328   5.305  18.355  0.00  0.00    +0.000 S 
BRANCH  13  14
ATOM     14  C   UNK     1       1.706   4.962  20.030  0.00  0.00    +0.000 C 
BRANCH  14  15
ATOM     15  C   UNK     1       1.083   3.566  20.035  0.00  0.00    +0.000 C 
BRANCH  15  16
ATOM     16  C   UNK     1       1.996   2.451  20.553  0.00  0.00    +0.000 C 
BRANCH  16  17
ATOM     17  N   UNK     1       2.517   2.691  21.928  0.00  0.00    +0.000 NA
ATOM     18  H   UNK     1       1.760   3.100  22.485  0.00  0.00    +0.000 HD
ATOM     19  H   UNK     1       3.234   3.421  21.896  0.00  0.00    +0.000 HD
ENDBRANCH  16  17
BRANCH  16  20
ATOM     20  C   UNK     1       3.184   2.166  19.619  0.00  0.00    +0.000 C 
ATOM     21  O   UNK     1       4.333   2.534  19.792  0.00  0.00    +0.000 OA
BRANCH  20  22
ATOM     22  O   UNK     1       2.783   1.443  18.539  0.00  0.00    +0.000 OA
ATOM     23  H   UNK     1       1.890   1.788  18.289  0.00  0.00    +0.000 HD
ENDBRANCH  20  22
ENDBRANCH  16  20
ENDBRANCH  15  16
ENDBRANCH  14  15
ENDBRANCH  13  14
ENDBRANCH   1  13
TORSDOF 10
ENDMDL
MODEL 3
REMARK VINA RESULT:      -6.3      1.444      1.576
REMARK  Name = 
REMARK  10 active torsions:
REMARK  status: ('A' for Active; 'I' for Inactive)
REMARK    1  A    between atoms: N_1  and  C_2
REMARK    2  A    between atoms: C_2  and  C_3
REMARK    3  A    between atoms: C_2  and  C_18
REMARK    4  A    between atoms: C_3  and  C_4
REMARK    5  A    between atoms: C_4  and  S_5
REMARK    6  A    between atoms: S_5  and  C_6
REMARK    7  A    between atoms: C_6  and  C_7
REMARK    8  A    between atoms: C_11  and  O_12
REMARK    9  A    between atoms: O_12  and  C_13
REMARK   10  A    between atoms: C_18  and  O_20
REMARK                            x       y       z     vdW  Elec       q    Type
REMARK                         _______ _______ _______ _____ _____    ______ ____
ROOT
ATOM      1  C   UNK     1       3.774   5.798  19.406  0.00  0.00    +0.000 C 
ENDROOT
BRANCH   1   2
ATOM      2  C   UNK     1       5.036   5.682  18.577  0.00  0.00    +0.000 A 
ATOM      3  C   UNK     1       6.292   5.463  19.162  0.00  0.00    +0.000 A 
ATOM      4  C   UNK     1       7.436   5.348  18.373  0.00  0.00    +0.000 A 
ATOM      5  C   UNK     1       7.332   5.400  16.987  0.00  0.00    +0.000 A 
ATOM      6  C   UNK     1       6.082   5.546  16.376  0.00  0.00    +0.000 A 
ATOM      7  C   UNK     1       4.949   5.721  17.170  0.00  0.00    +0.000 A 
BRANCH   6   8
ATOM      8  O   UNK     1       6.121   5.569  15.016  0.00  0.00    +0.000 OA
BRANCH   8   9
ATOM      9  C   UNK     1       6.050   4.350  14.292  0.00  0.00    +0.000 C 
ATOM     10  F   UNK     1       6.204   3.242  15.048  0.00  0.00    +0.000 F 
ATOM     11  F   UNK     1       4.862   4.279  13.656  0.00  0.00    +0.000 F 
ATOM     12  F   UNK     1       7.028   4.349  13.356  0.00  0.00    +0.000 F 
ENDBRANCH   8   9
ENDBRANCH   6   8
ENDBRANCH   1   2
BRANCH   1  13
ATOM     13  S   UNK     1       2.267   5.262  18.531  0.00  0.00    +0.000 S 
BRANCH  13  14
ATOM     14  C   UNK     1       1.358   4.528  19.925  0.00  0.00    +0.000 C 
BRANCH  14  15
ATOM     15  C   UNK     1       1.518   3.009  19.857  0.00  0.00    +0.000 C 
BRANCH  15  16
ATOM     16  C   UNK     1       2.838   2.523  19.252  0.00  0.00    +0.000 C 
BRANCH  16  17
ATOM     17  N   UNK     1       2.699   1.306  18.404  0.00  0.00    +0.000 NA
ATOM     18  H   UNK     1       3.194   0.539  18.869  0.00  0.00    +0.000 HD
ATOM     19  H   UNK     1       3.209   1.445  17.526  0.00  0.00    +0.000 HD
ENDBRANCH  16  17
BRANCH  16  20
ATOM     20  C   UNK     1       3.923   2.263  20.311  0.00  0.00    +0.000 C 
ATOM     21  O   UNK     1       3.738   2.154  21.512  0.00  0.00    +0.000 OA
BRANCH  20  22
ATOM     22  O   UNK     1       5.150   2.180  19.732  0.00  0.00    +0.000 OA
ATOM     23  H   UNK     1       5.771   1.874  20.438  0.00  0.00    +0.000 HD
ENDBRANCH  20  22
ENDBRANCH  16  20
ENDBRANCH  15  16
ENDBRANCH  14  15
ENDBRANCH  13  14
ENDBRANCH   1  13
TORSDOF 10
ENDMDL
MODEL 4
REMARK VINA RESULT:      -6.3      1.205      1.551
REMARK  Name = 
REMARK  10 active torsions:
REMARK  status: ('A' for Active; 'I' for Inactive)
REMARK    1  A    between atoms: N_1  and  C_2
REMARK    2  A    between atoms: C_2  and  C_3
REMARK    3  A    between atoms: C_2  and  C_18
REMARK    4  A    between atoms: C_3  and  C_4
REMARK    5  A    between atoms: C_4  and  S_5
REMARK    6  A    between atoms: S_5  and  C_6
REMARK    7  A    between atoms: C_6  and  C_7
REMARK    8  A    between atoms: C_11  and  O_12
REMARK    9  A    between atoms: O_12  and  C_13
REMARK   10  A    between atoms: C_18  and  O_20
REMARK                            x       y       z     vdW  Elec       q    Type
REMARK                         _______ _______ _______ _____ _____    ______ ____
ROOT
ATOM      1  C   UNK     1       4.066   5.916  19.530  0.00  0.00    +0.000 C 
ENDROOT
BRANCH   1   2
ATOM      2  C   UNK     1       5.234   5.461  18.680  0.00  0.00    +0.000 A 
ATOM      3  C   UNK     1       6.563   5.598  19.109  0.00  0.00    +0.000 A 
ATOM      4  C   UNK     1       7.619   5.159  18.310  0.00  0.00    +0.000 A 
ATOM      5  C   UNK     1       7.357   4.532  17.096  0.00  0.00    +0.000 A 
ATOM      6  C   UNK     1       6.040   4.319  16.679  0.00  0.00    +0.000 A 
ATOM      7  C   UNK     1       4.989   4.814  17.452  0.00  0.00    +0.000 A 
BRANCH   6   8
ATOM      8  O   UNK     1       5.926   3.686  15.480  0.00  0.00    +0.000 OA
BRANCH   8   9
ATOM      9  C   UNK     1       5.820   4.453  14.290  0.00  0.00    +0.000 C 
ATOM     10  F   UNK     1       4.904   3.997  13.410  0.00  0.00    +0.000 F 
ATOM     11  F   UNK     1       5.515   5.729  14.610  0.00  0.00    +0.000 F 
ATOM     12  F   UNK     1       7.023   4.452  13.670  0.00  0.00    +0.000 F 
ENDBRANCH   8   9
ENDBRANCH   6   8
ENDBRANCH   1   2
BRANCH   1  13
ATOM     13  S   UNK     1       2.441   5.403  18.881  0.00  0.00    +0.000 S 
BRANCH  13  14
ATOM     14  C   UNK     1       1.747   4.643  20.381  0.00  0.00    +0.000 C 
BRANCH  14  15
ATOM     15  C   UNK     1       2.227   3.193  20.451  0.00  0.00    +0.000 C 
BRANCH  15  16
ATOM     16  C   UNK     1       2.494   2.533  19.094  0.00  0.00    +0.000 C 
BRANCH  16  17
ATOM     17  N   UNK     1       1.395   1.638  18.635  0.00  0.00    +0.000 NA
ATOM     18  H   UNK     1       0.592   1.781  19.255  0.00  0.00    +0.000 HD
ATOM     19  H   UNK     1       1.666   0.662  18.787  0.00  0.00    +0.000 HD
ENDBRANCH  16  17
BRANCH  16  20
ATOM     20  C   UNK     1       3.816   1.748  19.060  0.00  0.00    +0.000 C 
ATOM     21  O   UNK     1       4.040   0.755  18.387  0.00  0.00    +0.000 OA
BRANCH  20  22
ATOM     22  O   UNK     1       4.725   2.301  19.905  0.00  0.00    +0.000 OA
ATOM     23  H   UNK     1       5.355   1.578  20.149  0.00  0.00    +0.000 HD
ENDBRANCH  20  22
ENDBRANCH  16  20
ENDBRANCH  15  16
ENDBRANCH  14  15
ENDBRANCH  13  14
ENDBRANCH   1  13
TORSDOF 10
ENDMDL
MODEL 5
REMARK VINA RESULT:      -6.3      1.624      1.759
REMARK  Name = 
REMARK  10 active torsions:
REMARK  status: ('A' for Active; 'I' for Inactive)
REMARK    1  A    between atoms: N_1  and  C_2
REMARK    2  A    between atoms: C_2  and  C_3
REMARK    3  A    between atoms: C_2  and  C_18
REMARK    4  A    between atoms: C_3  and  C_4
REMARK    5  A    between atoms: C_4  and  S_5
REMARK    6  A    between atoms: S_5  and  C_6
REMARK    7  A    between atoms: C_6  and  C_7
REMARK    8  A    between atoms: C_11  and  O_12
REMARK    9  A    between atoms: O_12  and  C_13
REMARK   10  A    between atoms: C_18  and  O_20
REMARK                            x       y       z     vdW  Elec       q    Type
REMARK                         _______ _______ _______ _____ _____    ______ ____
ROOT
ATOM      1  C   UNK     1       3.691   7.006  17.814  0.00  0.00    +0.000 C 
ENDROOT
BRANCH   1   2
ATOM      2  C   UNK     1       4.971   6.320  17.383  0.00  0.00    +0.000 A 
ATOM      3  C   UNK     1       5.883   5.798  18.312  0.00  0.00    +0.000 A 
ATOM      4  C   UNK     1       7.048   5.161  17.886  0.00  0.00    +0.000 A 
ATOM      5  C   UNK     1       7.291   4.993  16.527  0.00  0.00    +0.000 A 
ATOM      6  C   UNK     1       6.362   5.440  15.582  0.00  0.00    +0.000 A 
ATOM      7  C   UNK     1       5.228   6.131  16.010  0.00  0.00    +0.000 A 
BRANCH   6   8
ATOM      8  O   UNK     1       6.717   5.202  14.290  0.00  0.00    +0.000 OA
BRANCH   8   9
ATOM      9  C   UNK     1       6.215   4.051  13.627  0.00  0.00    +0.000 C 
ATOM     10  F   UNK     1       6.263   2.918  14.359  0.00  0.00    +0.000 F 
ATOM     11  F   UNK     1       4.936   4.274  13.257  0.00  0.00    +0.000 F 
ATOM     12  F   UNK     1       6.945   3.849  12.506  0.00  0.00    +0.000 F 
ENDBRANCH   8   9
ENDBRANCH   6   8
ENDBRANCH   1   2
BRANCH   1  13
ATOM     13  S   UNK     1       2.831   6.164  19.184  0.00  0.00    +0.000 S 
BRANCH  13  14
ATOM     14  C   UNK     1       2.030   4.822  18.253  0.00  0.00    +0.000 C 
BRANCH  14  15
ATOM     15  C   UNK     1       2.886   3.563  18.393  0.00  0.00    +0.000 C 
BRANCH  15  16
ATOM     16  C   UNK     1       3.537   3.370  19.767  0.00  0.00    +0.000 C 
BRANCH  16  17
ATOM     17  N   UNK     1       4.819   2.613  19.724  0.00  0.00    +0.000 NA
ATOM     18  H   UNK     1       5.292   2.743  20.624  0.00  0.00    +0.000 HD
ATOM     19  H   UNK     1       5.446   3.047  19.040  0.00  0.00    +0.000 HD
ENDBRANCH  16  17
BRANCH  16  20
ATOM     20  C   UNK     1       2.600   2.697  20.784  0.00  0.00    +0.000 C 
ATOM     21  O   UNK     1       2.755   2.676  21.993  0.00  0.00    +0.000 OA
BRANCH  20  22
ATOM     22  O   UNK     1       1.556   2.098  20.152  0.00  0.00    +0.000 OA
ATOM     23  H   UNK     1       0.764   2.666  20.323  0.00  0.00    +0.000 HD
ENDBRANCH  20  22
ENDBRANCH  16  20
ENDBRANCH  15  16
ENDBRANCH  14  15
ENDBRANCH  13  14
ENDBRANCH   1  13
TORSDOF 10
ENDMDL
MODEL 6
REMARK VINA RESULT:      -6.3      0.835      1.211
REMARK  Name = 
REMARK  10 active torsions:
REMARK  status: ('A' for Active; 'I' for Inactive)
REMARK    1  A    between atoms: N_1  and  C_2
REMARK    2  A    between atoms: C_2  and  C_3
REMARK    3  A    between atoms: C_2  and  C_18
REMARK    4  A    between atoms: C_3  and  C_4
REMARK    5  A    between atoms: C_4  and  S_5
REMARK    6  A    between atoms: S_5  and  C_6
REMARK    7  A    between atoms: C_6  and  C_7
REMARK    8  A    between atoms: C_11  and  O_12
REMARK    9  A    between atoms: O_12  and  C_13
REMARK   10  A    between atoms: C_18  and  O_20
REMARK                            x       y       z     vdW  Elec       q    Type
REMARK                         _______ _______ _______ _____ _____    ______ ____
ROOT
ATOM      1  C   UNK     1       3.613   6.503  17.893  0.00  0.00    +0.000 C 
ENDROOT
BRANCH   1   2
ATOM      2  C   UNK     1       4.910   5.816  17.520  0.00  0.00    +0.000 A 
ATOM      3  C   UNK     1       6.067   5.936  18.304  0.00  0.00    +0.000 A 
ATOM      4  C   UNK     1       7.245   5.283  17.942  0.00  0.00    +0.000 A 
ATOM      5  C   UNK     1       7.267   4.461  16.820  0.00  0.00    +0.000 A 
ATOM      6  C   UNK     1       6.108   4.268  16.062  0.00  0.00    +0.000 A 
ATOM      7  C   UNK     1       4.949   4.971  16.392  0.00  0.00    +0.000 A 
BRANCH   6   8
ATOM      8  O   UNK     1       6.264   3.432  15.000  0.00  0.00    +0.000 OA
BRANCH   8   9
ATOM      9  C   UNK     1       6.134   3.943  13.682  0.00  0.00    +0.000 C 
ATOM     10  F   UNK     1       4.861   4.152  13.286  0.00  0.00    +0.000 F 
ATOM     11  F   UNK     1       6.814   5.105  13.587  0.00  0.00    +0.000 F 
ATOM     12  F   UNK     1       6.693   3.059  12.822  0.00  0.00    +0.000 F 
ENDBRANCH   8   9
ENDBRANCH   6   8
ENDBRANCH   1   2
BRANCH   1  13
ATOM     13  S   UNK     1       2.946   5.985  19.509  0.00  0.00    +0.000 S 
BRANCH  13  14
ATOM     14  C   UNK     1       1.785   4.699  18.954  0.00  0.00    +0.000 C 
BRANCH  14  15
ATOM     15  C   UNK     1       1.081   4.124  20.184  0.00  0.00    +0.000 C 
BRANCH  15  16
ATOM     16  C   UNK     1       1.555   2.731  20.609  0.00  0.00    +0.000 C 
BRANCH  16  17
ATOM     17  N   UNK     1       2.124   2.685  21.985  0.00  0.00    +0.000 NA
ATOM     18  H   UNK     1       2.408   3.636  22.241  0.00  0.00    +0.000 HD
ATOM     19  H   UNK     1       2.998   2.151  21.973  0.00  0.00    +0.000 HD
ENDBRANCH  16  17
BRANCH  16  20
ATOM     20  C   UNK     1       2.575   2.121  19.634  0.00  0.00    +0.000 C 
ATOM     21  O   UNK     1       3.786   2.249  19.694  0.00  0.00    +0.000 OA
BRANCH  20  22
ATOM     22  O   UNK     1       1.944   1.413  18.660  0.00  0.00    +0.000 OA
ATOM     23  H   UNK     1       1.109   1.902  18.456  0.00  0.00    +0.000 HD
ENDBRANCH  20  22
ENDBRANCH  16  20
ENDBRANCH  15  16
ENDBRANCH  14  15
ENDBRANCH  13  14
ENDBRANCH   1  13
TORSDOF 10
ENDMDL
MODEL 7
REMARK VINA RESULT:      -6.2      2.355      3.172
REMARK  Name = 
REMARK  10 active torsions:
REMARK  status: ('A' for Active; 'I' for Inactive)
REMARK    1  A    between atoms: N_1  and  C_2
REMARK    2  A    between atoms: C_2  and  C_3
REMARK    3  A    between atoms: C_2  and  C_18
REMARK    4  A    between atoms: C_3  and  C_4
REMARK    5  A    between atoms: C_4  and  S_5
REMARK    6  A    between atoms: S_5  and  C_6
REMARK    7  A    between atoms: C_6  and  C_7
REMARK    8  A    between atoms: C_11  and  O_12
REMARK    9  A    between atoms: O_12  and  C_13
REMARK   10  A    between atoms: C_18  and  O_20
REMARK                            x       y       z     vdW  Elec       q    Type
REMARK                         _______ _______ _______ _____ _____    ______ ____
ROOT
ATOM      1  C   UNK     1       2.362   5.344  18.105  0.00  0.00    +0.000 C 
ENDROOT
BRANCH   1   2
ATOM      2  C   UNK     1       3.788   5.045  17.692  0.00  0.00    +0.000 A 
ATOM      3  C   UNK     1       4.090   4.116  16.685  0.00  0.00    +0.000 A 
ATOM      4  C   UNK     1       5.413   3.868  16.317  0.00  0.00    +0.000 A 
ATOM      5  C   UNK     1       6.445   4.583  16.916  0.00  0.00    +0.000 A 
ATOM      6  C   UNK     1       6.166   5.565  17.871  0.00  0.00    +0.000 A 
ATOM      7  C   UNK     1       4.847   5.766  18.280  0.00  0.00    +0.000 A 
BRANCH   6   8
ATOM      8  O   UNK     1       7.265   6.195  18.367  0.00  0.00    +0.000 OA
BRANCH   8   9
ATOM      9  C   UNK     1       7.647   7.456  17.838  0.00  0.00    +0.000 C 
ATOM     10  F   UNK     1       6.644   8.355  17.758  0.00  0.00    +0.000 F 
ATOM     11  F   UNK     1       8.635   7.975  18.598  0.00  0.00    +0.000 F 
ATOM     12  F   UNK     1       8.133   7.268  16.589  0.00  0.00    +0.000 F 
ENDBRANCH   8   9
ENDBRANCH   6   8
ENDBRANCH   1   2
BRANCH   1  13
ATOM     13  S   UNK     1       2.231   6.489  19.518  0.00  0.00    +0.000 S 
BRANCH  13  14
ATOM     14  C   UNK     1       2.020   5.281  20.862  0.00  0.00    +0.000 C 
BRANCH  14  15
ATOM     15  C   UNK     1       1.167   4.124  20.339  0.00  0.00    +0.000 C 
BRANCH  15  16
ATOM     16  C   UNK     1       1.687   2.726  20.687  0.00  0.00    +0.000 C 
BRANCH  16  17
ATOM     17  N   UNK     1       2.431   2.666  21.976  0.00  0.00    +0.000 NA
ATOM     18  H   UNK     1       2.031   3.370  22.604  0.00  0.00    +0.000 HD
ATOM     19  H   UNK     1       3.396   2.976  21.826  0.00  0.00    +0.000 HD
ENDBRANCH  16  17
BRANCH  16  20
ATOM     20  C   UNK     1       2.569   2.123  19.581  0.00  0.00    +0.000 C 
ATOM     21  O   UNK     1       3.787   2.060  19.591  0.00  0.00    +0.000 OA
BRANCH  20  22
ATOM     22  O   UNK     1       1.805   1.667  18.553  0.00  0.00    +0.000 OA
ATOM     23  H   UNK     1       2.421   1.511  17.795  0.00  0.00    +0.000 HD
ENDBRANCH  20  22
ENDBRANCH  16  20
ENDBRANCH  15  16
ENDBRANCH  14  15
ENDBRANCH  13  14
ENDBRANCH   1  13
TORSDOF 10
ENDMDL
MODEL 8
REMARK VINA RESULT:      -6.2      1.328      1.507
REMARK  Name = 
REMARK  10 active torsions:
REMARK  status: ('A' for Active; 'I' for Inactive)
REMARK    1  A    between atoms: N_1  and  C_2
REMARK    2  A    between atoms: C_2  and  C_3
REMARK    3  A    between atoms: C_2  and  C_18
REMARK    4  A    between atoms: C_3  and  C_4
REMARK    5  A    between atoms: C_4  and  S_5
REMARK    6  A    between atoms: S_5  and  C_6
REMARK    7  A    between atoms: C_6  and  C_7
REMARK    8  A    between atoms: C_11  and  O_12
REMARK    9  A    between atoms: O_12  and  C_13
REMARK   10  A    between atoms: C_18  and  O_20
REMARK                            x       y       z     vdW  Elec       q    Type
REMARK                         _______ _______ _______ _____ _____    ______ ____
ROOT
ATOM      1  C   UNK     1       2.685   5.670  18.563  0.00  0.00    +0.000 C 
ENDROOT
BRANCH   1   2
ATOM      2  C   UNK     1       4.167   5.652  18.249  0.00  0.00    +0.000 A 
ATOM      3  C   UNK     1       5.135   5.456  19.245  0.00  0.00    +0.000 A 
ATOM      4  C   UNK     1       6.493   5.433  18.926  0.00  0.00    +0.000 A 
ATOM      5  C   UNK     1       6.896   5.555  17.600  0.00  0.00    +0.000 A 
ATOM      6  C   UNK     1       5.948   5.680  16.580  0.00  0.00    +0.000 A 
ATOM      7  C   UNK     1       4.594   5.764  16.911  0.00  0.00    +0.000 A 
BRANCH   6   8
ATOM      8  O   UNK     1       6.476   5.779  15.330  0.00  0.00    +0.000 OA
BRANCH   8   9
ATOM      9  C   UNK     1       6.404   4.668  14.450  0.00  0.00    +0.000 C 
ATOM     10  F   UNK     1       7.250   4.729  13.401  0.00  0.00    +0.000 F 
ATOM     11  F   UNK     1       6.653   3.536  15.142  0.00  0.00    +0.000 F 
ATOM     12  F   UNK     1       5.145   4.590  13.960  0.00  0.00    +0.000 F 
ENDBRANCH   8   9
ENDBRANCH   6   8
ENDBRANCH   1   2
BRANCH   1  13
ATOM     13  S   UNK     1       1.743   4.345  17.737  0.00  0.00    +0.000 S 
BRANCH  13  14
ATOM     14  C   UNK     1       1.029   3.531  19.198  0.00  0.00    +0.000 C 
BRANCH  14  15
ATOM     15  C   UNK     1       1.822   2.251  19.471  0.00  0.00    +0.000 C 
BRANCH  15  16
ATOM     16  C   UNK     1       2.761   2.316  20.679  0.00  0.00    +0.000 C 
BRANCH  16  17
ATOM     17  N   UNK     1       2.666   3.589  21.446  0.00  0.00    +0.000 NA
ATOM     18  H   UNK     1       3.288   4.272  21.002  0.00  0.00    +0.000 HD
ATOM     19  H   UNK     1       3.063   3.453  22.380  0.00  0.00    +0.000 HD
ENDBRANCH  16  17
BRANCH  16  20
ATOM     20  C   UNK     1       4.233   2.073  20.308  0.00  0.00    +0.000 C 
ATOM     21  O   UNK     1       5.141   1.853  21.091  0.00  0.00    +0.000 OA
BRANCH  20  22
ATOM     22  O   UNK     1       4.408   2.148  18.961  0.00  0.00    +0.000 OA
ATOM     23  H   UNK     1       4.063   3.033  18.685  0.00  0.00    +0.000 HD
ENDBRANCH  20  22
ENDBRANCH  16  20
ENDBRANCH  15  16
ENDBRANCH  14  15
ENDBRANCH  13  14
ENDBRANCH   1  13
TORSDOF 10
ENDMDL
MODEL 9
REMARK VINA RESULT:      -6.2      1.174      1.197
REMARK  Name = 
REMARK  10 active torsions:
REMARK  status: ('A' for Active; 'I' for Inactive)
REMARK    1  A    between atoms: N_1  and  C_2
REMARK    2  A    between atoms: C_2  and  C_3
REMARK    3  A    between atoms: C_2  and  C_18
REMARK    4  A    between atoms: C_3  and  C_4
REMARK    5  A    between atoms: C_4  and  S_5
REMARK    6  A    between atoms: S_5  and  C_6
REMARK    7  A    between atoms: C_6  and  C_7
REMARK    8  A    between atoms: C_11  and  O_12
REMARK    9  A    between atoms: O_12  and  C_13
REMARK   10  A    between atoms: C_18  and  O_20
REMARK                            x       y       z     vdW  Elec       q    Type
REMARK                         _______ _______ _______ _____ _____    ______ ____
ROOT
ATOM      1  C   UNK     1       3.155   5.739  17.934  0.00  0.00    +0.000 C 
ENDROOT
BRANCH   1   2
ATOM      2  C   UNK     1       4.535   5.578  17.332  0.00  0.00    +0.000 A 
ATOM      3  C   UNK     1       5.637   6.314  17.793  0.00  0.00    +0.000 A 
ATOM      4  C   UNK     1       6.900   6.137  17.228  0.00  0.00    +0.000 A 
ATOM      5  C   UNK     1       7.087   5.186  16.230  0.00  0.00    +0.000 A 
ATOM      6  C   UNK     1       6.020   4.389  15.803  0.00  0.00    +0.000 A 
ATOM      7  C   UNK     1       4.746   4.611  16.328  0.00  0.00    +0.000 A 
BRANCH   6   8
ATOM      8  O   UNK     1       6.343   3.492  14.832  0.00  0.00    +0.000 OA
BRANCH   8   9
ATOM      9  C   UNK     1       6.175   3.847  13.468  0.00  0.00    +0.000 C 
ATOM     10  F   UNK     1       6.539   2.887  12.591  0.00  0.00    +0.000 F 
ATOM     11  F   UNK     1       4.882   4.167  13.247  0.00  0.00    +0.000 F 
ATOM     12  F   UNK     1       6.927   4.943  13.214  0.00  0.00    +0.000 F 
ENDBRANCH   8   9
ENDBRANCH   6   8
ENDBRANCH   1   2
BRANCH   1  13
ATOM     13  S   UNK     1       3.114   5.532  19.745  0.00  0.00    +0.000 S 
BRANCH  13  14
ATOM     14  C   UNK     1       1.619   4.508  19.896  0.00  0.00    +0.000 C 
BRANCH  14  15
ATOM     15  C   UNK     1       2.049   3.047  20.032  0.00  0.00    +0.000 C 
BRANCH  15  16
ATOM     16  C   UNK     1       2.939   2.525  18.899  0.00  0.00    +0.000 C 
BRANCH  16  17
ATOM     17  N   UNK     1       2.222   1.660  17.922  0.00  0.00    +0.000 NA
ATOM     18  H   UNK     1       1.227   1.902  17.957  0.00  0.00    +0.000 HD
ATOM     19  H   UNK     1       2.260   0.687  18.239  0.00  0.00    +0.000 HD
ENDBRANCH  16  17
BRANCH  16  20
ATOM     20  C   UNK     1       4.178   1.770  19.410  0.00  0.00    +0.000 C 
ATOM     21  O   UNK     1       4.876   2.098  20.354  0.00  0.00    +0.000 OA
BRANCH  20  22
ATOM     22  O   UNK     1       4.415   0.668  18.650  0.00  0.00    +0.000 OA
ATOM     23  H   UNK     1       5.247   0.262  19.000  0.00  0.00    +0.000 HD
ENDBRANCH  20  22
ENDBRANCH  16  20
ENDBRANCH  15  16
ENDBRANCH  14  15
ENDBRANCH  13  14
ENDBRANCH   1  13
TORSDOF 10
ENDMDL
