MODEL 1
REMARK VINA RESULT:      -7.8      0.000      0.000
REMARK  Name = 
REMARK  3 active torsions:
REMARK  status: ('A' for Active; 'I' for Inactive)
REMARK    1  A    between atoms: N_6  and  C_7
REMARK    2  A    between atoms: C_16  and  C_17
REMARK    3  A    between atoms: C_18  and  C_19
REMARK                            x       y       z     vdW  Elec       q    Type
REMARK                         _______ _______ _______ _____ _____    ______ ____
ROOT
ATOM      1  O   UNL     1       1.212   3.205  21.691  0.00  0.00    +0.000 OA
ATOM      2  C   UNL     1       1.971   3.513  20.781  0.00  0.00    +0.000 C 
ATOM      3  N   UNL     1       2.642   2.562  20.067  0.00  0.00    +0.000 N 
ATOM      4  C   UNL     1       3.520   2.732  19.025  0.00  0.00    +0.000 C 
ATOM      5  S   UNL     1       4.029   1.315  18.272  0.00  0.00    +0.000 S 
ATOM      6  N   UNL     1       3.839   4.049  18.688  0.00  0.00    +0.000 N 
ATOM      7  C   UNL     1       3.293   5.167  19.341  0.00  0.00    +0.000 C 
ATOM      8  O   UNL     1       3.721   6.309  19.169  0.00  0.00    +0.000 OA
ATOM      9  C   UNL     1       2.223   4.903  20.347  0.00  0.00    +0.000 C 
ATOM     10  C   UNL     1       1.453   5.863  20.909  0.00  0.00    +0.000 C 
ATOM     11  H   UNL     1       2.421   1.606  20.320  0.00  0.00    +0.000 HD
ENDROOT
BRANCH   6  12
ATOM     12  C   UNL     1       4.880   4.359  17.738  0.00  0.00    +0.000 A 
ATOM     13  C   UNL     1       4.609   4.406  16.364  0.00  0.00    +0.000 A 
ATOM     14  C   UNL     1       5.651   4.547  15.443  0.00  0.00    +0.000 A 
ATOM     15  C   UNL     1       6.969   4.648  15.883  0.00  0.00    +0.000 A 
ATOM     16  C   UNL     1       7.251   4.614  17.246  0.00  0.00    +0.000 A 
ATOM     17  C   UNL     1       6.213   4.467  18.168  0.00  0.00    +0.000 A 
ENDBRANCH   6  12
BRANCH  10  18
ATOM     18  C   UNL     1       1.452   7.273  20.570  0.00  0.00    +0.000 C 
ATOM     19  C   UNL     1       0.835   8.258  21.241  0.00  0.00    +0.000 C 
BRANCH  19  20
ATOM     20  C   UNL     1       0.926   9.588  20.729  0.00  0.00    +0.000 A 
ATOM     21  C   UNL     1       0.938  10.038  19.415  0.00  0.00    +0.000 A 
ATOM     22  C   UNL     1       1.061  11.451  19.435  0.00  0.00    +0.000 A 
ATOM     23  C   UNL     1       1.114  11.805  20.758  0.00  0.00    +0.000 A 
ATOM     24  O   UNL     1       1.035  10.705  21.536  0.00  0.00    +0.000 OA
ENDBRANCH  19  20
ENDBRANCH  10  18
TORSDOF 3
ENDMDL
MODEL 2
REMARK VINA RESULT:      -7.6      0.191      1.023
REMARK  Name = 
REMARK  3 active torsions:
REMARK  status: ('A' for Active; 'I' for Inactive)
REMARK    1  A    between atoms: N_6  and  C_7
REMARK    2  A    between atoms: C_16  and  C_17
REMARK    3  A    between atoms: C_18  and  C_19
REMARK                            x       y       z     vdW  Elec       q    Type
REMARK                         _______ _______ _______ _____ _____    ______ ____
ROOT
ATOM      1  O   UNL     1       1.264   3.166  21.698  0.00  0.00    +0.000 OA
ATOM      2  C   UNL     1       2.017   3.463  20.779  0.00  0.00    +0.000 C 
ATOM      3  N   UNL     1       2.696   2.504  20.084  0.00  0.00    +0.000 N 
ATOM      4  C   UNL     1       3.569   2.662  19.036  0.00  0.00    +0.000 C 
ATOM      5  S   UNL     1       4.092   1.235  18.312  0.00  0.00    +0.000 S 
ATOM      6  N   UNL     1       3.872   3.975  18.670  0.00  0.00    +0.000 N 
ATOM      7  C   UNL     1       3.316   5.100  19.300  0.00  0.00    +0.000 C 
ATOM      8  O   UNL     1       3.730   6.243  19.102  0.00  0.00    +0.000 OA
ATOM      9  C   UNL     1       2.251   4.846  20.315  0.00  0.00    +0.000 C 
ATOM     10  C   UNL     1       1.473   5.810  20.859  0.00  0.00    +0.000 C 
ATOM     11  H   UNL     1       2.487   1.552  20.358  0.00  0.00    +0.000 HD
ENDROOT
BRANCH   6  12
ATOM     12  C   UNL     1       4.907   4.276  17.710  0.00  0.00    +0.000 A 
ATOM     13  C   UNL     1       6.238   4.439  18.115  0.00  0.00    +0.000 A 
ATOM     14  C   UNL     1       7.202   4.887  17.207  0.00  0.00    +0.000 A 
ATOM     15  C   UNL     1       6.849   5.171  15.890  0.00  0.00    +0.000 A 
ATOM     16  C   UNL     1       5.532   5.003  15.471  0.00  0.00    +0.000 A 
ATOM     17  C   UNL     1       4.565   4.561  16.377  0.00  0.00    +0.000 A 
ENDBRANCH   6  12
BRANCH  10  18
ATOM     18  C   UNL     1       1.455   7.211  20.490  0.00  0.00    +0.000 C 
ATOM     19  C   UNL     1       1.018   8.233  21.243  0.00  0.00    +0.000 C 
BRANCH  19  20
ATOM     20  C   UNL     1       1.054   9.548  20.689  0.00  0.00    +0.000 A 
ATOM     21  C   UNL     1       1.095   9.955  19.360  0.00  0.00    +0.000 A 
ATOM     22  C   UNL     1       1.135  11.372  19.335  0.00  0.00    +0.000 A 
ATOM     23  C   UNL     1       1.112  11.772  20.646  0.00  0.00    +0.000 A 
ATOM     24  O   UNL     1       1.065  10.696  21.459  0.00  0.00    +0.000 OA
ENDBRANCH  19  20
ENDBRANCH  10  18
TORSDOF 3
ENDMDL
MODEL 3
REMARK VINA RESULT:      -7.4      4.037      8.313
REMARK  Name = 
REMARK  3 active torsions:
REMARK  status: ('A' for Active; 'I' for Inactive)
REMARK    1  A    between atoms: N_6  and  C_7
REMARK    2  A    between atoms: C_16  and  C_17
REMARK    3  A    between atoms: C_18  and  C_19
REMARK                            x       y       z     vdW  Elec       q    Type
REMARK                         _______ _______ _______ _____ _____    ______ ____
ROOT
ATOM      1  O   UNL     1       6.658   7.634  16.675  0.00  0.00    +0.000 OA
ATOM      2  C   UNL     1       5.801   6.796  16.929  0.00  0.00    +0.000 C 
ATOM      3  N   UNL     1       4.891   6.996  17.928  0.00  0.00    +0.000 N 
ATOM      4  C   UNL     1       3.874   6.170  18.340  0.00  0.00    +0.000 C 
ATOM      5  S   UNL     1       2.841   6.822  19.497  0.00  0.00    +0.000 S 
ATOM      6  N   UNL     1       3.792   4.924  17.715  0.00  0.00    +0.000 N 
ATOM      7  C   UNL     1       4.670   4.511  16.699  0.00  0.00    +0.000 C 
ATOM      8  O   UNL     1       4.711   3.349  16.292  0.00  0.00    +0.000 OA
ATOM      9  C   UNL     1       5.640   5.526  16.192  0.00  0.00    +0.000 C 
ATOM     10  C   UNL     1       6.406   5.362  15.089  0.00  0.00    +0.000 C 
ATOM     11  H   UNL     1       4.959   7.895  18.391  0.00  0.00    +0.000 HD
ENDROOT
BRANCH   6  12
ATOM     12  C   UNL     1       2.887   3.901  18.178  0.00  0.00    +0.000 A 
ATOM     13  C   UNL     1       1.546   3.892  17.775  0.00  0.00    +0.000 A 
ATOM     14  C   UNL     1       0.641   2.996  18.352  0.00  0.00    +0.000 A 
ATOM     15  C   UNL     1       1.066   2.100  19.330  0.00  0.00    +0.000 A 
ATOM     16  C   UNL     1       2.399   2.091  19.733  0.00  0.00    +0.000 A 
ATOM     17  C   UNL     1       3.304   2.989  19.162  0.00  0.00    +0.000 A 
ENDBRANCH   6  12
BRANCH  10  18
ATOM     18  C   UNL     1       6.351   4.250  14.161  0.00  0.00    +0.000 C 
ATOM     19  C   UNL     1       6.613   4.291  12.845  0.00  0.00    +0.000 C 
BRANCH  19  20
ATOM     20  C   UNL     1       6.474   3.088  12.089  0.00  0.00    +0.000 A 
ATOM     21  C   UNL     1       5.336   2.347  11.794  0.00  0.00    +0.000 A 
ATOM     22  C   UNL     1       5.729   1.224  11.022  0.00  0.00    +0.000 A 
ATOM     23  C   UNL     1       7.087   1.328  10.873  0.00  0.00    +0.000 A 
ATOM     24  O   UNL     1       7.541   2.432  11.504  0.00  0.00    +0.000 OA
ENDBRANCH  19  20
ENDBRANCH  10  18
TORSDOF 3
ENDMDL
MODEL 4
REMARK VINA RESULT:      -6.8      3.981      8.308
REMARK  Name = 
REMARK  3 active torsions:
REMARK  status: ('A' for Active; 'I' for Inactive)
REMARK    1  A    between atoms: N_6  and  C_7
REMARK    2  A    between atoms: C_16  and  C_17
REMARK    3  A    between atoms: C_18  and  C_19
REMARK                            x       y       z     vdW  Elec       q    Type
REMARK                         _______ _______ _______ _____ _____    ______ ____
ROOT
ATOM      1  O   UNL     1       6.504   7.767  16.666  0.00  0.00    +0.000 OA
ATOM      2  C   UNL     1       5.669   6.919  16.950  0.00  0.00    +0.000 C 
ATOM      3  N   UNL     1       4.789   7.108  17.978  0.00  0.00    +0.000 N 
ATOM      4  C   UNL     1       3.798   6.269  18.424  0.00  0.00    +0.000 C 
ATOM      5  S   UNL     1       2.793   6.909  19.612  0.00  0.00    +0.000 S 
ATOM      6  N   UNL     1       3.714   5.020  17.805  0.00  0.00    +0.000 N 
ATOM      7  C   UNL     1       4.565   4.616  16.763  0.00  0.00    +0.000 C 
ATOM      8  O   UNL     1       4.610   3.454  16.357  0.00  0.00    +0.000 OA
ATOM      9  C   UNL     1       5.503   5.643  16.222  0.00  0.00    +0.000 C 
ATOM     10  C   UNL     1       6.235   5.488  15.095  0.00  0.00    +0.000 C 
ATOM     11  H   UNL     1       4.858   8.009  18.435  0.00  0.00    +0.000 HD
ENDROOT
BRANCH   6  12
ATOM     12  C   UNL     1       2.840   3.985  18.300  0.00  0.00    +0.000 A 
ATOM     13  C   UNL     1       3.338   2.935  19.082  0.00  0.00    +0.000 A 
ATOM     14  C   UNL     1       2.517   1.855  19.421  0.00  0.00    +0.000 A 
ATOM     15  C   UNL     1       1.194   1.816  18.989  0.00  0.00    +0.000 A 
ATOM     16  C   UNL     1       0.682   2.858  18.220  0.00  0.00    +0.000 A 
ATOM     17  C   UNL     1       1.501   3.935  17.875  0.00  0.00    +0.000 A 
ENDBRANCH   6  12
BRANCH  10  18
ATOM     18  C   UNL     1       6.167   4.372  14.172  0.00  0.00    +0.000 C 
ATOM     19  C   UNL     1       6.705   4.314  12.943  0.00  0.00    +0.000 C 
BRANCH  19  20
ATOM     20  C   UNL     1       6.501   3.132  12.170  0.00  0.00    +0.000 A 
ATOM     21  C   UNL     1       5.336   2.413  11.929  0.00  0.00    +0.000 A 
ATOM     22  C   UNL     1       5.665   1.304  11.108  0.00  0.00    +0.000 A 
ATOM     23  C   UNL     1       7.013   1.393  10.878  0.00  0.00    +0.000 A 
ATOM     24  O   UNL     1       7.521   2.476  11.505  0.00  0.00    +0.000 OA
ENDBRANCH  19  20
ENDBRANCH  10  18
TORSDOF 3
ENDMDL
MODEL 5
REMARK VINA RESULT:      -6.8      3.844      6.362
REMARK  Name = 
REMARK  3 active torsions:
REMARK  status: ('A' for Active; 'I' for Inactive)
REMARK    1  A    between atoms: N_6  and  C_7
REMARK    2  A    between atoms: C_16  and  C_17
REMARK    3  A    between atoms: C_18  and  C_19
REMARK                            x       y       z     vdW  Elec       q    Type
REMARK                         _______ _______ _______ _____ _____    ______ ____
ROOT
ATOM      1  O   UNL     1       6.350   3.994  16.396  0.00  0.00    +0.000 OA
ATOM      2  C   UNL     1       5.561   4.774  16.914  0.00  0.00    +0.000 C 
ATOM      3  N   UNL     1       4.311   4.370  17.287  0.00  0.00    +0.000 N 
ATOM      4  C   UNL     1       3.312   5.107  17.876  0.00  0.00    +0.000 C 
ATOM      5  S   UNL     1       1.955   4.231  18.350  0.00  0.00    +0.000 S 
ATOM      6  N   UNL     1       3.566   6.468  18.055  0.00  0.00    +0.000 N 
ATOM      7  C   UNL     1       4.773   7.084  17.687  0.00  0.00    +0.000 C 
ATOM      8  O   UNL     1       4.915   8.307  17.670  0.00  0.00    +0.000 OA
ATOM      9  C   UNL     1       5.868   6.189  17.209  0.00  0.00    +0.000 C 
ATOM     10  C   UNL     1       7.146   6.586  17.015  0.00  0.00    +0.000 C 
ATOM     11  H   UNL     1       4.122   3.385  17.145  0.00  0.00    +0.000 HD
ENDROOT
BRANCH   6  12
ATOM     12  C   UNL     1       2.538   7.380  18.494  0.00  0.00    +0.000 A 
ATOM     13  C   UNL     1       1.955   8.290  17.602  0.00  0.00    +0.000 A 
ATOM     14  C   UNL     1       1.079   9.274  18.070  0.00  0.00    +0.000 A 
ATOM     15  C   UNL     1       0.773   9.356  19.426  0.00  0.00    +0.000 A 
ATOM     16  C   UNL     1       1.337   8.451  20.322  0.00  0.00    +0.000 A 
ATOM     17  C   UNL     1       2.217   7.471  19.859  0.00  0.00    +0.000 A 
ENDBRANCH   6  12
BRANCH  10  18
ATOM     18  C   UNL     1       7.699   7.889  17.327  0.00  0.00    +0.000 C 
ATOM     19  C   UNL     1       8.312   8.248  18.466  0.00  0.00    +0.000 C 
BRANCH  19  20
ATOM     20  C   UNL     1       8.764   9.596  18.597  0.00  0.00    +0.000 A 
ATOM     21  C   UNL     1       9.489  10.199  19.619  0.00  0.00    +0.000 A 
ATOM     22  C   UNL     1       9.672  11.564  19.283  0.00  0.00    +0.000 A 
ATOM     23  C   UNL     1       9.058  11.738  18.070  0.00  0.00    +0.000 A 
ATOM     24  O   UNL     1       8.514  10.575  17.654  0.00  0.00    +0.000 OA
ENDBRANCH  19  20
ENDBRANCH  10  18
TORSDOF 3
ENDMDL
MODEL 6
REMARK VINA RESULT:      -6.7      2.209      2.935
REMARK  Name = 
REMARK  3 active torsions:
REMARK  status: ('A' for Active; 'I' for Inactive)
REMARK    1  A    between atoms: N_6  and  C_7
REMARK    2  A    between atoms: C_16  and  C_17
REMARK    3  A    between atoms: C_18  and  C_19
REMARK                            x       y       z     vdW  Elec       q    Type
REMARK                         _______ _______ _______ _____ _____    ______ ____
ROOT
ATOM      1  O   UNL     1       1.864   2.369  17.881  0.00  0.00    +0.000 OA
ATOM      2  C   UNL     1       2.756   3.208  17.894  0.00  0.00    +0.000 C 
ATOM      3  N   UNL     1       3.799   3.144  17.014  0.00  0.00    +0.000 N 
ATOM      4  C   UNL     1       4.871   3.995  16.892  0.00  0.00    +0.000 C 
ATOM      5  S   UNL     1       5.879   3.698  15.577  0.00  0.00    +0.000 S 
ATOM      6  N   UNL     1       4.961   5.022  17.833  0.00  0.00    +0.000 N 
ATOM      7  C   UNL     1       4.014   5.222  18.851  0.00  0.00    +0.000 C 
ATOM      8  O   UNL     1       4.200   6.004  19.784  0.00  0.00    +0.000 OA
ATOM      9  C   UNL     1       2.795   4.363  18.815  0.00  0.00    +0.000 C 
ATOM     10  C   UNL     1       1.701   4.561  19.586  0.00  0.00    +0.000 C 
ATOM     11  H   UNL     1       3.741   2.391  16.340  0.00  0.00    +0.000 HD
ENDROOT
BRANCH   6  12
ATOM     12  C   UNL     1       6.126   5.868  17.924  0.00  0.00    +0.000 A 
ATOM     13  C   UNL     1       7.149   5.587  18.839  0.00  0.00    +0.000 A 
ATOM     14  C   UNL     1       8.194   6.496  19.032  0.00  0.00    +0.000 A 
ATOM     15  C   UNL     1       8.230   7.688  18.312  0.00  0.00    +0.000 A 
ATOM     16  C   UNL     1       7.225   7.975  17.391  0.00  0.00    +0.000 A 
ATOM     17  C   UNL     1       6.178   7.071  17.200  0.00  0.00    +0.000 A 
ENDBRANCH   6  12
BRANCH  10  18
ATOM     18  C   UNL     1       1.473   5.675  20.485  0.00  0.00    +0.000 C 
ATOM     19  C   UNL     1       0.993   6.885  20.158  0.00  0.00    +0.000 C 
BRANCH  19  20
ATOM     20  C   UNL     1       0.868   7.866  21.187  0.00  0.00    +0.000 A 
ATOM     21  C   UNL     1      -0.272   8.436  21.742  0.00  0.00    +0.000 A 
ATOM     22  C   UNL     1       0.138   9.374  22.724  0.00  0.00    +0.000 A 
ATOM     23  C   UNL     1       1.508   9.335  22.731  0.00  0.00    +0.000 A 
ATOM     24  O   UNL     1       1.952   8.443  21.821  0.00  0.00    +0.000 OA
ENDBRANCH  19  20
ENDBRANCH  10  18
TORSDOF 3
ENDMDL
MODEL 7
REMARK VINA RESULT:      -6.5      7.981     10.814
REMARK  Name = 
REMARK  3 active torsions:
REMARK  status: ('A' for Active; 'I' for Inactive)
REMARK    1  A    between atoms: N_6  and  C_7
REMARK    2  A    between atoms: C_16  and  C_17
REMARK    3  A    between atoms: C_18  and  C_19
REMARK                            x       y       z     vdW  Elec       q    Type
REMARK                         _______ _______ _______ _____ _____    ______ ____
ROOT
ATOM      1  O   UNL     1      11.293  13.755  18.853  0.00  0.00    +0.000 OA
ATOM      2  C   UNL     1      10.523  13.461  19.758  0.00  0.00    +0.000 C 
ATOM      3  N   UNL     1      10.193  14.365  20.727  0.00  0.00    +0.000 N 
ATOM      4  C   UNL     1       9.353  14.203  21.801  0.00  0.00    +0.000 C 
ATOM      5  S   UNL     1       9.051  15.595  22.697  0.00  0.00    +0.000 S 
ATOM      6  N   UNL     1       8.816  12.927  21.985  0.00  0.00    +0.000 N 
ATOM      7  C   UNL     1       9.079  11.848  21.125  0.00  0.00    +0.000 C 
ATOM      8  O   UNL     1       8.760  10.690  21.399  0.00  0.00    +0.000 OA
ATOM      9  C   UNL     1       9.863  12.145  19.891  0.00  0.00    +0.000 C 
ATOM     10  C   UNL     1      10.025  11.279  18.865  0.00  0.00    +0.000 C 
ATOM     11  H   UNL     1      10.593  15.288  20.602  0.00  0.00    +0.000 HD
ENDROOT
BRANCH   6  12
ATOM     12  C   UNL     1       8.068  12.581  23.169  0.00  0.00    +0.000 A 
ATOM     13  C   UNL     1       8.719  12.339  24.386  0.00  0.00    +0.000 A 
ATOM     14  C   UNL     1       8.006  11.849  25.484  0.00  0.00    +0.000 A 
ATOM     15  C   UNL     1       6.638  11.603  25.380  0.00  0.00    +0.000 A 
ATOM     16  C   UNL     1       5.976  11.851  24.180  0.00  0.00    +0.000 A 
ATOM     17  C   UNL     1       6.688  12.334  23.080  0.00  0.00    +0.000 A 
ENDBRANCH   6  12
BRANCH  10  18
ATOM     18  C   UNL     1       9.398   9.979  18.729  0.00  0.00    +0.000 C 
ATOM     19  C   UNL     1       8.494   9.618  17.805  0.00  0.00    +0.000 C 
BRANCH  19  20
ATOM     20  C   UNL     1       7.967   8.292  17.854  0.00  0.00    +0.000 A 
ATOM     21  C   UNL     1       8.241   7.256  18.739  0.00  0.00    +0.000 A 
ATOM     22  C   UNL     1       7.468   6.131  18.353  0.00  0.00    +0.000 A 
ATOM     23  C   UNL     1       6.751   6.527  17.254  0.00  0.00    +0.000 A 
ATOM     24  O   UNL     1       7.040   7.810  16.949  0.00  0.00    +0.000 OA
ENDBRANCH  19  20
ENDBRANCH  10  18
TORSDOF 3
ENDMDL
MODEL 8
REMARK VINA RESULT:      -6.5      2.171      2.693
REMARK  Name = 
REMARK  3 active torsions:
REMARK  status: ('A' for Active; 'I' for Inactive)
REMARK    1  A    between atoms: N_6  and  C_7
REMARK    2  A    between atoms: C_16  and  C_17
REMARK    3  A    between atoms: C_18  and  C_19
REMARK                            x       y       z     vdW  Elec       q    Type
REMARK                         _______ _______ _______ _____ _____    ______ ____
ROOT
ATOM      1  O   UNL     1       1.800   2.166  18.241  0.00  0.00    +0.000 OA
ATOM      2  C   UNL     1       2.642   3.054  18.220  0.00  0.00    +0.000 C 
ATOM      3  N   UNL     1       3.696   3.009  17.353  0.00  0.00    +0.000 N 
ATOM      4  C   UNL     1       4.718   3.913  17.198  0.00  0.00    +0.000 C 
ATOM      5  S   UNL     1       5.756   3.613  15.908  0.00  0.00    +0.000 S 
ATOM      6  N   UNL     1       4.739   4.988  18.089  0.00  0.00    +0.000 N 
ATOM      7  C   UNL     1       3.771   5.182  19.088  0.00  0.00    +0.000 C 
ATOM      8  O   UNL     1       3.901   6.017  19.984  0.00  0.00    +0.000 OA
ATOM      9  C   UNL     1       2.603   4.252  19.084  0.00  0.00    +0.000 C 
ATOM     10  C   UNL     1       1.491   4.424  19.835  0.00  0.00    +0.000 C 
ATOM     11  H   UNL     1       3.688   2.222  16.716  0.00  0.00    +0.000 HD
ENDROOT
BRANCH   6  12
ATOM     12  C   UNL     1       5.852   5.903  18.148  0.00  0.00    +0.000 A 
ATOM     13  C   UNL     1       5.922   7.008  17.289  0.00  0.00    +0.000 A 
ATOM     14  C   UNL     1       7.076   7.795  17.242  0.00  0.00    +0.000 A 
ATOM     15  C   UNL     1       8.167   7.491  18.053  0.00  0.00    +0.000 A 
ATOM     16  C   UNL     1       8.108   6.403  18.919  0.00  0.00    +0.000 A 
ATOM     17  C   UNL     1       6.958   5.611  18.964  0.00  0.00    +0.000 A 
ENDBRANCH   6  12
BRANCH  10  18
ATOM     18  C   UNL     1       1.190   5.565  20.678  0.00  0.00    +0.000 C 
ATOM     19  C   UNL     1       0.851   6.797  20.267  0.00  0.00    +0.000 C 
BRANCH  19  20
ATOM     20  C   UNL     1       0.621   7.802  21.255  0.00  0.00    +0.000 A 
ATOM     21  C   UNL     1       1.518   8.659  21.881  0.00  0.00    +0.000 A 
ATOM     22  C   UNL     1       0.792   9.460  22.800  0.00  0.00    +0.000 A 
ATOM     23  C   UNL     1      -0.515   9.064  22.694  0.00  0.00    +0.000 A 
ATOM     24  O   UNL     1      -0.628   8.078  21.779  0.00  0.00    +0.000 OA
ENDBRANCH  19  20
ENDBRANCH  10  18
TORSDOF 3
ENDMDL
MODEL 9
REMARK VINA RESULT:      -6.3      7.868     10.731
REMARK  Name = 
REMARK  3 active torsions:
REMARK  status: ('A' for Active; 'I' for Inactive)
REMARK    1  A    between atoms: N_6  and  C_7
REMARK    2  A    between atoms: C_16  and  C_17
REMARK    3  A    between atoms: C_18  and  C_19
REMARK                            x       y       z     vdW  Elec       q    Type
REMARK                         _______ _______ _______ _____ _____    ______ ____
ROOT
ATOM      1  O   UNL     1      10.827  13.727  17.948  0.00  0.00    +0.000 OA
ATOM      2  C   UNL     1      10.171  13.464  18.948  0.00  0.00    +0.000 C 
ATOM      3  N   UNL     1       9.855  14.430  19.860  0.00  0.00    +0.000 N 
ATOM      4  C   UNL     1       9.134  14.309  21.023  0.00  0.00    +0.000 C 
ATOM      5  S   UNL     1       8.799  15.755  21.817  0.00  0.00    +0.000 S 
ATOM      6  N   UNL     1       8.727  13.019  21.371  0.00  0.00    +0.000 N 
ATOM      7  C   UNL     1       9.000  11.886  20.589  0.00  0.00    +0.000 C 
ATOM      8  O   UNL     1       8.807  10.739  20.994  0.00  0.00    +0.000 OA
ATOM      9  C   UNL     1       9.640  12.121  19.261  0.00  0.00    +0.000 C 
ATOM     10  C   UNL     1       9.781  11.174  18.305  0.00  0.00    +0.000 C 
ATOM     11  H   UNL     1      10.162  15.364  19.614  0.00  0.00    +0.000 HD
ENDROOT
BRANCH   6  12
ATOM     12  C   UNL     1       8.123  12.734  22.649  0.00  0.00    +0.000 A 
ATOM     13  C   UNL     1       6.737  12.838  22.830  0.00  0.00    +0.000 A 
ATOM     14  C   UNL     1       6.180  12.717  24.106  0.00  0.00    +0.000 A 
ATOM     15  C   UNL     1       6.997  12.487  25.211  0.00  0.00    +0.000 A 
ATOM     16  C   UNL     1       8.374  12.371  25.045  0.00  0.00    +0.000 A 
ATOM     17  C   UNL     1       8.935  12.497  23.772  0.00  0.00    +0.000 A 
ENDBRANCH   6  12
BRANCH  10  18
ATOM     18  C   UNL     1       9.256   9.824  18.348  0.00  0.00    +0.000 C 
ATOM     19  C   UNL     1       8.139   9.378  17.752  0.00  0.00    +0.000 C 
BRANCH  19  20
ATOM     20  C   UNL     1       7.770   8.012  17.938  0.00  0.00    +0.000 A 
ATOM     21  C   UNL     1       6.771   7.266  17.323  0.00  0.00    +0.000 A 
ATOM     22  C   UNL     1       6.801   5.957  17.869  0.00  0.00    +0.000 A 
ATOM     23  C   UNL     1       7.817   5.956  18.789  0.00  0.00    +0.000 A 
ATOM     24  O   UNL     1       8.399   7.172  18.839  0.00  0.00    +0.000 OA
ENDBRANCH  19  20
ENDBRANCH  10  18
TORSDOF 3
ENDMDL
