MODEL 1
REMARK VINA RESULT:      -8.4      0.000      0.000
REMARK  Name = 
REMARK  9 active torsions:
REMARK  status: ('A' for Active; 'I' for Inactive)
REMARK    1  A    between atoms: C_1  and  O_2
REMARK    2  A    between atoms: O_2  and  C_3
REMARK    3  A    between atoms: C_6  and  N_7
REMARK    4  A    between atoms: C_11  and  N_12
REMARK    5  A    between atoms: N_12  and  S_13
REMARK    6  A    between atoms: S_13  and  C_16
REMARK    7  A    between atoms: C_18  and  C_19
REMARK    8  A    between atoms: N_21  and  C_22
REMARK    9  A    between atoms: C_22  and  C_23
REMARK                            x       y       z     vdW  Elec       q    Type
REMARK                         _______ _______ _______ _____ _____    ______ ____
ROOT
ATOM      1  C   UNL     1       2.343   4.365  18.878  0.00  0.00    +0.000 A 
ATOM      2  C   UNL     1       2.368   5.649  18.313  0.00  0.00    +0.000 A 
ATOM      3  C   UNL     1       2.094   6.766  19.106  0.00  0.00    +0.000 A 
ATOM      4  C   UNL     1       1.813   6.590  20.466  0.00  0.00    +0.000 A 
ATOM      5  C   UNL     1       1.711   5.302  21.004  0.00  0.00    +0.000 A 
ATOM      6  C   UNL     1       1.949   4.178  20.206  0.00  0.00    +0.000 A 
ATOM      7 CL   UNL     1       1.812   2.634  20.967  0.00  0.00    +0.000 Cl
ENDROOT
BRANCH   3   8
ATOM      8  C   UNL     1       2.199   8.143  18.549  0.00  0.00    +0.000 C 
ATOM      9  O   UNL     1       3.026   8.385  17.682  0.00  0.00    +0.000 OA
ATOM     10  N   UNL     1       1.332   9.074  19.074  0.00  0.00    +0.000 N 
ATOM     11  H   UNL     1       0.751   8.846  19.866  0.00  0.00    +0.000 HD
BRANCH  10  12
ATOM     12  C   UNL     1       1.262  10.429  18.575  0.00  0.00    +0.000 C 
BRANCH  12  13
ATOM     13  C   UNL     1       0.517  11.308  19.536  0.00  0.00    +0.000 A 
ATOM     14  C   UNL     1      -0.501  12.170  19.118  0.00  0.00    +0.000 A 
ATOM     15  C   UNL     1      -1.154  12.971  20.052  0.00  0.00    +0.000 A 
ATOM     16  C   UNL     1      -0.760  12.891  21.378  0.00  0.00    +0.000 A 
ATOM     17  N   UNL     1       0.227  12.083  21.816  0.00  0.00    +0.000 NA
ATOM     18  C   UNL     1       0.845  11.315  20.889  0.00  0.00    +0.000 A 
ENDBRANCH  12  13
ENDBRANCH  10  12
ENDBRANCH   3   8
BRANCH   1  19
ATOM     19  S   UNL     1       3.072   3.050  17.938  0.00  0.00    +0.000 S 
ATOM     20  O   UNL     1       2.013   2.140  17.555  0.00  0.00    +0.000 OA
ATOM     21  O   UNL     1       4.226   2.581  18.668  0.00  0.00    +0.000 OA
BRANCH  19  22
ATOM     22  N   UNL     1       3.620   3.831  16.560  0.00  0.00    +0.000 N 
ATOM     23  H   UNL     1       2.893   4.150  15.926  0.00  0.00    +0.000 HD
BRANCH  22  29
ATOM     24  C   UNL     1       5.670   4.371  15.270  0.00  0.00    +0.000 A 
ATOM     25  C   UNL     1       6.945   4.958  15.247  0.00  0.00    +0.000 A 
ATOM     26  C   UNL     1       7.532   5.456  16.412  0.00  0.00    +0.000 A 
ATOM     27  C   UNL     1       6.831   5.368  17.615  0.00  0.00    +0.000 A 
ATOM     28  C   UNL     1       5.546   4.810  17.647  0.00  0.00    +0.000 A 
ATOM     29  C   UNL     1       4.949   4.333  16.473  0.00  0.00    +0.000 A 
BRANCH  27  30
ATOM     30  N   UNL     1       7.439   5.846  18.862  0.00  0.00    +0.000 N 
ATOM     31  O   UNL     1       7.124   5.270  19.913  0.00  0.00    +0.000 OA
ATOM     32  O   UNL     1       8.215   6.809  18.790  0.00  0.00    +0.000 OA
ENDBRANCH  27  30
BRANCH  24  34
ATOM     33  C   UNL     1       6.266   3.700  13.070  0.00  0.00    +0.000 C 
ATOM     34  O   UNL     1       5.256   3.917  14.047  0.00  0.00    +0.000 OA
ENDBRANCH  24  34
ENDBRANCH  22  29
ENDBRANCH  19  22
ENDBRANCH   1  19
TORSDOF 8
ENDMDL
MODEL 2
REMARK VINA RESULT:      -8.4      1.582      3.103
REMARK  Name = 
REMARK  9 active torsions:
REMARK  status: ('A' for Active; 'I' for Inactive)
REMARK    1  A    between atoms: C_1  and  O_2
REMARK    2  A    between atoms: O_2  and  C_3
REMARK    3  A    between atoms: C_6  and  N_7
REMARK    4  A    between atoms: C_11  and  N_12
REMARK    5  A    between atoms: N_12  and  S_13
REMARK    6  A    between atoms: S_13  and  C_16
REMARK    7  A    between atoms: C_18  and  C_19
REMARK    8  A    between atoms: N_21  and  C_22
REMARK    9  A    between atoms: C_22  and  C_23
REMARK                            x       y       z     vdW  Elec       q    Type
REMARK                         _______ _______ _______ _____ _____    ______ ____
ROOT
ATOM      1  C   UNL     1       2.343   4.295  18.863  0.00  0.00    +0.000 A 
ATOM      2  C   UNL     1       2.241   5.543  18.231  0.00  0.00    +0.000 A 
ATOM      3  C   UNL     1       2.162   6.708  18.996  0.00  0.00    +0.000 A 
ATOM      4  C   UNL     1       2.202   6.617  20.392  0.00  0.00    +0.000 A 
ATOM      5  C   UNL     1       2.223   5.364  21.016  0.00  0.00    +0.000 A 
ATOM      6  C   UNL     1       2.267   4.192  20.255  0.00  0.00    +0.000 A 
ATOM      7 CL   UNL     1       2.305   2.697  21.118  0.00  0.00    +0.000 Cl
ENDROOT
BRANCH   3   8
ATOM      8  C   UNL     1       2.139   8.049  18.348  0.00  0.00    +0.000 C 
ATOM      9  O   UNL     1       2.743   8.225  17.299  0.00  0.00    +0.000 OA
ATOM     10  N   UNL     1       1.422   9.024  19.002  0.00  0.00    +0.000 N 
ATOM     11  H   UNL     1       1.041   8.853  19.920  0.00  0.00    +0.000 HD
BRANCH  10  12
ATOM     12  C   UNL     1       1.244  10.349  18.452  0.00  0.00    +0.000 C 
BRANCH  12  13
ATOM     13  C   UNL     1      -0.210  10.718  18.424  0.00  0.00    +0.000 A 
ATOM     14  C   UNL     1      -1.150   9.979  17.700  0.00  0.00    +0.000 A 
ATOM     15  C   UNL     1      -2.487  10.371  17.701  0.00  0.00    +0.000 A 
ATOM     16  C   UNL     1      -2.840  11.501  18.421  0.00  0.00    +0.000 A 
ATOM     17  N   UNL     1      -1.960  12.247  19.120  0.00  0.00    +0.000 NA
ATOM     18  C   UNL     1      -0.668  11.843  19.103  0.00  0.00    +0.000 A 
ENDBRANCH  12  13
ENDBRANCH  10  12
ENDBRANCH   3   8
BRANCH   1  19
ATOM     19  S   UNL     1       2.831   2.915  17.861  0.00  0.00    +0.000 S 
ATOM     20  O   UNL     1       2.310   3.130  16.528  0.00  0.00    +0.000 OA
ATOM     21  O   UNL     1       2.517   1.711  18.595  0.00  0.00    +0.000 OA
BRANCH  19  22
ATOM     22  N   UNL     1       4.499   3.061  17.806  0.00  0.00    +0.000 N 
ATOM     23  H   UNL     1       5.014   2.321  18.276  0.00  0.00    +0.000 HD
BRANCH  22  29
ATOM     24  C   UNL     1       5.699   5.157  17.238  0.00  0.00    +0.000 A 
ATOM     25  C   UNL     1       6.385   5.916  16.276  0.00  0.00    +0.000 A 
ATOM     26  C   UNL     1       6.470   5.492  14.947  0.00  0.00    +0.000 A 
ATOM     27  C   UNL     1       5.863   4.291  14.579  0.00  0.00    +0.000 A 
ATOM     28  C   UNL     1       5.200   3.511  15.535  0.00  0.00    +0.000 A 
ATOM     29  C   UNL     1       5.136   3.925  16.872  0.00  0.00    +0.000 A 
BRANCH  27  30
ATOM     30  N   UNL     1       5.901   3.841  13.183  0.00  0.00    +0.000 N 
ATOM     31  O   UNL     1       4.822   3.572  12.636  0.00  0.00    +0.000 OA
ATOM     32  O   UNL     1       7.011   3.739  12.643  0.00  0.00    +0.000 OA
ENDBRANCH  27  30
BRANCH  24  34
ATOM     33  C   UNL     1       6.818   5.459  19.311  0.00  0.00    +0.000 C 
ATOM     34  O   UNL     1       5.695   5.728  18.481  0.00  0.00    +0.000 OA
ENDBRANCH  24  34
ENDBRANCH  22  29
ENDBRANCH  19  22
ENDBRANCH   1  19
TORSDOF 8
ENDMDL
MODEL 3
REMARK VINA RESULT:      -8.4      1.323      1.683
REMARK  Name = 
REMARK  9 active torsions:
REMARK  status: ('A' for Active; 'I' for Inactive)
REMARK    1  A    between atoms: C_1  and  O_2
REMARK    2  A    between atoms: O_2  and  C_3
REMARK    3  A    between atoms: C_6  and  N_7
REMARK    4  A    between atoms: C_11  and  N_12
REMARK    5  A    between atoms: N_12  and  S_13
REMARK    6  A    between atoms: S_13  and  C_16
REMARK    7  A    between atoms: C_18  and  C_19
REMARK    8  A    between atoms: N_21  and  C_22
REMARK    9  A    between atoms: C_22  and  C_23
REMARK                            x       y       z     vdW  Elec       q    Type
REMARK                         _______ _______ _______ _____ _____    ______ ____
ROOT
ATOM      1  C   UNL     1       2.413   4.346  18.533  0.00  0.00    +0.000 A 
ATOM      2  C   UNL     1       2.257   5.616  17.959  0.00  0.00    +0.000 A 
ATOM      3  C   UNL     1       2.298   6.756  18.765  0.00  0.00    +0.000 A 
ATOM      4  C   UNL     1       2.511   6.617  20.140  0.00  0.00    +0.000 A 
ATOM      5  C   UNL     1       2.585   5.344  20.717  0.00  0.00    +0.000 A 
ATOM      6  C   UNL     1       2.510   4.197  19.920  0.00  0.00    +0.000 A 
ATOM      7 CL   UNL     1       2.625   2.674  20.724  0.00  0.00    +0.000 Cl
ENDROOT
BRANCH   3   8
ATOM      8  C   UNL     1       2.221   8.118  18.167  0.00  0.00    +0.000 C 
ATOM      9  O   UNL     1       2.851   8.370  17.149  0.00  0.00    +0.000 OA
ATOM     10  N   UNL     1       1.425   9.024  18.829  0.00  0.00    +0.000 N 
ATOM     11  H   UNL     1       1.022   8.795  19.724  0.00  0.00    +0.000 HD
BRANCH  10  12
ATOM     12  C   UNL     1       1.190  10.358  18.323  0.00  0.00    +0.000 C 
BRANCH  12  13
ATOM     13  C   UNL     1      -0.276  10.676  18.333  0.00  0.00    +0.000 A 
ATOM     14  C   UNL     1      -1.189   9.995  17.523  0.00  0.00    +0.000 A 
ATOM     15  C   UNL     1      -2.539  10.337  17.566  0.00  0.00    +0.000 A 
ATOM     16  C   UNL     1      -2.932  11.361  18.413  0.00  0.00    +0.000 A 
ATOM     17  N   UNL     1      -2.079  12.050  19.198  0.00  0.00    +0.000 NA
ATOM     18  C   UNL     1      -0.773  11.697  19.138  0.00  0.00    +0.000 A 
ENDBRANCH  12  13
ENDBRANCH  10  12
ENDBRANCH   3   8
BRANCH   1  19
ATOM     19  S   UNL     1       2.743   2.993  17.435  0.00  0.00    +0.000 S 
ATOM     20  O   UNL     1       2.471   3.441  16.086  0.00  0.00    +0.000 OA
ATOM     21  O   UNL     1       2.089   1.824  17.975  0.00  0.00    +0.000 OA
BRANCH  19  22
ATOM     22  N   UNL     1       4.397   2.774  17.594  0.00  0.00    +0.000 N 
ATOM     23  H   UNL     1       4.698   1.807  17.683  0.00  0.00    +0.000 HD
BRANCH  22  29
ATOM     24  C   UNL     1       5.533   4.233  15.939  0.00  0.00    +0.000 A 
ATOM     25  C   UNL     1       6.393   5.315  15.695  0.00  0.00    +0.000 A 
ATOM     26  C   UNL     1       7.080   5.941  16.738  0.00  0.00    +0.000 A 
ATOM     27  C   UNL     1       6.901   5.479  18.042  0.00  0.00    +0.000 A 
ATOM     28  C   UNL     1       6.023   4.418  18.302  0.00  0.00    +0.000 A 
ATOM     29  C   UNL     1       5.316   3.807  17.258  0.00  0.00    +0.000 A 
BRANCH  27  30
ATOM     30  N   UNL     1       7.640   6.091  19.152  0.00  0.00    +0.000 N 
ATOM     31  O   UNL     1       8.299   7.112  18.910  0.00  0.00    +0.000 OA
ATOM     32  O   UNL     1       7.574   5.540  20.259  0.00  0.00    +0.000 OA
ENDBRANCH  27  30
BRANCH  24  34
ATOM     33  C   UNL     1       5.722   3.814  13.609  0.00  0.00    +0.000 C 
ATOM     34  O   UNL     1       4.959   3.725  14.805  0.00  0.00    +0.000 OA
ENDBRANCH  24  34
ENDBRANCH  22  29
ENDBRANCH  19  22
ENDBRANCH   1  19
TORSDOF 8
ENDMDL
MODEL 4
REMARK VINA RESULT:      -8.3      1.554      3.068
REMARK  Name = 
REMARK  9 active torsions:
REMARK  status: ('A' for Active; 'I' for Inactive)
REMARK    1  A    between atoms: C_1  and  O_2
REMARK    2  A    between atoms: O_2  and  C_3
REMARK    3  A    between atoms: C_6  and  N_7
REMARK    4  A    between atoms: C_11  and  N_12
REMARK    5  A    between atoms: N_12  and  S_13
REMARK    6  A    between atoms: S_13  and  C_16
REMARK    7  A    between atoms: C_18  and  C_19
REMARK    8  A    between atoms: N_21  and  C_22
REMARK    9  A    between atoms: C_22  and  C_23
REMARK                            x       y       z     vdW  Elec       q    Type
REMARK                         _______ _______ _______ _____ _____    ______ ____
ROOT
ATOM      1  C   UNL     1       2.280   4.340  18.867  0.00  0.00    +0.000 A 
ATOM      2  C   UNL     1       2.212   5.595  18.243  0.00  0.00    +0.000 A 
ATOM      3  C   UNL     1       2.134   6.755  19.017  0.00  0.00    +0.000 A 
ATOM      4  C   UNL     1       2.140   6.651  20.412  0.00  0.00    +0.000 A 
ATOM      5  C   UNL     1       2.126   5.393  21.026  0.00  0.00    +0.000 A 
ATOM      6  C   UNL     1       2.169   4.227  20.256  0.00  0.00    +0.000 A 
ATOM      7 CL   UNL     1       2.162   2.724  21.107  0.00  0.00    +0.000 Cl
ENDROOT
BRANCH   3   8
ATOM      8  C   UNL     1       2.148   8.101  18.379  0.00  0.00    +0.000 C 
ATOM      9  O   UNL     1       2.753   8.269  17.330  0.00  0.00    +0.000 OA
ATOM     10  N   UNL     1       1.461   9.091  19.044  0.00  0.00    +0.000 N 
ATOM     11  H   UNL     1       1.078   8.923  19.962  0.00  0.00    +0.000 HD
BRANCH  10  12
ATOM     12  C   UNL     1       1.319  10.425  18.506  0.00  0.00    +0.000 C 
BRANCH  12  13
ATOM     13  C   UNL     1      -0.114  10.865  18.556  0.00  0.00    +0.000 A 
ATOM     14  C   UNL     1      -0.528  11.960  19.320  0.00  0.00    +0.000 A 
ATOM     15  C   UNL     1      -1.874  12.320  19.338  0.00  0.00    +0.000 A 
ATOM     16  C   UNL     1      -2.768  11.562  18.598  0.00  0.00    +0.000 A 
ATOM     17  N   UNL     1      -2.408  10.491  17.862  0.00  0.00    +0.000 NA
ATOM     18  C   UNL     1      -1.094  10.164  17.860  0.00  0.00    +0.000 A 
ENDBRANCH  12  13
ENDBRANCH  10  12
ENDBRANCH   3   8
BRANCH   1  19
ATOM     19  S   UNL     1       2.768   2.961  17.865  0.00  0.00    +0.000 S 
ATOM     20  O   UNL     1       2.508   3.303  16.482  0.00  0.00    +0.000 OA
ATOM     21  O   UNL     1       2.201   1.771  18.455  0.00  0.00    +0.000 OA
BRANCH  19  22
ATOM     22  N   UNL     1       4.428   2.902  18.089  0.00  0.00    +0.000 N 
ATOM     23  H   UNL     1       4.769   2.082  18.584  0.00  0.00    +0.000 HD
BRANCH  22  29
ATOM     24  C   UNL     1       6.180   4.651  17.924  0.00  0.00    +0.000 A 
ATOM     25  C   UNL     1       7.078   5.368  17.117  0.00  0.00    +0.000 A 
ATOM     26  C   UNL     1       7.080   5.217  15.728  0.00  0.00    +0.000 A 
ATOM     27  C   UNL     1       6.173   4.335  15.141  0.00  0.00    +0.000 A 
ATOM     28  C   UNL     1       5.291   3.592  15.938  0.00  0.00    +0.000 A 
ATOM     29  C   UNL     1       5.307   3.726  17.333  0.00  0.00    +0.000 A 
BRANCH  27  30
ATOM     30  N   UNL     1       6.124   4.186  13.683  0.00  0.00    +0.000 N 
ATOM     31  O   UNL     1       7.127   4.524  13.037  0.00  0.00    +0.000 OA
ATOM     32  O   UNL     1       5.079   3.749  13.184  0.00  0.00    +0.000 OA
ENDBRANCH  27  30
BRANCH  24  34
ATOM     33  C   UNL     1       7.459   5.653  19.657  0.00  0.00    +0.000 C 
ATOM     34  O   UNL     1       6.300   4.935  19.258  0.00  0.00    +0.000 OA
ENDBRANCH  24  34
ENDBRANCH  22  29
ENDBRANCH  19  22
ENDBRANCH   1  19
TORSDOF 8
ENDMDL
MODEL 5
REMARK VINA RESULT:      -8.3      1.174      1.427
REMARK  Name = 
REMARK  9 active torsions:
REMARK  status: ('A' for Active; 'I' for Inactive)
REMARK    1  A    between atoms: C_1  and  O_2
REMARK    2  A    between atoms: O_2  and  C_3
REMARK    3  A    between atoms: C_6  and  N_7
REMARK    4  A    between atoms: C_11  and  N_12
REMARK    5  A    between atoms: N_12  and  S_13
REMARK    6  A    between atoms: S_13  and  C_16
REMARK    7  A    between atoms: C_18  and  C_19
REMARK    8  A    between atoms: N_21  and  C_22
REMARK    9  A    between atoms: C_22  and  C_23
REMARK                            x       y       z     vdW  Elec       q    Type
REMARK                         _______ _______ _______ _____ _____    ______ ____
ROOT
ATOM      1  C   UNL     1       2.761   4.098  19.298  0.00  0.00    +0.000 A 
ATOM      2  C   UNL     1       2.765   5.299  18.573  0.00  0.00    +0.000 A 
ATOM      3  C   UNL     1       2.265   6.466  19.154  0.00  0.00    +0.000 A 
ATOM      4  C   UNL     1       1.778   6.426  20.465  0.00  0.00    +0.000 A 
ATOM      5  C   UNL     1       1.704   5.209  21.153  0.00  0.00    +0.000 A 
ATOM      6  C   UNL     1       2.171   4.031  20.564  0.00  0.00    +0.000 A 
ATOM      7 CL   UNL     1       2.048   2.584  21.498  0.00  0.00    +0.000 Cl
ENDROOT
BRANCH   3   8
ATOM      8  C   UNL     1       2.337   7.769  18.436  0.00  0.00    +0.000 C 
ATOM      9  O   UNL     1       3.012   7.866  17.421  0.00  0.00    +0.000 OA
ATOM     10  N   UNL     1       1.619   8.804  18.990  0.00  0.00    +0.000 N 
ATOM     11  H   UNL     1       1.175   8.698  19.889  0.00  0.00    +0.000 HD
BRANCH  10  12
ATOM     12  C   UNL     1       1.529  10.103  18.360  0.00  0.00    +0.000 C 
BRANCH  12  13
ATOM     13  C   UNL     1       0.129  10.633  18.442  0.00  0.00    +0.000 A 
ATOM     14  C   UNL     1      -0.176  11.826  19.105  0.00  0.00    +0.000 A 
ATOM     15  C   UNL     1      -1.497  12.267  19.159  0.00  0.00    +0.000 A 
ATOM     16  C   UNL     1      -2.475  11.493  18.555  0.00  0.00    +0.000 A 
ATOM     17  N   UNL     1      -2.221  10.330  17.921  0.00  0.00    +0.000 NA
ATOM     18  C   UNL     1      -0.930   9.925  17.882  0.00  0.00    +0.000 A 
ENDBRANCH  12  13
ENDBRANCH  10  12
ENDBRANCH   3   8
BRANCH   1  19
ATOM     19  S   UNL     1       3.751   2.767  18.670  0.00  0.00    +0.000 S 
ATOM     20  O   UNL     1       2.897   1.607  18.530  0.00  0.00    +0.000 OA
ATOM     21  O   UNL     1       4.957   2.709  19.463  0.00  0.00    +0.000 OA
BRANCH  19  22
ATOM     22  N   UNL     1       4.171   3.301  17.138  0.00  0.00    +0.000 N 
ATOM     23  H   UNL     1       3.453   3.186  16.428  0.00  0.00    +0.000 HD
BRANCH  22  29
ATOM     24  C   UNL     1       5.704   4.577  15.661  0.00  0.00    +0.000 A 
ATOM     25  C   UNL     1       6.751   5.505  15.545  0.00  0.00    +0.000 A 
ATOM     26  C   UNL     1       7.413   5.992  16.674  0.00  0.00    +0.000 A 
ATOM     27  C   UNL     1       7.019   5.545  17.936  0.00  0.00    +0.000 A 
ATOM     28  C   UNL     1       5.958   4.641  18.067  0.00  0.00    +0.000 A 
ATOM     29  C   UNL     1       5.278   4.172  16.935  0.00  0.00    +0.000 A 
BRANCH  27  30
ATOM     30  N   UNL     1       7.723   6.008  19.137  0.00  0.00    +0.000 N 
ATOM     31  O   UNL     1       7.531   5.387  20.192  0.00  0.00    +0.000 OA
ATOM     32  O   UNL     1       8.451   7.004  19.028  0.00  0.00    +0.000 OA
ENDBRANCH  27  30
BRANCH  24  34
ATOM     33  C   UNL     1       6.103   3.718  13.483  0.00  0.00    +0.000 C 
ATOM     34  O   UNL     1       5.182   4.190  14.456  0.00  0.00    +0.000 OA
ENDBRANCH  24  34
ENDBRANCH  22  29
ENDBRANCH  19  22
ENDBRANCH   1  19
TORSDOF 8
ENDMDL
MODEL 6
REMARK VINA RESULT:      -8.3      1.329      1.671
REMARK  Name = 
REMARK  9 active torsions:
REMARK  status: ('A' for Active; 'I' for Inactive)
REMARK    1  A    between atoms: C_1  and  O_2
REMARK    2  A    between atoms: O_2  and  C_3
REMARK    3  A    between atoms: C_6  and  N_7
REMARK    4  A    between atoms: C_11  and  N_12
REMARK    5  A    between atoms: N_12  and  S_13
REMARK    6  A    between atoms: S_13  and  C_16
REMARK    7  A    between atoms: C_18  and  C_19
REMARK    8  A    between atoms: N_21  and  C_22
REMARK    9  A    between atoms: C_22  and  C_23
REMARK                            x       y       z     vdW  Elec       q    Type
REMARK                         _______ _______ _______ _____ _____    ______ ____
ROOT
ATOM      1  C   UNL     1       2.758   4.545  18.988  0.00  0.00    +0.000 A 
ATOM      2  C   UNL     1       2.607   5.789  18.359  0.00  0.00    +0.000 A 
ATOM      3  C   UNL     1       2.108   6.879  19.076  0.00  0.00    +0.000 A 
ATOM      4  C   UNL     1       1.779   6.718  20.427  0.00  0.00    +0.000 A 
ATOM      5  C   UNL     1       1.857   5.456  21.026  0.00  0.00    +0.000 A 
ATOM      6  C   UNL     1       2.322   4.353  20.303  0.00  0.00    +0.000 A 
ATOM      7 CL   UNL     1       2.394   2.842  21.136  0.00  0.00    +0.000 Cl
ENDROOT
BRANCH   3   8
ATOM      8  C   UNL     1       2.020   8.229  18.453  0.00  0.00    +0.000 C 
ATOM      9  O   UNL     1       2.531   8.426  17.360  0.00  0.00    +0.000 OA
ATOM     10  N   UNL     1       1.354   9.187  19.182  0.00  0.00    +0.000 N 
ATOM     11  H   UNL     1       1.054   8.999  20.126  0.00  0.00    +0.000 HD
BRANCH  10  12
ATOM     12  C   UNL     1       1.119  10.519  18.670  0.00  0.00    +0.000 C 
BRANCH  12  13
ATOM     13  C   UNL     1      -0.351  10.773  18.514  0.00  0.00    +0.000 A 
ATOM     14  C   UNL     1      -1.152  10.004  17.664  0.00  0.00    +0.000 A 
ATOM     15  C   UNL     1      -2.511  10.289  17.551  0.00  0.00    +0.000 A 
ATOM     16  C   UNL     1      -3.026  11.345  18.286  0.00  0.00    +0.000 A 
ATOM     17  N   UNL     1      -2.282  12.118  19.104  0.00  0.00    +0.000 NA
ATOM     18  C   UNL     1      -0.965  11.819  19.197  0.00  0.00    +0.000 A 
ENDBRANCH  12  13
ENDBRANCH  10  12
ENDBRANCH   3   8
BRANCH   1  19
ATOM     19  S   UNL     1       3.746   3.329  18.158  0.00  0.00    +0.000 S 
ATOM     20  O   UNL     1       2.942   2.135  18.003  0.00  0.00    +0.000 OA
ATOM     21  O   UNL     1       5.027   3.280  18.823  0.00  0.00    +0.000 OA
BRANCH  19  22
ATOM     22  N   UNL     1       3.982   4.006  16.643  0.00  0.00    +0.000 N 
ATOM     23  H   UNL     1       3.132   4.224  16.130  0.00  0.00    +0.000 HD
BRANCH  22  29
ATOM     24  C   UNL     1       5.903   4.219  15.087  0.00  0.00    +0.000 A 
ATOM     25  C   UNL     1       7.094   4.879  14.746  0.00  0.00    +0.000 A 
ATOM     26  C   UNL     1       7.655   5.839  15.591  0.00  0.00    +0.000 A 
ATOM     27  C   UNL     1       7.013   6.144  16.791  0.00  0.00    +0.000 A 
ATOM     28  C   UNL     1       5.809   5.514  17.130  0.00  0.00    +0.000 A 
ATOM     29  C   UNL     1       5.235   4.568  16.270  0.00  0.00    +0.000 A 
BRANCH  27  30
ATOM     30  N   UNL     1       7.600   7.119  17.717  0.00  0.00    +0.000 N 
ATOM     31  O   UNL     1       7.628   8.306  17.360  0.00  0.00    +0.000 OA
ATOM     32  O   UNL     1       8.049   6.695  18.790  0.00  0.00    +0.000 OA
ENDBRANCH  27  30
BRANCH  24  34
ATOM     33  C   UNL     1       5.962   3.492  12.826  0.00  0.00    +0.000 C 
ATOM     34  O   UNL     1       5.506   3.295  14.158  0.00  0.00    +0.000 OA
ENDBRANCH  24  34
ENDBRANCH  22  29
ENDBRANCH  19  22
ENDBRANCH   1  19
TORSDOF 8
ENDMDL
MODEL 7
REMARK VINA RESULT:      -8.3      2.996      4.215
REMARK  Name = 
REMARK  9 active torsions:
REMARK  status: ('A' for Active; 'I' for Inactive)
REMARK    1  A    between atoms: C_1  and  O_2
REMARK    2  A    between atoms: O_2  and  C_3
REMARK    3  A    between atoms: C_6  and  N_7
REMARK    4  A    between atoms: C_11  and  N_12
REMARK    5  A    between atoms: N_12  and  S_13
REMARK    6  A    between atoms: S_13  and  C_16
REMARK    7  A    between atoms: C_18  and  C_19
REMARK    8  A    between atoms: N_21  and  C_22
REMARK    9  A    between atoms: C_22  and  C_23
REMARK                            x       y       z     vdW  Elec       q    Type
REMARK                         _______ _______ _______ _____ _____    ______ ____
ROOT
ATOM      1  C   UNL     1       1.905   7.614  19.866  0.00  0.00    +0.000 A 
ATOM      2  C   UNL     1       1.314   8.130  21.029  0.00  0.00    +0.000 A 
ATOM      3  C   UNL     1       0.799   9.428  21.033  0.00  0.00    +0.000 A 
ATOM      4  C   UNL     1       0.863  10.195  19.864  0.00  0.00    +0.000 A 
ATOM      5  C   UNL     1       1.523   9.703  18.733  0.00  0.00    +0.000 A 
ATOM      6  C   UNL     1       2.073   8.417  18.735  0.00  0.00    +0.000 A 
ATOM      7 CL   UNL     1       2.856   7.897  17.286  0.00  0.00    +0.000 Cl
ENDROOT
BRANCH   3   8
ATOM      8  C   UNL     1       0.092   9.967  22.228  0.00  0.00    +0.000 C 
ATOM      9  O   UNL     1       0.137   9.355  23.286  0.00  0.00    +0.000 OA
ATOM     10  N   UNL     1      -0.587  11.149  22.046  0.00  0.00    +0.000 N 
ATOM     11  H   UNL     1      -0.685  11.549  21.125  0.00  0.00    +0.000 HD
BRANCH  10  12
ATOM     12  C   UNL     1      -1.251  11.832  23.134  0.00  0.00    +0.000 C 
BRANCH  12  13
ATOM     13  C   UNL     1      -2.643  12.227  22.738  0.00  0.00    +0.000 A 
ATOM     14  C   UNL     1      -2.974  12.556  21.421  0.00  0.00    +0.000 A 
ATOM     15  C   UNL     1      -4.281  12.926  21.110  0.00  0.00    +0.000 A 
ATOM     16  C   UNL     1      -5.216  12.965  22.132  0.00  0.00    +0.000 A 
ATOM     17  N   UNL     1      -4.930  12.670  23.417  0.00  0.00    +0.000 NA
ATOM     18  C   UNL     1      -3.653  12.313  23.692  0.00  0.00    +0.000 A 
ENDBRANCH  12  13
ENDBRANCH  10  12
ENDBRANCH   3   8
BRANCH   1  19
ATOM     19  S   UNL     1       2.177   5.862  19.803  0.00  0.00    +0.000 S 
ATOM     20  O   UNL     1       1.656   5.379  18.541  0.00  0.00    +0.000 OA
ATOM     21  O   UNL     1       1.723   5.305  21.055  0.00  0.00    +0.000 OA
BRANCH  19  22
ATOM     22  N   UNL     1       3.848   5.742  19.764  0.00  0.00    +0.000 N 
ATOM     23  H   UNL     1       4.314   5.909  20.652  0.00  0.00    +0.000 HD
BRANCH  22  29
ATOM     24  C   UNL     1       4.241   3.783  18.292  0.00  0.00    +0.000 A 
ATOM     25  C   UNL     1       4.885   3.248  17.165  0.00  0.00    +0.000 A 
ATOM     26  C   UNL     1       5.839   3.985  16.460  0.00  0.00    +0.000 A 
ATOM     27  C   UNL     1       6.150   5.277  16.889  0.00  0.00    +0.000 A 
ATOM     28  C   UNL     1       5.495   5.833  17.994  0.00  0.00    +0.000 A 
ATOM     29  C   UNL     1       4.520   5.101  18.686  0.00  0.00    +0.000 A 
BRANCH  27  30
ATOM     30  N   UNL     1       7.177   6.059  16.192  0.00  0.00    +0.000 N 
ATOM     31  O   UNL     1       7.536   5.669  15.072  0.00  0.00    +0.000 OA
ATOM     32  O   UNL     1       7.637   7.051  16.774  0.00  0.00    +0.000 OA
ENDBRANCH  27  30
BRANCH  24  34
ATOM     33  C   UNL     1       3.460   1.551  18.509  0.00  0.00    +0.000 C 
ATOM     34  O   UNL     1       3.353   2.920  18.874  0.00  0.00    +0.000 OA
ENDBRANCH  24  34
ENDBRANCH  22  29
ENDBRANCH  19  22
ENDBRANCH   1  19
TORSDOF 8
ENDMDL
MODEL 8
REMARK VINA RESULT:      -8.2      1.767      3.421
REMARK  Name = 
REMARK  9 active torsions:
REMARK  status: ('A' for Active; 'I' for Inactive)
REMARK    1  A    between atoms: C_1  and  O_2
REMARK    2  A    between atoms: O_2  and  C_3
REMARK    3  A    between atoms: C_6  and  N_7
REMARK    4  A    between atoms: C_11  and  N_12
REMARK    5  A    between atoms: N_12  and  S_13
REMARK    6  A    between atoms: S_13  and  C_16
REMARK    7  A    between atoms: C_18  and  C_19
REMARK    8  A    between atoms: N_21  and  C_22
REMARK    9  A    between atoms: C_22  and  C_23
REMARK                            x       y       z     vdW  Elec       q    Type
REMARK                         _______ _______ _______ _____ _____    ______ ____
ROOT
ATOM      1  C   UNL     1       3.242   4.830  18.868  0.00  0.00    +0.000 A 
ATOM      2  C   UNL     1       2.833   6.121  18.505  0.00  0.00    +0.000 A 
ATOM      3  C   UNL     1       2.093   6.897  19.401  0.00  0.00    +0.000 A 
ATOM      4  C   UNL     1       1.782   6.379  20.663  0.00  0.00    +0.000 A 
ATOM      5  C   UNL     1       2.124   5.061  20.987  0.00  0.00    +0.000 A 
ATOM      6  C   UNL     1       2.834   4.267  20.081  0.00  0.00    +0.000 A 
ATOM      7 CL   UNL     1       3.220   2.660  20.581  0.00  0.00    +0.000 Cl
ENDROOT
BRANCH   3   8
ATOM      8  C   UNL     1       1.722   8.301  19.071  0.00  0.00    +0.000 C 
ATOM      9  O   UNL     1       1.955   8.744  17.955  0.00  0.00    +0.000 OA
ATOM     10  N   UNL     1       1.131   9.023  20.082  0.00  0.00    +0.000 N 
ATOM     11  H   UNL     1       1.068   8.644  21.014  0.00  0.00    +0.000 HD
BRANCH  10  12
ATOM     12  C   UNL     1       0.644  10.370  19.884  0.00  0.00    +0.000 C 
BRANCH  12  13
ATOM     13  C   UNL     1      -0.185  10.808  21.055  0.00  0.00    +0.000 A 
ATOM     14  C   UNL     1      -0.315  10.027  22.207  0.00  0.00    +0.000 A 
ATOM     15  C   UNL     1      -1.105  10.478  23.262  0.00  0.00    +0.000 A 
ATOM     16  C   UNL     1      -1.751  11.696  23.126  0.00  0.00    +0.000 A 
ATOM     17  N   UNL     1      -1.663  12.470  22.025  0.00  0.00    +0.000 NA
ATOM     18  C   UNL     1      -0.888  12.009  21.016  0.00  0.00    +0.000 A 
ENDBRANCH  12  13
ENDBRANCH  10  12
ENDBRANCH   3   8
BRANCH   1  19
ATOM     19  S   UNL     1       4.488   4.061  17.867  0.00  0.00    +0.000 S 
ATOM     20  O   UNL     1       3.964   2.794  17.402  0.00  0.00    +0.000 OA
ATOM     21  O   UNL     1       5.733   4.127  18.596  0.00  0.00    +0.000 OA
BRANCH  19  22
ATOM     22  N   UNL     1       4.608   5.096  16.554  0.00  0.00    +0.000 N 
ATOM     23  H   UNL     1       4.193   6.014  16.688  0.00  0.00    +0.000 HD
BRANCH  22  29
ATOM     24  C   UNL     1       6.870   5.258  15.546  0.00  0.00    +0.000 A 
ATOM     25  C   UNL     1       7.738   4.903  14.502  0.00  0.00    +0.000 A 
ATOM     26  C   UNL     1       7.278   4.195  13.388  0.00  0.00    +0.000 A 
ATOM     27  C   UNL     1       5.931   3.836  13.322  0.00  0.00    +0.000 A 
ATOM     28  C   UNL     1       5.060   4.160  14.371  0.00  0.00    +0.000 A 
ATOM     29  C   UNL     1       5.528   4.849  15.498  0.00  0.00    +0.000 A 
BRANCH  27  30
ATOM     30  N   UNL     1       5.412   3.128  12.147  0.00  0.00    +0.000 N 
ATOM     31  O   UNL     1       6.145   2.282  11.616  0.00  0.00    +0.000 OA
ATOM     32  O   UNL     1       4.280   3.432  11.747  0.00  0.00    +0.000 OA
ENDBRANCH  27  30
BRANCH  24  34
ATOM     33  C   UNL     1       6.825   7.151  16.979  0.00  0.00    +0.000 C 
ATOM     34  O   UNL     1       7.479   5.966  16.546  0.00  0.00    +0.000 OA
ENDBRANCH  24  34
ENDBRANCH  22  29
ENDBRANCH  19  22
ENDBRANCH   1  19
TORSDOF 8
ENDMDL
MODEL 9
REMARK VINA RESULT:      -8.2      2.174      3.625
REMARK  Name = 
REMARK  9 active torsions:
REMARK  status: ('A' for Active; 'I' for Inactive)
REMARK    1  A    between atoms: C_1  and  O_2
REMARK    2  A    between atoms: O_2  and  C_3
REMARK    3  A    between atoms: C_6  and  N_7
REMARK    4  A    between atoms: C_11  and  N_12
REMARK    5  A    between atoms: N_12  and  S_13
REMARK    6  A    between atoms: S_13  and  C_16
REMARK    7  A    between atoms: C_18  and  C_19
REMARK    8  A    between atoms: N_21  and  C_22
REMARK    9  A    between atoms: C_22  and  C_23
REMARK                            x       y       z     vdW  Elec       q    Type
REMARK                         _______ _______ _______ _____ _____    ______ ____
ROOT
ATOM      1  C   UNL     1       2.813   5.551  18.898  0.00  0.00    +0.000 A 
ATOM      2  C   UNL     1       2.466   6.794  18.348  0.00  0.00    +0.000 A 
ATOM      3  C   UNL     1       1.796   7.740  19.128  0.00  0.00    +0.000 A 
ATOM      4  C   UNL     1       1.493   7.440  20.460  0.00  0.00    +0.000 A 
ATOM      5  C   UNL     1       1.770   6.169  20.978  0.00  0.00    +0.000 A 
ATOM      6  C   UNL     1       2.409   5.206  20.191  0.00  0.00    +0.000 A 
ATOM      7 CL   UNL     1       2.720   3.674  20.926  0.00  0.00    +0.000 Cl
ENDROOT
BRANCH   3   8
ATOM      8  C   UNL     1       1.494   9.096  18.592  0.00  0.00    +0.000 C 
ATOM      9  O   UNL     1       2.168   9.552  17.679  0.00  0.00    +0.000 OA
ATOM     10  N   UNL     1       0.447   9.761  19.188  0.00  0.00    +0.000 N 
ATOM     11  H   UNL     1       0.001   9.385  20.011  0.00  0.00    +0.000 HD
BRANCH  10  12
ATOM     12  C   UNL     1      -0.013  11.050  18.721  0.00  0.00    +0.000 C 
BRANCH  12  13
ATOM     13  C   UNL     1      -1.432  10.962  18.242  0.00  0.00    +0.000 A 
ATOM     14  C   UNL     1      -1.808  10.123  17.189  0.00  0.00    +0.000 A 
ATOM     15  C   UNL     1      -3.139  10.087  16.777  0.00  0.00    +0.000 A 
ATOM     16  C   UNL     1      -4.052  10.902  17.427  0.00  0.00    +0.000 A 
ATOM     17  N   UNL     1      -3.723  11.735  18.436  0.00  0.00    +0.000 NA
ATOM     18  C   UNL     1      -2.424  11.750  18.817  0.00  0.00    +0.000 A 
ENDBRANCH  12  13
ENDBRANCH  10  12
ENDBRANCH   3   8
BRANCH   1  19
ATOM     19  S   UNL     1       3.987   4.567  18.005  0.00  0.00    +0.000 S 
ATOM     20  O   UNL     1       3.282   3.428  17.456  0.00  0.00    +0.000 OA
ATOM     21  O   UNL     1       5.141   4.387  18.854  0.00  0.00    +0.000 OA
BRANCH  19  22
ATOM     22  N   UNL     1       4.433   5.571  16.739  0.00  0.00    +0.000 N 
ATOM     23  H   UNL     1       4.124   6.535  16.822  0.00  0.00    +0.000 HD
BRANCH  22  29
ATOM     24  C   UNL     1       6.822   5.449  16.075  0.00  0.00    +0.000 A 
ATOM     25  C   UNL     1       7.785   4.979  15.168  0.00  0.00    +0.000 A 
ATOM     26  C   UNL     1       7.412   4.315  13.997  0.00  0.00    +0.000 A 
ATOM     27  C   UNL     1       6.056   4.117  13.732  0.00  0.00    +0.000 A 
ATOM     28  C   UNL     1       5.086   4.557  14.642  0.00  0.00    +0.000 A 
ATOM     29  C   UNL     1       5.463   5.201  15.829  0.00  0.00    +0.000 A 
BRANCH  27  30
ATOM     30  N   UNL     1       5.634   3.459  12.491  0.00  0.00    +0.000 N 
ATOM     31  O   UNL     1       6.496   2.850  11.841  0.00  0.00    +0.000 OA
ATOM     32  O   UNL     1       4.446   3.567  12.160  0.00  0.00    +0.000 OA
ENDBRANCH  27  30
BRANCH  24  34
ATOM     33  C   UNL     1       7.295   7.514  17.149  0.00  0.00    +0.000 C 
ATOM     34  O   UNL     1       7.358   6.094  17.156  0.00  0.00    +0.000 OA
ENDBRANCH  24  34
ENDBRANCH  22  29
ENDBRANCH  19  22
ENDBRANCH   1  19
TORSDOF 8
ENDMDL
