MODEL 1
REMARK VINA RESULT:      -8.0      0.000      0.000
REMARK  Name = 
REMARK  6 active torsions:
REMARK  status: ('A' for Active; 'I' for Inactive)
REMARK    1  A    between atoms: C_1  and  C_2
REMARK    2  A    between atoms: C_2  and  C_3
REMARK    3  A    between atoms: C_2  and  N_12
REMARK    4  A    between atoms: N_12  and  C_13
REMARK    5  A    between atoms: C_14  and  C_16
REMARK    6  A    between atoms: C_20  and  N_21
REMARK                            x       y       z     vdW  Elec       q    Type
REMARK                         _______ _______ _______ _____ _____    ______ ____
ROOT
ATOM      1  N   UNL     1       1.707   8.794  18.887  0.00  0.00    +0.000 N 
ATOM      2  C   UNL     1       2.113   8.967  17.491  0.00  0.00    +0.000 C 
ATOM      3  C   UNL     1       1.873   7.609  19.621  0.00  0.00    +0.000 C 
ATOM      4  O   UNL     1       1.439   7.480  20.767  0.00  0.00    +0.000 OA
ENDROOT
BRANCH   3   5
ATOM      5  C   UNL     1       2.557   6.417  19.031  0.00  0.00    +0.000 A 
ATOM      6  C   UNL     1       1.784   5.491  18.317  0.00  0.00    +0.000 A 
ATOM      7  C   UNL     1       2.385   4.386  17.704  0.00  0.00    +0.000 A 
ATOM      8  C   UNL     1       3.769   4.207  17.770  0.00  0.00    +0.000 A 
ATOM      9  C   UNL     1       4.544   5.103  18.515  0.00  0.00    +0.000 A 
ATOM     10  C   UNL     1       3.922   6.163  19.195  0.00  0.00    +0.000 A 
BRANCH   9  11
ATOM     11  N   UNL     1       5.953   4.985  18.579  0.00  0.00    +0.000 N 
ATOM     12  C   UNL     1       6.847   4.590  17.616  0.00  0.00    +0.000 A 
ATOM     13  N   UNL     1       8.067   4.659  18.101  0.00  0.00    +0.000 NA
ATOM     14  N   UNL     1       7.932   5.119  19.383  0.00  0.00    +0.000 NA
ATOM     15  N   UNL     1       6.658   5.333  19.681  0.00  0.00    +0.000 NA
ENDBRANCH   9  11
ENDBRANCH   3   5
BRANCH   1  17
ATOM     16  C   UNL     1       1.927  11.183  19.588  0.00  0.00    +0.000 C 
ATOM     17  C   UNL     1       1.038   9.936  19.560  0.00  0.00    +0.000 C 
BRANCH  17  18
ATOM     18  C   UNL     1      -0.292  10.246  18.891  0.00  0.00    +0.000 A 
ATOM     19  N   UNL     1      -0.641   9.798  17.701  0.00  0.00    +0.000 NA
ATOM     20  C   UNL     1      -1.895  10.258  17.359  0.00  0.00    +0.000 A 
ATOM     21  C   UNL     1      -2.584   9.948  16.168  0.00  0.00    +0.000 A 
ATOM     22  C   UNL     1      -3.842  10.501  15.934  0.00  0.00    +0.000 A 
ATOM     23  C   UNL     1      -4.419  11.355  16.868  0.00  0.00    +0.000 A 
ATOM     24  C   UNL     1      -3.759  11.669  18.062  0.00  0.00    +0.000 A 
ATOM     25  C   UNL     1      -2.493  11.103  18.291  0.00  0.00    +0.000 A 
ATOM     26  S   UNL     1      -1.443  11.276  19.646  0.00  0.00    +0.000 S 
ENDBRANCH  17  18
ENDBRANCH   1  17
TORSDOF 4
ENDMDL
MODEL 2
REMARK VINA RESULT:      -7.8      1.063      1.274
REMARK  Name = 
REMARK  6 active torsions:
REMARK  status: ('A' for Active; 'I' for Inactive)
REMARK    1  A    between atoms: C_1  and  C_2
REMARK    2  A    between atoms: C_2  and  C_3
REMARK    3  A    between atoms: C_2  and  N_12
REMARK    4  A    between atoms: N_12  and  C_13
REMARK    5  A    between atoms: C_14  and  C_16
REMARK    6  A    between atoms: C_20  and  N_21
REMARK                            x       y       z     vdW  Elec       q    Type
REMARK                         _______ _______ _______ _____ _____    ______ ____
ROOT
ATOM      1  N   UNL     1       1.647   8.913  19.281  0.00  0.00    +0.000 N 
ATOM      2  C   UNL     1       1.402   8.139  20.501  0.00  0.00    +0.000 C 
ATOM      3  C   UNL     1       2.281   8.408  18.135  0.00  0.00    +0.000 C 
ATOM      4  O   UNL     1       2.544   9.118  17.163  0.00  0.00    +0.000 OA
ENDROOT
BRANCH   3   5
ATOM      5  C   UNL     1       2.708   6.977  18.047  0.00  0.00    +0.000 A 
ATOM      6  C   UNL     1       1.716   5.989  17.970  0.00  0.00    +0.000 A 
ATOM      7  C   UNL     1       2.064   4.641  17.836  0.00  0.00    +0.000 A 
ATOM      8  C   UNL     1       3.407   4.263  17.745  0.00  0.00    +0.000 A 
ATOM      9  C   UNL     1       4.404   5.237  17.863  0.00  0.00    +0.000 A 
ATOM     10  C   UNL     1       4.047   6.578  18.079  0.00  0.00    +0.000 A 
BRANCH   9  11
ATOM     11  N   UNL     1       5.776   4.909  17.738  0.00  0.00    +0.000 N 
ATOM     12  C   UNL     1       6.532   4.703  16.612  0.00  0.00    +0.000 A 
ATOM     13  N   UNL     1       7.773   4.448  16.963  0.00  0.00    +0.000 NA
ATOM     14  N   UNL     1       7.794   4.511  18.330  0.00  0.00    +0.000 NA
ATOM     15  N   UNL     1       6.594   4.801  18.812  0.00  0.00    +0.000 NA
ENDBRANCH   9  11
ENDBRANCH   3   5
BRANCH   1  17
ATOM     16  C   UNL     1       2.207  11.209  18.469  0.00  0.00    +0.000 C 
ATOM     17  C   UNL     1       1.235  10.339  19.271  0.00  0.00    +0.000 C 
BRANCH  17  18
ATOM     18  C   UNL     1      -0.179  10.483  18.729  0.00  0.00    +0.000 A 
ATOM     19  N   UNL     1      -0.588   9.963  17.589  0.00  0.00    +0.000 NA
ATOM     20  C   UNL     1      -1.911  10.274  17.361  0.00  0.00    +0.000 A 
ATOM     21  C   UNL     1      -2.673   9.855  16.250  0.00  0.00    +0.000 A 
ATOM     22  C   UNL     1      -4.000  10.262  16.129  0.00  0.00    +0.000 A 
ATOM     23  C   UNL     1      -4.576  11.077  17.097  0.00  0.00    +0.000 A 
ATOM     24  C   UNL     1      -3.844  11.498  18.213  0.00  0.00    +0.000 A 
ATOM     25  C   UNL     1      -2.508  11.079  18.330  0.00  0.00    +0.000 A 
ATOM     26  S   UNL     1      -1.360  11.407  19.571  0.00  0.00    +0.000 S 
ENDBRANCH  17  18
ENDBRANCH   1  17
TORSDOF 4
ENDMDL
MODEL 3
REMARK VINA RESULT:      -7.7      2.412      4.312
REMARK  Name = 
REMARK  6 active torsions:
REMARK  status: ('A' for Active; 'I' for Inactive)
REMARK    1  A    between atoms: C_1  and  C_2
REMARK    2  A    between atoms: C_2  and  C_3
REMARK    3  A    between atoms: C_2  and  N_12
REMARK    4  A    between atoms: N_12  and  C_13
REMARK    5  A    between atoms: C_14  and  C_16
REMARK    6  A    between atoms: C_20  and  N_21
REMARK                            x       y       z     vdW  Elec       q    Type
REMARK                         _______ _______ _______ _____ _____    ______ ____
ROOT
ATOM      1  N   UNL     1       1.329   9.083  19.213  0.00  0.00    +0.000 N 
ATOM      2  C   UNL     1       1.317   8.657  20.614  0.00  0.00    +0.000 C 
ATOM      3  C   UNL     1       2.093   8.475  18.205  0.00  0.00    +0.000 C 
ATOM      4  O   UNL     1       2.139   8.920  17.057  0.00  0.00    +0.000 OA
ENDROOT
BRANCH   3   5
ATOM      5  C   UNL     1       2.929   7.266  18.483  0.00  0.00    +0.000 A 
ATOM      6  C   UNL     1       2.494   6.368  19.468  0.00  0.00    +0.000 A 
ATOM      7  C   UNL     1       3.213   5.197  19.731  0.00  0.00    +0.000 A 
ATOM      8  C   UNL     1       4.358   4.891  18.991  0.00  0.00    +0.000 A 
ATOM      9  C   UNL     1       4.823   5.799  18.035  0.00  0.00    +0.000 A 
ATOM     10  C   UNL     1       4.141   7.012  17.835  0.00  0.00    +0.000 A 
BRANCH   9  11
ATOM     11  N   UNL     1       5.956   5.516  17.234  0.00  0.00    +0.000 N 
ATOM     12  C   UNL     1       6.940   4.575  17.405  0.00  0.00    +0.000 A 
ATOM     13  N   UNL     1       7.785   4.643  16.401  0.00  0.00    +0.000 NA
ATOM     14  N   UNL     1       7.312   5.633  15.583  0.00  0.00    +0.000 NA
ATOM     15  N   UNL     1       6.198   6.161  16.069  0.00  0.00    +0.000 NA
ENDBRANCH   9  11
ENDBRANCH   3   5
BRANCH   1  17
ATOM     16  C   UNL     1      -0.862  10.246  19.522  0.00  0.00    +0.000 C 
ATOM     17  C   UNL     1       0.511  10.265  18.842  0.00  0.00    +0.000 C 
BRANCH  17  18
ATOM     18  C   UNL     1       1.249  11.553  19.174  0.00  0.00    +0.000 A 
ATOM     19  N   UNL     1       2.122  12.130  18.371  0.00  0.00    +0.000 NA
ATOM     20  C   UNL     1       2.632  13.272  18.950  0.00  0.00    +0.000 A 
ATOM     21  C   UNL     1       3.566  14.146  18.356  0.00  0.00    +0.000 A 
ATOM     22  C   UNL     1       4.019  15.258  19.063  0.00  0.00    +0.000 A 
ATOM     23  C   UNL     1       3.554  15.510  20.349  0.00  0.00    +0.000 A 
ATOM     24  C   UNL     1       2.619  14.663  20.956  0.00  0.00    +0.000 A 
ATOM     25  C   UNL     1       2.165  13.547  20.234  0.00  0.00    +0.000 A 
ATOM     26  S   UNL     1       1.023  12.339  20.686  0.00  0.00    +0.000 S 
ENDBRANCH  17  18
ENDBRANCH   1  17
TORSDOF 4
ENDMDL
MODEL 4
REMARK VINA RESULT:      -7.6      2.139      2.829
REMARK  Name = 
REMARK  6 active torsions:
REMARK  status: ('A' for Active; 'I' for Inactive)
REMARK    1  A    between atoms: C_1  and  C_2
REMARK    2  A    between atoms: C_2  and  C_3
REMARK    3  A    between atoms: C_2  and  N_12
REMARK    4  A    between atoms: N_12  and  C_13
REMARK    5  A    between atoms: C_14  and  C_16
REMARK    6  A    between atoms: C_20  and  N_21
REMARK                            x       y       z     vdW  Elec       q    Type
REMARK                         _______ _______ _______ _____ _____    ______ ____
ROOT
ATOM      1  N   UNL     1       1.673   7.920  19.870  0.00  0.00    +0.000 N 
ATOM      2  C   UNL     1       2.249   8.584  18.699  0.00  0.00    +0.000 C 
ATOM      3  C   UNL     1       1.795   6.549  20.146  0.00  0.00    +0.000 C 
ATOM      4  O   UNL     1       1.222   6.017  21.097  0.00  0.00    +0.000 OA
ENDROOT
BRANCH   3   5
ATOM      5  C   UNL     1       2.604   5.647  19.268  0.00  0.00    +0.000 A 
ATOM      6  C   UNL     1       1.936   4.888  18.297  0.00  0.00    +0.000 A 
ATOM      7  C   UNL     1       2.653   4.068  17.419  0.00  0.00    +0.000 A 
ATOM      8  C   UNL     1       4.048   4.018  17.478  0.00  0.00    +0.000 A 
ATOM      9  C   UNL     1       4.720   4.739  18.471  0.00  0.00    +0.000 A 
ATOM     10  C   UNL     1       3.987   5.496  19.400  0.00  0.00    +0.000 A 
BRANCH   9  11
ATOM     11  N   UNL     1       6.134   4.751  18.546  0.00  0.00    +0.000 N 
ATOM     12  C   UNL     1       7.068   4.435  17.592  0.00  0.00    +0.000 A 
ATOM     13  N   UNL     1       8.272   4.616  18.087  0.00  0.00    +0.000 NA
ATOM     14  N   UNL     1       8.086   5.067  19.366  0.00  0.00    +0.000 NA
ATOM     15  N   UNL     1       6.796   5.164  19.653  0.00  0.00    +0.000 NA
ENDBRANCH   9  11
ENDBRANCH   3   5
BRANCH   1  17
ATOM     16  C   UNL     1       1.518   8.827  22.194  0.00  0.00    +0.000 C 
ATOM     17  C   UNL     1       0.871   8.745  20.808  0.00  0.00    +0.000 C 
BRANCH  17  18
ATOM     18  C   UNL     1       0.651  10.139  20.242  0.00  0.00    +0.000 A 
ATOM     19  N   UNL     1       1.295  11.213  20.656  0.00  0.00    +0.000 NA
ATOM     20  C   UNL     1       0.873  12.328  19.964  0.00  0.00    +0.000 A 
ATOM     21  C   UNL     1       1.372  13.636  20.134  0.00  0.00    +0.000 A 
ATOM     22  C   UNL     1       0.839  14.682  19.384  0.00  0.00    +0.000 A 
ATOM     23  C   UNL     1      -0.181  14.443  18.470  0.00  0.00    +0.000 A 
ATOM     24  C   UNL     1      -0.686  13.152  18.275  0.00  0.00    +0.000 A 
ATOM     25  C   UNL     1      -0.139  12.103  19.032  0.00  0.00    +0.000 A 
ATOM     26  S   UNL     1      -0.524  10.423  19.019  0.00  0.00    +0.000 S 
ENDBRANCH  17  18
ENDBRANCH   1  17
TORSDOF 4
ENDMDL
MODEL 5
REMARK VINA RESULT:      -7.6      1.125      1.155
REMARK  Name = 
REMARK  6 active torsions:
REMARK  status: ('A' for Active; 'I' for Inactive)
REMARK    1  A    between atoms: C_1  and  C_2
REMARK    2  A    between atoms: C_2  and  C_3
REMARK    3  A    between atoms: C_2  and  N_12
REMARK    4  A    between atoms: N_12  and  C_13
REMARK    5  A    between atoms: C_14  and  C_16
REMARK    6  A    between atoms: C_20  and  N_21
REMARK                            x       y       z     vdW  Elec       q    Type
REMARK                         _______ _______ _______ _____ _____    ______ ____
ROOT
ATOM      1  N   UNL     1       1.653   8.937  18.886  0.00  0.00    +0.000 N 
ATOM      2  C   UNL     1       2.073   9.213  17.510  0.00  0.00    +0.000 C 
ATOM      3  C   UNL     1       1.854   7.715  19.547  0.00  0.00    +0.000 C 
ATOM      4  O   UNL     1       1.407   7.498  20.674  0.00  0.00    +0.000 OA
ENDROOT
BRANCH   3   5
ATOM      5  C   UNL     1       2.594   6.590  18.897  0.00  0.00    +0.000 A 
ATOM      6  C   UNL     1       1.961   5.342  18.803  0.00  0.00    +0.000 A 
ATOM      7  C   UNL     1       2.591   4.271  18.160  0.00  0.00    +0.000 A 
ATOM      8  C   UNL     1       3.849   4.440  17.574  0.00  0.00    +0.000 A 
ATOM      9  C   UNL     1       4.506   5.669  17.698  0.00  0.00    +0.000 A 
ATOM     10  C   UNL     1       3.901   6.714  18.417  0.00  0.00    +0.000 A 
BRANCH   9  11
ATOM     11  N   UNL     1       5.763   5.900  17.089  0.00  0.00    +0.000 N 
ATOM     12  C   UNL     1       6.437   5.156  16.154  0.00  0.00    +0.000 A 
ATOM     13  N   UNL     1       7.562   5.761  15.846  0.00  0.00    +0.000 NA
ATOM     14  N   UNL     1       7.583   6.909  16.590  0.00  0.00    +0.000 NA
ATOM     15  N   UNL     1       6.494   7.012  17.338  0.00  0.00    +0.000 NA
ENDBRANCH   9  11
ENDBRANCH   3   5
BRANCH   1  17
ATOM     16  C   UNL     1       1.773  11.278  19.752  0.00  0.00    +0.000 C 
ATOM     17  C   UNL     1       0.929  10.007  19.616  0.00  0.00    +0.000 C 
BRANCH  17  18
ATOM     18  C   UNL     1      -0.395  10.319  18.934  0.00  0.00    +0.000 A 
ATOM     19  N   UNL     1      -0.716   9.907  17.724  0.00  0.00    +0.000 NA
ATOM     20  C   UNL     1      -1.971  10.357  17.375  0.00  0.00    +0.000 A 
ATOM     21  C   UNL     1      -2.634  10.078  16.162  0.00  0.00    +0.000 A 
ATOM     22  C   UNL     1      -3.897  10.618  15.925  0.00  0.00    +0.000 A 
ATOM     23  C   UNL     1      -4.505  11.428  16.878  0.00  0.00    +0.000 A 
ATOM     24  C   UNL     1      -3.871  11.712  18.093  0.00  0.00    +0.000 A 
ATOM     25  C   UNL     1      -2.600  11.159  18.325  0.00  0.00    +0.000 A 
ATOM     26  S   UNL     1      -1.577  11.302  19.704  0.00  0.00    +0.000 S 
ENDBRANCH  17  18
ENDBRANCH   1  17
TORSDOF 4
ENDMDL
MODEL 6
REMARK VINA RESULT:      -7.5      2.984      4.859
REMARK  Name = 
REMARK  6 active torsions:
REMARK  status: ('A' for Active; 'I' for Inactive)
REMARK    1  A    between atoms: C_1  and  C_2
REMARK    2  A    between atoms: C_2  and  C_3
REMARK    3  A    between atoms: C_2  and  N_12
REMARK    4  A    between atoms: N_12  and  C_13
REMARK    5  A    between atoms: C_14  and  C_16
REMARK    6  A    between atoms: C_20  and  N_21
REMARK                            x       y       z     vdW  Elec       q    Type
REMARK                         _______ _______ _______ _____ _____    ______ ____
ROOT
ATOM      1  N   UNL     1       1.286   9.122  19.268  0.00  0.00    +0.000 N 
ATOM      2  C   UNL     1       1.378   8.618  20.639  0.00  0.00    +0.000 C 
ATOM      3  C   UNL     1       1.967   8.570  18.171  0.00  0.00    +0.000 C 
ATOM      4  O   UNL     1       1.928   9.078  17.050  0.00  0.00    +0.000 OA
ENDROOT
BRANCH   3   5
ATOM      5  C   UNL     1       2.813   7.345  18.316  0.00  0.00    +0.000 A 
ATOM      6  C   UNL     1       4.006   7.269  17.582  0.00  0.00    +0.000 A 
ATOM      7  C   UNL     1       4.857   6.167  17.721  0.00  0.00    +0.000 A 
ATOM      8  C   UNL     1       4.545   5.142  18.618  0.00  0.00    +0.000 A 
ATOM      9  C   UNL     1       3.338   5.189  19.324  0.00  0.00    +0.000 A 
ATOM     10  C   UNL     1       2.451   6.258  19.117  0.00  0.00    +0.000 A 
BRANCH   9  11
ATOM     11  N   UNL     1       2.997   4.194  20.271  0.00  0.00    +0.000 N 
ATOM     12  C   UNL     1       3.403   2.886  20.359  0.00  0.00    +0.000 A 
ATOM     13  N   UNL     1       2.860   2.332  21.419  0.00  0.00    +0.000 NA
ATOM     14  N   UNL     1       2.114   3.315  22.011  0.00  0.00    +0.000 NA
ATOM     15  N   UNL     1       2.198   4.451  21.334  0.00  0.00    +0.000 NA
ENDBRANCH   9  11
ENDBRANCH   3   5
BRANCH   1  17
ATOM     16  C   UNL     1      -0.837  10.301  19.860  0.00  0.00    +0.000 C 
ATOM     17  C   UNL     1       0.449  10.324  19.027  0.00  0.00    +0.000 C 
BRANCH  17  18
ATOM     18  C   UNL     1       1.240  11.592  19.306  0.00  0.00    +0.000 A 
ATOM     19  N   UNL     1       2.073  12.146  18.447  0.00  0.00    +0.000 NA
ATOM     20  C   UNL     1       2.649  13.275  18.988  0.00  0.00    +0.000 A 
ATOM     21  C   UNL     1       3.565  14.123  18.332  0.00  0.00    +0.000 A 
ATOM     22  C   UNL     1       4.092  15.223  19.005  0.00  0.00    +0.000 A 
ATOM     23  C   UNL     1       3.720  15.488  20.319  0.00  0.00    +0.000 A 
ATOM     24  C   UNL     1       2.805  14.667  20.988  0.00  0.00    +0.000 A 
ATOM     25  C   UNL     1       2.275  13.562  20.300  0.00  0.00    +0.000 A 
ATOM     26  S   UNL     1       1.135  12.384  20.828  0.00  0.00    +0.000 S 
ENDBRANCH  17  18
ENDBRANCH   1  17
TORSDOF 4
ENDMDL
MODEL 7
REMARK VINA RESULT:      -7.5      2.595      4.461
REMARK  Name = 
REMARK  6 active torsions:
REMARK  status: ('A' for Active; 'I' for Inactive)
REMARK    1  A    between atoms: C_1  and  C_2
REMARK    2  A    between atoms: C_2  and  C_3
REMARK    3  A    between atoms: C_2  and  N_12
REMARK    4  A    between atoms: N_12  and  C_13
REMARK    5  A    between atoms: C_14  and  C_16
REMARK    6  A    between atoms: C_20  and  N_21
REMARK                            x       y       z     vdW  Elec       q    Type
REMARK                         _______ _______ _______ _____ _____    ______ ____
ROOT
ATOM      1  N   UNL     1       1.258   9.236  19.275  0.00  0.00    +0.000 N 
ATOM      2  C   UNL     1       1.287   8.801  20.673  0.00  0.00    +0.000 C 
ATOM      3  C   UNL     1       1.982   8.626  18.238  0.00  0.00    +0.000 C 
ATOM      4  O   UNL     1       1.996   9.078  17.093  0.00  0.00    +0.000 OA
ENDROOT
BRANCH   3   5
ATOM      5  C   UNL     1       2.812   7.405  18.481  0.00  0.00    +0.000 A 
ATOM      6  C   UNL     1       2.376   6.485  19.445  0.00  0.00    +0.000 A 
ATOM      7  C   UNL     1       3.090   5.303  19.674  0.00  0.00    +0.000 A 
ATOM      8  C   UNL     1       4.231   5.011  18.923  0.00  0.00    +0.000 A 
ATOM      9  C   UNL     1       4.697   5.942  17.988  0.00  0.00    +0.000 A 
ATOM     10  C   UNL     1       4.021   7.162  17.823  0.00  0.00    +0.000 A 
BRANCH   9  11
ATOM     11  N   UNL     1       5.826   5.673  17.176  0.00  0.00    +0.000 N 
ATOM     12  C   UNL     1       6.406   4.475  16.846  0.00  0.00    +0.000 A 
ATOM     13  N   UNL     1       7.421   4.691  16.040  0.00  0.00    +0.000 NA
ATOM     14  N   UNL     1       7.465   6.046  15.852  0.00  0.00    +0.000 NA
ATOM     15  N   UNL     1       6.497   6.651  16.524  0.00  0.00    +0.000 NA
ENDBRANCH   9  11
ENDBRANCH   3   5
BRANCH   1  17
ATOM     16  C   UNL     1      -0.944  10.375  19.589  0.00  0.00    +0.000 C 
ATOM     17  C   UNL     1       0.442  10.429  18.937  0.00  0.00    +0.000 C 
BRANCH  17  18
ATOM     18  C   UNL     1       1.167  11.705  19.338  0.00  0.00    +0.000 A 
ATOM     19  N   UNL     1       0.932  12.367  20.453  0.00  0.00    +0.000 NA
ATOM     20  C   UNL     1       1.734  13.486  20.530  0.00  0.00    +0.000 A 
ATOM     21  C   UNL     1       1.762  14.403  21.601  0.00  0.00    +0.000 A 
ATOM     22  C   UNL     1       2.607  15.510  21.542  0.00  0.00    +0.000 A 
ATOM     23  C   UNL     1       3.420  15.714  20.434  0.00  0.00    +0.000 A 
ATOM     24  C   UNL     1       3.418  14.813  19.362  0.00  0.00    +0.000 A 
ATOM     25  C   UNL     1       2.567  13.697  19.433  0.00  0.00    +0.000 A 
ATOM     26  S   UNL     1       2.343  12.415  18.304  0.00  0.00    +0.000 S 
ENDBRANCH  17  18
ENDBRANCH   1  17
TORSDOF 4
ENDMDL
MODEL 8
REMARK VINA RESULT:      -7.4      2.424      8.762
REMARK  Name = 
REMARK  6 active torsions:
REMARK  status: ('A' for Active; 'I' for Inactive)
REMARK    1  A    between atoms: C_1  and  C_2
REMARK    2  A    between atoms: C_2  and  C_3
REMARK    3  A    between atoms: C_2  and  N_12
REMARK    4  A    between atoms: N_12  and  C_13
REMARK    5  A    between atoms: C_14  and  C_16
REMARK    6  A    between atoms: C_20  and  N_21
REMARK                            x       y       z     vdW  Elec       q    Type
REMARK                         _______ _______ _______ _____ _____    ______ ____
ROOT
ATOM      1  N   UNL     1       1.875   8.161  19.131  0.00  0.00    +0.000 N 
ATOM      2  C   UNL     1       2.026   8.357  17.688  0.00  0.00    +0.000 C 
ATOM      3  C   UNL     1       1.197   9.043  19.986  0.00  0.00    +0.000 C 
ATOM      4  O   UNL     1       1.169   8.883  21.207  0.00  0.00    +0.000 OA
ENDROOT
BRANCH   3   5
ATOM      5  C   UNL     1       0.498  10.256  19.458  0.00  0.00    +0.000 A 
ATOM      6  C   UNL     1       1.109  11.506  19.633  0.00  0.00    +0.000 A 
ATOM      7  C   UNL     1       0.520  12.664  19.114  0.00  0.00    +0.000 A 
ATOM      8  C   UNL     1      -0.670  12.586  18.386  0.00  0.00    +0.000 A 
ATOM      9  C   UNL     1      -1.309  11.350  18.242  0.00  0.00    +0.000 A 
ATOM     10  C   UNL     1      -0.753  10.204  18.837  0.00  0.00    +0.000 A 
BRANCH   9  11
ATOM     11  N   UNL     1      -2.496  11.215  17.482  0.00  0.00    +0.000 N 
ATOM     12  C   UNL     1      -3.797  11.473  17.830  0.00  0.00    +0.000 A 
ATOM     13  N   UNL     1      -4.578  11.235  16.800  0.00  0.00    +0.000 NA
ATOM     14  N   UNL     1      -3.747  10.835  15.788  0.00  0.00    +0.000 NA
ATOM     15  N   UNL     1      -2.483  10.830  16.184  0.00  0.00    +0.000 NA
ENDBRANCH   9  11
ENDBRANCH   3   5
BRANCH   1  17
ATOM     16  C   UNL     1       1.489   5.987  20.303  0.00  0.00    +0.000 C 
ATOM     17  C   UNL     1       2.520   6.969  19.738  0.00  0.00    +0.000 C 
BRANCH  17  18
ATOM     18  C   UNL     1       3.418   6.273  18.727  0.00  0.00    +0.000 A 
ATOM     19  N   UNL     1       4.617   6.702  18.388  0.00  0.00    +0.000 NA
ATOM     20  C   UNL     1       5.180   5.871  17.443  0.00  0.00    +0.000 A 
ATOM     21  C   UNL     1       6.465   6.020  16.882  0.00  0.00    +0.000 A 
ATOM     22  C   UNL     1       6.906   5.119  15.914  0.00  0.00    +0.000 A 
ATOM     23  C   UNL     1       6.085   4.075  15.501  0.00  0.00    +0.000 A 
ATOM     24  C   UNL     1       4.809   3.900  16.050  0.00  0.00    +0.000 A 
ATOM     25  C   UNL     1       4.376   4.811  17.029  0.00  0.00    +0.000 A 
ATOM     26  S   UNL     1       2.889   4.863  17.898  0.00  0.00    +0.000 S 
ENDBRANCH  17  18
ENDBRANCH   1  17
TORSDOF 4
ENDMDL
MODEL 9
REMARK VINA RESULT:      -7.3      2.411      3.056
REMARK  Name = 
REMARK  6 active torsions:
REMARK  status: ('A' for Active; 'I' for Inactive)
REMARK    1  A    between atoms: C_1  and  C_2
REMARK    2  A    between atoms: C_2  and  C_3
REMARK    3  A    between atoms: C_2  and  N_12
REMARK    4  A    between atoms: N_12  and  C_13
REMARK    5  A    between atoms: C_14  and  C_16
REMARK    6  A    between atoms: C_20  and  N_21
REMARK                            x       y       z     vdW  Elec       q    Type
REMARK                         _______ _______ _______ _____ _____    ______ ____
ROOT
ATOM      1  N   UNL     1       1.688   7.948  19.621  0.00  0.00    +0.000 N 
ATOM      2  C   UNL     1       2.091   8.633  18.391  0.00  0.00    +0.000 C 
ATOM      3  C   UNL     1       1.897   6.584  19.876  0.00  0.00    +0.000 C 
ATOM      4  O   UNL     1       1.464   6.031  20.888  0.00  0.00    +0.000 OA
ENDROOT
BRANCH   3   5
ATOM      5  C   UNL     1       2.630   5.713  18.904  0.00  0.00    +0.000 A 
ATOM      6  C   UNL     1       2.000   4.546  18.449  0.00  0.00    +0.000 A 
ATOM      7  C   UNL     1       2.622   3.725  17.503  0.00  0.00    +0.000 A 
ATOM      8  C   UNL     1       3.868   4.075  16.974  0.00  0.00    +0.000 A 
ATOM      9  C   UNL     1       4.522   5.215  17.452  0.00  0.00    +0.000 A 
ATOM     10  C   UNL     1       3.926   5.989  18.462  0.00  0.00    +0.000 A 
BRANCH   9  11
ATOM     11  N   UNL     1       5.766   5.631  16.920  0.00  0.00    +0.000 N 
ATOM     12  C   UNL     1       6.485   5.126  15.866  0.00  0.00    +0.000 A 
ATOM     13  N   UNL     1       7.575   5.840  15.701  0.00  0.00    +0.000 NA
ATOM     14  N   UNL     1       7.528   6.817  16.659  0.00  0.00    +0.000 NA
ATOM     15  N   UNL     1       6.432   6.709  17.395  0.00  0.00    +0.000 NA
ENDBRANCH   9  11
ENDBRANCH   3   5
BRANCH   1  17
ATOM     16  C   UNL     1       1.728   8.761  21.985  0.00  0.00    +0.000 C 
ATOM     17  C   UNL     1       0.972   8.741  20.652  0.00  0.00    +0.000 C 
BRANCH  17  18
ATOM     18  C   UNL     1       0.726  10.160  20.161  0.00  0.00    +0.000 A 
ATOM     19  N   UNL     1       1.433  11.205  20.542  0.00  0.00    +0.000 NA
ATOM     20  C   UNL     1       0.966  12.353  19.938  0.00  0.00    +0.000 A 
ATOM     21  C   UNL     1       1.509  13.644  20.100  0.00  0.00    +0.000 A 
ATOM     22  C   UNL     1       0.924  14.727  19.447  0.00  0.00    +0.000 A 
ATOM     23  C   UNL     1      -0.190  14.540  18.636  0.00  0.00    +0.000 A 
ATOM     24  C   UNL     1      -0.741  13.267  18.451  0.00  0.00    +0.000 A 
ATOM     25  C   UNL     1      -0.142  12.180  19.110  0.00  0.00    +0.000 A 
ATOM     26  S   UNL     1      -0.563  10.510  19.079  0.00  0.00    +0.000 S 
ENDBRANCH  17  18
ENDBRANCH   1  17
TORSDOF 4
ENDMDL
