MODEL 1
REMARK VINA RESULT:      -8.1      0.000      0.000
REMARK  Name = 
REMARK  6 active torsions:
REMARK  status: ('A' for Active; 'I' for Inactive)
REMARK    1  A    between atoms: C_1  and  C_2
REMARK    2  A    between atoms: C_2  and  N_3
REMARK    3  A    between atoms: C_5  and  C_6
REMARK    4  A    between atoms: C_6  and  O_8
REMARK    5  A    between atoms: C_15  and  N_16
REMARK    6  A    between atoms: C_20  and  C_22
REMARK                            x       y       z     vdW  Elec       q    Type
REMARK                         _______ _______ _______ _____ _____    ______ ____
ROOT
ATOM      1  N   UNL     1      -1.564  10.927  18.817  0.00  0.00    +0.000 N 
ATOM      2  C   UNL     1      -2.414  11.942  19.250  0.00  0.00    +0.000 A 
ATOM      3  C   UNL     1      -2.457  12.485  20.477  0.00  0.00    +0.000 A 
ATOM      4  C   UNL     1      -1.493  11.966  21.460  0.00  0.00    +0.000 A 
ATOM      5  O   UNL     1      -1.467  12.428  22.600  0.00  0.00    +0.000 OA
ATOM      6  C   UNL     1      -0.585  10.877  21.046  0.00  0.00    +0.000 A 
ATOM      7  C   UNL     1       0.288  10.360  22.000  0.00  0.00    +0.000 A 
ATOM      8  C   UNL     1       1.114   9.304  21.656  0.00  0.00    +0.000 A 
ATOM      9  F   UNL     1       1.959   8.861  22.601  0.00  0.00    +0.000 F 
ATOM     10  C   UNL     1       1.112   8.730  20.371  0.00  0.00    +0.000 A 
ATOM     11  C   UNL     1       0.254   9.320  19.417  0.00  0.00    +0.000 A 
ATOM     12  C   UNL     1      -0.631  10.377  19.728  0.00  0.00    +0.000 A 
ENDROOT
BRANCH  10  13
ATOM     13  N   UNL     1       1.891   7.631  20.062  0.00  0.00    +0.000 N 
ATOM     14  C   UNL     1       1.853   6.347  20.792  0.00  0.00    +0.000 C 
ATOM     15  C   UNL     1       1.789   5.160  19.794  0.00  0.00    +0.000 C 
ATOM     16  N   UNL     1       2.788   5.280  18.716  0.00  0.00    +0.000 N 
ATOM     17  C   UNL     1       3.796   4.314  18.618  0.00  0.00    +0.000 C 
ATOM     18  O   UNL     1       3.831   3.352  19.384  0.00  0.00    +0.000 OA
ATOM     19  C   UNL     1       2.674   6.562  18.000  0.00  0.00    +0.000 C 
ATOM     20  C   UNL     1       2.916   7.706  19.002  0.00  0.00    +0.000 C 
BRANCH  17  21
ATOM     21  C   UNL     1       4.875   4.423  17.588  0.00  0.00    +0.000 A 
ATOM     22  C   UNL     1       4.607   4.089  16.251  0.00  0.00    +0.000 A 
ATOM     23  C   UNL     1       5.618   4.077  15.288  0.00  0.00    +0.000 A 
ATOM     24  C   UNL     1       6.894   4.513  15.620  0.00  0.00    +0.000 A 
ATOM     25  C   UNL     1       7.149   4.969  16.912  0.00  0.00    +0.000 A 
ATOM     26  C   UNL     1       6.153   4.917  17.901  0.00  0.00    +0.000 A 
ATOM     27 CL   UNL     1       6.617   5.464  19.476  0.00  0.00    +0.000 Cl
ENDBRANCH  17  21
ENDBRANCH  10  13
BRANCH   1  29
ATOM     28  C   UNL     1      -3.057   9.680  17.286  0.00  0.00    +0.000 C 
ATOM     29  C   UNL     1      -1.710  10.364  17.460  0.00  0.00    +0.000 C 
ENDBRANCH   1  29
BRANCH   3  30
ATOM     30  C   UNL     1      -3.451  13.526  20.791  0.00  0.00    +0.000 C 
ATOM     31  O   UNL     1      -4.574  13.559  20.295  0.00  0.00    +0.000 OA
BRANCH  30  32
ATOM     32  O   UNL     1      -3.037  14.453  21.685  0.00  0.00    +0.000 OA
ATOM     33  H   UNL     1      -2.065  14.426  21.868  0.00  0.00    +0.000 HD
ENDBRANCH  30  32
ENDBRANCH   3  30
TORSDOF 5
ENDMDL
MODEL 2
REMARK VINA RESULT:      -8.0      3.148      9.869
REMARK  Name = 
REMARK  6 active torsions:
REMARK  status: ('A' for Active; 'I' for Inactive)
REMARK    1  A    between atoms: C_1  and  C_2
REMARK    2  A    between atoms: C_2  and  N_3
REMARK    3  A    between atoms: C_5  and  C_6
REMARK    4  A    between atoms: C_6  and  O_8
REMARK    5  A    between atoms: C_15  and  N_16
REMARK    6  A    between atoms: C_20  and  C_22
REMARK                            x       y       z     vdW  Elec       q    Type
REMARK                         _______ _______ _______ _____ _____    ______ ____
ROOT
ATOM      1  N   UNL     1       2.866   5.359  19.945  0.00  0.00    +0.000 N 
ATOM      2  C   UNL     1       3.749   4.676  19.112  0.00  0.00    +0.000 A 
ATOM      3  C   UNL     1       4.297   5.131  17.974  0.00  0.00    +0.000 A 
ATOM      4  C   UNL     1       3.942   6.503  17.578  0.00  0.00    +0.000 A 
ATOM      5  O   UNL     1       4.419   6.990  16.553  0.00  0.00    +0.000 OA
ATOM      6  C   UNL     1       2.995   7.257  18.425  0.00  0.00    +0.000 A 
ATOM      7  C   UNL     1       2.627   8.535  18.012  0.00  0.00    +0.000 A 
ATOM      8  C   UNL     1       1.702   9.245  18.756  0.00  0.00    +0.000 A 
ATOM      9  F   UNL     1       1.404  10.484  18.334  0.00  0.00    +0.000 F 
ATOM     10  C   UNL     1       1.116   8.725  19.926  0.00  0.00    +0.000 A 
ATOM     11  C   UNL     1       1.558   7.450  20.342  0.00  0.00    +0.000 A 
ATOM     12  C   UNL     1       2.475   6.674  19.599  0.00  0.00    +0.000 A 
ENDROOT
BRANCH  10  13
ATOM     13  N   UNL     1       0.141   9.417  20.621  0.00  0.00    +0.000 N 
ATOM     14  C   UNL     1      -0.416   8.997  21.923  0.00  0.00    +0.000 C 
ATOM     15  C   UNL     1      -0.468  10.201  22.901  0.00  0.00    +0.000 C 
ATOM     16  N   UNL     1      -1.063  11.400  22.283  0.00  0.00    +0.000 N 
ATOM     17  C   UNL     1      -2.260  11.906  22.802  0.00  0.00    +0.000 C 
ATOM     18  O   UNL     1      -2.792  11.394  23.786  0.00  0.00    +0.000 OA
ATOM     19  C   UNL     1      -0.371  11.778  21.038  0.00  0.00    +0.000 C 
ATOM     20  C   UNL     1      -0.496  10.614  20.037  0.00  0.00    +0.000 C 
BRANCH  17  21
ATOM     21  C   UNL     1      -2.944  13.077  22.171  0.00  0.00    +0.000 A 
ATOM     22  C   UNL     1      -4.018  12.874  21.291  0.00  0.00    +0.000 A 
ATOM     23  C   UNL     1      -4.607  13.938  20.605  0.00  0.00    +0.000 A 
ATOM     24  C   UNL     1      -4.207  15.240  20.876  0.00  0.00    +0.000 A 
ATOM     25  C   UNL     1      -3.228  15.472  21.840  0.00  0.00    +0.000 A 
ATOM     26  C   UNL     1      -2.585  14.400  22.481  0.00  0.00    +0.000 A 
ATOM     27 CL   UNL     1      -1.351  14.824  23.617  0.00  0.00    +0.000 Cl
ENDBRANCH  17  21
ENDBRANCH  10  13
BRANCH   1  29
ATOM     28  C   UNL     1       1.226   3.659  20.684  0.00  0.00    +0.000 C 
ATOM     29  C   UNL     1       2.269   4.680  21.112  0.00  0.00    +0.000 C 
ENDBRANCH   1  29
BRANCH   3  30
ATOM     30  C   UNL     1       5.183   4.263  17.180  0.00  0.00    +0.000 C 
ATOM     31  O   UNL     1       4.873   3.804  16.084  0.00  0.00    +0.000 OA
BRANCH  30  32
ATOM     32  O   UNL     1       6.386   4.011  17.746  0.00  0.00    +0.000 OA
ATOM     33  H   UNL     1       6.534   3.055  17.960  0.00  0.00    +0.000 HD
ENDBRANCH  30  32
ENDBRANCH   3  30
TORSDOF 5
ENDMDL
MODEL 3
REMARK VINA RESULT:      -7.9      3.112      9.874
REMARK  Name = 
REMARK  6 active torsions:
REMARK  status: ('A' for Active; 'I' for Inactive)
REMARK    1  A    between atoms: C_1  and  C_2
REMARK    2  A    between atoms: C_2  and  N_3
REMARK    3  A    between atoms: C_5  and  C_6
REMARK    4  A    between atoms: C_6  and  O_8
REMARK    5  A    between atoms: C_15  and  N_16
REMARK    6  A    between atoms: C_20  and  C_22
REMARK                            x       y       z     vdW  Elec       q    Type
REMARK                         _______ _______ _______ _____ _____    ______ ____
ROOT
ATOM      1  N   UNL     1       2.891   5.388  19.899  0.00  0.00    +0.000 N 
ATOM      2  C   UNL     1       3.737   4.661  19.065  0.00  0.00    +0.000 A 
ATOM      3  C   UNL     1       4.276   5.075  17.907  0.00  0.00    +0.000 A 
ATOM      4  C   UNL     1       3.954   6.448  17.487  0.00  0.00    +0.000 A 
ATOM      5  O   UNL     1       4.426   6.899  16.444  0.00  0.00    +0.000 OA
ATOM      6  C   UNL     1       3.046   7.248  18.335  0.00  0.00    +0.000 A 
ATOM      7  C   UNL     1       2.708   8.527  17.900  0.00  0.00    +0.000 A 
ATOM      8  C   UNL     1       1.819   9.280  18.646  0.00  0.00    +0.000 A 
ATOM      9  F   UNL     1       1.549  10.518  18.202  0.00  0.00    +0.000 F 
ATOM     10  C   UNL     1       1.240   8.804  19.838  0.00  0.00    +0.000 A 
ATOM     11  C   UNL     1       1.652   7.525  20.273  0.00  0.00    +0.000 A 
ATOM     12  C   UNL     1       2.531   6.707  19.531  0.00  0.00    +0.000 A 
ENDROOT
BRANCH  10  13
ATOM     13  N   UNL     1       0.299   9.539  20.535  0.00  0.00    +0.000 N 
ATOM     14  C   UNL     1      -0.588   8.987  21.579  0.00  0.00    +0.000 C 
ATOM     15  C   UNL     1      -0.602   9.916  22.822  0.00  0.00    +0.000 C 
ATOM     16  N   UNL     1      -0.805  11.331  22.461  0.00  0.00    +0.000 N 
ATOM     17  C   UNL     1      -1.959  11.985  22.908  0.00  0.00    +0.000 C 
ATOM     18  O   UNL     1      -2.774  11.412  23.629  0.00  0.00    +0.000 OA
ATOM     19  C   UNL     1       0.191  11.798  21.481  0.00  0.00    +0.000 C 
ATOM     20  C   UNL     1       0.048  10.955  20.200  0.00  0.00    +0.000 C 
BRANCH  17  21
ATOM     21  C   UNL     1      -2.250  13.398  22.515  0.00  0.00    +0.000 A 
ATOM     22  C   UNL     1      -1.819  14.457  23.329  0.00  0.00    +0.000 A 
ATOM     23  C   UNL     1      -2.167  15.780  23.046  0.00  0.00    +0.000 A 
ATOM     24  C   UNL     1      -2.855  16.078  21.878  0.00  0.00    +0.000 A 
ATOM     25  C   UNL     1      -3.183  15.053  20.992  0.00  0.00    +0.000 A 
ATOM     26  C   UNL     1      -2.896  13.715  21.307  0.00  0.00    +0.000 A 
ATOM     27 CL   UNL     1      -3.404  12.536  20.147  0.00  0.00    +0.000 Cl
ENDBRANCH  17  21
ENDBRANCH  10  13
BRANCH   1  29
ATOM     28  C   UNL     1       1.240   3.727  20.703  0.00  0.00    +0.000 C 
ATOM     29  C   UNL     1       2.295   4.752  21.091  0.00  0.00    +0.000 C 
ENDBRANCH   1  29
BRANCH   3  30
ATOM     30  C   UNL     1       5.121   4.164  17.116  0.00  0.00    +0.000 C 
ATOM     31  O   UNL     1       4.746   3.626  16.078  0.00  0.00    +0.000 OA
BRANCH  30  32
ATOM     32  O   UNL     1       6.363   3.966  17.615  0.00  0.00    +0.000 OA
ATOM     33  H   UNL     1       6.456   3.128  18.133  0.00  0.00    +0.000 HD
ENDBRANCH  30  32
ENDBRANCH   3  30
TORSDOF 5
ENDMDL
MODEL 4
REMARK VINA RESULT:      -7.6      2.747      9.583
REMARK  Name = 
REMARK  6 active torsions:
REMARK  status: ('A' for Active; 'I' for Inactive)
REMARK    1  A    between atoms: C_1  and  C_2
REMARK    2  A    between atoms: C_2  and  N_3
REMARK    3  A    between atoms: C_5  and  C_6
REMARK    4  A    between atoms: C_6  and  O_8
REMARK    5  A    between atoms: C_15  and  N_16
REMARK    6  A    between atoms: C_20  and  C_22
REMARK                            x       y       z     vdW  Elec       q    Type
REMARK                         _______ _______ _______ _____ _____    ______ ____
ROOT
ATOM      1  N   UNL     1       3.921   5.532  18.182  0.00  0.00    +0.000 N 
ATOM      2  C   UNL     1       4.329   4.232  18.471  0.00  0.00    +0.000 A 
ATOM      3  C   UNL     1       3.889   3.455  19.473  0.00  0.00    +0.000 A 
ATOM      4  C   UNL     1       2.852   4.031  20.344  0.00  0.00    +0.000 A 
ATOM      5  O   UNL     1       2.392   3.368  21.274  0.00  0.00    +0.000 OA
ATOM      6  C   UNL     1       2.403   5.414  20.082  0.00  0.00    +0.000 A 
ATOM      7  C   UNL     1       1.458   5.965  20.944  0.00  0.00    +0.000 A 
ATOM      8  C   UNL     1       1.057   7.276  20.756  0.00  0.00    +0.000 A 
ATOM      9  F   UNL     1       0.122   7.752  21.594  0.00  0.00    +0.000 F 
ATOM     10  C   UNL     1       1.565   8.080  19.718  0.00  0.00    +0.000 A 
ATOM     11  C   UNL     1       2.477   7.465  18.832  0.00  0.00    +0.000 A 
ATOM     12  C   UNL     1       2.941   6.142  19.002  0.00  0.00    +0.000 A 
ENDROOT
BRANCH  10  13
ATOM     13  N   UNL     1       1.208   9.408  19.584  0.00  0.00    +0.000 N 
ATOM     14  C   UNL     1       0.900  10.067  18.298  0.00  0.00    +0.000 C 
ATOM     15  C   UNL     1      -0.400  10.906  18.419  0.00  0.00    +0.000 C 
ATOM     16  N   UNL     1      -0.405  11.762  19.620  0.00  0.00    +0.000 N 
ATOM     17  C   UNL     1      -0.429  13.152  19.459  0.00  0.00    +0.000 C 
ATOM     18  O   UNL     1      -0.494  13.661  18.342  0.00  0.00    +0.000 OA
ATOM     19  C   UNL     1      -0.177  10.986  20.851  0.00  0.00    +0.000 C 
ATOM     20  C   UNL     1       1.204  10.309  20.754  0.00  0.00    +0.000 C 
BRANCH  17  21
ATOM     21  C   UNL     1      -0.366  14.069  20.639  0.00  0.00    +0.000 A 
ATOM     22  C   UNL     1      -1.550  14.518  21.246  0.00  0.00    +0.000 A 
ATOM     23  C   UNL     1      -1.527  15.457  22.279  0.00  0.00    +0.000 A 
ATOM     24  C   UNL     1      -0.312  15.877  22.804  0.00  0.00    +0.000 A 
ATOM     25  C   UNL     1       0.874  15.347  22.299  0.00  0.00    +0.000 A 
ATOM     26  C   UNL     1       0.857  14.456  21.214  0.00  0.00    +0.000 A 
ATOM     27 CL   UNL     1       2.401  13.915  20.651  0.00  0.00    +0.000 Cl
ENDBRANCH  17  21
ENDBRANCH  10  13
BRANCH   1  29
ATOM     28  C   UNL     1       5.183   5.370  16.059  0.00  0.00    +0.000 C 
ATOM     29  C   UNL     1       4.579   6.295  17.103  0.00  0.00    +0.000 C 
ENDBRANCH   1  29
BRANCH   3  30
ATOM     30  C   UNL     1       4.457   2.111  19.672  0.00  0.00    +0.000 C 
ATOM     31  O   UNL     1       5.163   1.811  20.631  0.00  0.00    +0.000 OA
BRANCH  30  32
ATOM     32  O   UNL     1       4.133   1.211  18.714  0.00  0.00    +0.000 OA
ATOM     33  H   UNL     1       3.343   1.468  18.176  0.00  0.00    +0.000 HD
ENDBRANCH  30  32
ENDBRANCH   3  30
TORSDOF 5
ENDMDL
MODEL 5
REMARK VINA RESULT:      -7.6      3.119      9.737
REMARK  Name = 
REMARK  6 active torsions:
REMARK  status: ('A' for Active; 'I' for Inactive)
REMARK    1  A    between atoms: C_1  and  C_2
REMARK    2  A    between atoms: C_2  and  N_3
REMARK    3  A    between atoms: C_5  and  C_6
REMARK    4  A    between atoms: C_6  and  O_8
REMARK    5  A    between atoms: C_15  and  N_16
REMARK    6  A    between atoms: C_20  and  C_22
REMARK                            x       y       z     vdW  Elec       q    Type
REMARK                         _______ _______ _______ _____ _____    ______ ____
ROOT
ATOM      1  N   UNL     1       3.926   5.549  18.177  0.00  0.00    +0.000 N 
ATOM      2  C   UNL     1       4.340   4.246  18.448  0.00  0.00    +0.000 A 
ATOM      3  C   UNL     1       3.897   3.450  19.434  0.00  0.00    +0.000 A 
ATOM      4  C   UNL     1       2.850   4.006  20.306  0.00  0.00    +0.000 A 
ATOM      5  O   UNL     1       2.387   3.326  21.222  0.00  0.00    +0.000 OA
ATOM      6  C   UNL     1       2.394   5.391  20.064  0.00  0.00    +0.000 A 
ATOM      7  C   UNL     1       1.441   5.922  20.928  0.00  0.00    +0.000 A 
ATOM      8  C   UNL     1       1.033   7.233  20.758  0.00  0.00    +0.000 A 
ATOM      9  F   UNL     1       0.089   7.690  21.597  0.00  0.00    +0.000 F 
ATOM     10  C   UNL     1       1.543   8.057  19.736  0.00  0.00    +0.000 A 
ATOM     11  C   UNL     1       2.466   7.462  18.848  0.00  0.00    +0.000 A 
ATOM     12  C   UNL     1       2.937   6.140  19.000  0.00  0.00    +0.000 A 
ENDROOT
BRANCH  10  13
ATOM     13  N   UNL     1       1.180   9.385  19.622  0.00  0.00    +0.000 N 
ATOM     14  C   UNL     1       0.936  10.079  18.341  0.00  0.00    +0.000 C 
ATOM     15  C   UNL     1      -0.379  10.902  18.414  0.00  0.00    +0.000 C 
ATOM     16  N   UNL     1      -0.459  11.722  19.637  0.00  0.00    +0.000 N 
ATOM     17  C   UNL     1      -0.490  13.116  19.516  0.00  0.00    +0.000 C 
ATOM     18  O   UNL     1      -0.498  13.657  18.411  0.00  0.00    +0.000 OA
ATOM     19  C   UNL     1      -0.290  10.912  20.856  0.00  0.00    +0.000 C 
ATOM     20  C   UNL     1       1.101  10.252  20.815  0.00  0.00    +0.000 C 
BRANCH  17  21
ATOM     21  C   UNL     1      -0.502  13.998  20.724  0.00  0.00    +0.000 A 
ATOM     22  C   UNL     1       0.673  14.652  21.128  0.00  0.00    +0.000 A 
ATOM     23  C   UNL     1       0.721  15.394  22.310  0.00  0.00    +0.000 A 
ATOM     24  C   UNL     1      -0.438  15.594  23.048  0.00  0.00    +0.000 A 
ATOM     25  C   UNL     1      -1.642  15.058  22.595  0.00  0.00    +0.000 A 
ATOM     26  C   UNL     1      -1.680  14.253  21.446  0.00  0.00    +0.000 A 
ATOM     27 CL   UNL     1      -3.229  13.606  21.023  0.00  0.00    +0.000 Cl
ENDBRANCH  17  21
ENDBRANCH  10  13
BRANCH   1  29
ATOM     28  C   UNL     1       5.195   5.429  16.056  0.00  0.00    +0.000 C 
ATOM     29  C   UNL     1       4.587   6.333  17.116  0.00  0.00    +0.000 C 
ENDBRANCH   1  29
BRANCH   3  30
ATOM     30  C   UNL     1       4.472   2.106  19.615  0.00  0.00    +0.000 C 
ATOM     31  O   UNL     1       5.191   1.801  20.562  0.00  0.00    +0.000 OA
BRANCH  30  32
ATOM     32  O   UNL     1       4.138   1.213  18.654  0.00  0.00    +0.000 OA
ATOM     33  H   UNL     1       3.202   0.897  18.711  0.00  0.00    +0.000 HD
ENDBRANCH  30  32
ENDBRANCH   3  30
TORSDOF 5
ENDMDL
MODEL 6
REMARK VINA RESULT:      -7.6      1.667      2.088
REMARK  Name = 
REMARK  6 active torsions:
REMARK  status: ('A' for Active; 'I' for Inactive)
REMARK    1  A    between atoms: C_1  and  C_2
REMARK    2  A    between atoms: C_2  and  N_3
REMARK    3  A    between atoms: C_5  and  C_6
REMARK    4  A    between atoms: C_6  and  O_8
REMARK    5  A    between atoms: C_15  and  N_16
REMARK    6  A    between atoms: C_20  and  C_22
REMARK                            x       y       z     vdW  Elec       q    Type
REMARK                         _______ _______ _______ _____ _____    ______ ____
ROOT
ATOM      1  N   UNL     1      -3.164  10.750  18.112  0.00  0.00    +0.000 N 
ATOM      2  C   UNL     1      -4.192  11.646  18.395  0.00  0.00    +0.000 A 
ATOM      3  C   UNL     1      -4.205  12.577  19.361  0.00  0.00    +0.000 A 
ATOM      4  C   UNL     1      -2.996  12.674  20.195  0.00  0.00    +0.000 A 
ATOM      5  O   UNL     1      -2.933  13.517  21.091  0.00  0.00    +0.000 OA
ATOM      6  C   UNL     1      -1.888  11.731  19.940  0.00  0.00    +0.000 A 
ATOM      7  C   UNL     1      -0.772  11.800  20.769  0.00  0.00    +0.000 A 
ATOM      8  C   UNL     1       0.260  10.896  20.588  0.00  0.00    +0.000 A 
ATOM      9  F   UNL     1       1.328  11.022  21.392  0.00  0.00    +0.000 F 
ATOM     10  C   UNL     1       0.228   9.904  19.589  0.00  0.00    +0.000 A 
ATOM     11  C   UNL     1      -0.895   9.905  18.733  0.00  0.00    +0.000 A 
ATOM     12  C   UNL     1      -1.987  10.786  18.899  0.00  0.00    +0.000 A 
ENDROOT
BRANCH  10  13
ATOM     13  N   UNL     1       1.233   8.963  19.465  0.00  0.00    +0.000 N 
ATOM     14  C   UNL     1       1.801   8.192  20.590  0.00  0.00    +0.000 C 
ATOM     15  C   UNL     1       1.902   6.689  20.218  0.00  0.00    +0.000 C 
ATOM     16  N   UNL     1       2.517   6.479  18.894  0.00  0.00    +0.000 N 
ATOM     17  C   UNL     1       3.736   5.796  18.814  0.00  0.00    +0.000 C 
ATOM     18  O   UNL     1       4.271   5.334  19.821  0.00  0.00    +0.000 OA
ATOM     19  C   UNL     1       1.814   7.225  17.836  0.00  0.00    +0.000 C 
ATOM     20  C   UNL     1       1.891   8.728  18.164  0.00  0.00    +0.000 C 
BRANCH  17  21
ATOM     21  C   UNL     1       4.438   5.615  17.506  0.00  0.00    +0.000 A 
ATOM     22  C   UNL     1       5.087   6.703  16.901  0.00  0.00    +0.000 A 
ATOM     23  C   UNL     1       5.659   6.593  15.631  0.00  0.00    +0.000 A 
ATOM     24  C   UNL     1       5.694   5.359  14.994  0.00  0.00    +0.000 A 
ATOM     25  C   UNL     1       5.167   4.240  15.635  0.00  0.00    +0.000 A 
ATOM     26  C   UNL     1       4.529   4.360  16.880  0.00  0.00    +0.000 A 
ATOM     27 CL   UNL     1       3.871   2.903  17.541  0.00  0.00    +0.000 Cl
ENDBRANCH  17  21
ENDBRANCH  10  13
BRANCH   1  29
ATOM     28  C   UNL     1      -3.002  10.242  15.695  0.00  0.00    +0.000 C 
ATOM     29  C   UNL     1      -3.345   9.711  17.079  0.00  0.00    +0.000 C 
ENDBRANCH   1  29
BRANCH   3  30
ATOM     30  C   UNL     1      -5.395  13.422  19.559  0.00  0.00    +0.000 C 
ATOM     31  O   UNL     1      -6.536  12.974  19.632  0.00  0.00    +0.000 OA
BRANCH  30  32
ATOM     32  O   UNL     1      -5.139  14.746  19.669  0.00  0.00    +0.000 OA
ATOM     33  H   UNL     1      -5.197  15.089  20.596  0.00  0.00    +0.000 HD
ENDBRANCH  30  32
ENDBRANCH   3  30
TORSDOF 5
ENDMDL
MODEL 7
REMARK VINA RESULT:      -7.5      3.086      9.913
REMARK  Name = 
REMARK  6 active torsions:
REMARK  status: ('A' for Active; 'I' for Inactive)
REMARK    1  A    between atoms: C_1  and  C_2
REMARK    2  A    between atoms: C_2  and  N_3
REMARK    3  A    between atoms: C_5  and  C_6
REMARK    4  A    between atoms: C_6  and  O_8
REMARK    5  A    between atoms: C_15  and  N_16
REMARK    6  A    between atoms: C_20  and  C_22
REMARK                            x       y       z     vdW  Elec       q    Type
REMARK                         _______ _______ _______ _____ _____    ______ ____
ROOT
ATOM      1  N   UNL     1       2.609   5.450  19.849  0.00  0.00    +0.000 N 
ATOM      2  C   UNL     1       3.368   4.532  19.127  0.00  0.00    +0.000 A 
ATOM      3  C   UNL     1       4.024   4.757  17.977  0.00  0.00    +0.000 A 
ATOM      4  C   UNL     1       3.949   6.124  17.436  0.00  0.00    +0.000 A 
ATOM      5  O   UNL     1       4.539   6.405  16.393  0.00  0.00    +0.000 OA
ATOM      6  C   UNL     1       3.141   7.125  18.162  0.00  0.00    +0.000 A 
ATOM      7  C   UNL     1       3.037   8.400  17.613  0.00  0.00    +0.000 A 
ATOM      8  C   UNL     1       2.245   9.343  18.242  0.00  0.00    +0.000 A 
ATOM      9  F   UNL     1       2.201  10.566  17.690  0.00  0.00    +0.000 F 
ATOM     10  C   UNL     1       1.538   9.066  19.428  0.00  0.00    +0.000 A 
ATOM     11  C   UNL     1       1.715   7.780  19.983  0.00  0.00    +0.000 A 
ATOM     12  C   UNL     1       2.486   6.774  19.361  0.00  0.00    +0.000 A 
ENDROOT
BRANCH  10  13
ATOM     13  N   UNL     1       0.694   9.996  20.007  0.00  0.00    +0.000 N 
ATOM     14  C   UNL     1       1.141  11.102  20.878  0.00  0.00    +0.000 C 
ATOM     15  C   UNL     1       0.461  12.432  20.453  0.00  0.00    +0.000 C 
ATOM     16  N   UNL     1      -0.994  12.281  20.266  0.00  0.00    +0.000 N 
ATOM     17  C   UNL     1      -1.861  12.993  21.103  0.00  0.00    +0.000 C 
ATOM     18  O   UNL     1      -1.427  13.769  21.954  0.00  0.00    +0.000 OA
ATOM     19  C   UNL     1      -1.319  11.209  19.310  0.00  0.00    +0.000 C 
ATOM     20  C   UNL     1      -0.770   9.879  19.862  0.00  0.00    +0.000 C 
BRANCH  17  21
ATOM     21  C   UNL     1      -3.344  12.827  21.004  0.00  0.00    +0.000 A 
ATOM     22  C   UNL     1      -3.963  12.778  19.745  0.00  0.00    +0.000 A 
ATOM     23  C   UNL     1      -5.353  12.732  19.620  0.00  0.00    +0.000 A 
ATOM     24  C   UNL     1      -6.145  12.615  20.755  0.00  0.00    +0.000 A 
ATOM     25  C   UNL     1      -5.542  12.534  22.008  0.00  0.00    +0.000 A 
ATOM     26  C   UNL     1      -4.149  12.651  22.142  0.00  0.00    +0.000 A 
ATOM     27 CL   UNL     1      -3.533  12.587  23.758  0.00  0.00    +0.000 Cl
ENDBRANCH  17  21
ENDBRANCH  10  13
BRANCH   1  29
ATOM     28  C   UNL     1       1.153   3.694  20.808  0.00  0.00    +0.000 C 
ATOM     29  C   UNL     1       1.861   5.019  21.046  0.00  0.00    +0.000 C 
ENDBRANCH   1  29
BRANCH   3  30
ATOM     30  C   UNL     1       4.748   3.661  17.311  0.00  0.00    +0.000 C 
ATOM     31  O   UNL     1       4.271   2.543  17.139  0.00  0.00    +0.000 OA
BRANCH  30  32
ATOM     32  O   UNL     1       5.992   3.981  16.886  0.00  0.00    +0.000 OA
ATOM     33  H   UNL     1       6.687   3.898  17.586  0.00  0.00    +0.000 HD
ENDBRANCH  30  32
ENDBRANCH   3  30
TORSDOF 5
ENDMDL
MODEL 8
REMARK VINA RESULT:      -7.4      1.088      1.384
REMARK  Name = 
REMARK  6 active torsions:
REMARK  status: ('A' for Active; 'I' for Inactive)
REMARK    1  A    between atoms: C_1  and  C_2
REMARK    2  A    between atoms: C_2  and  N_3
REMARK    3  A    between atoms: C_5  and  C_6
REMARK    4  A    between atoms: C_6  and  O_8
REMARK    5  A    between atoms: C_15  and  N_16
REMARK    6  A    between atoms: C_20  and  C_22
REMARK                            x       y       z     vdW  Elec       q    Type
REMARK                         _______ _______ _______ _____ _____    ______ ____
ROOT
ATOM      1  N   UNL     1      -1.725  10.807  18.629  0.00  0.00    +0.000 N 
ATOM      2  C   UNL     1      -2.603  11.842  18.944  0.00  0.00    +0.000 A 
ATOM      3  C   UNL     1      -2.680  12.505  20.109  0.00  0.00    +0.000 A 
ATOM      4  C   UNL     1      -1.722  12.109  21.154  0.00  0.00    +0.000 A 
ATOM      5  O   UNL     1      -1.727  12.685  22.242  0.00  0.00    +0.000 OA
ATOM      6  C   UNL     1      -0.785  11.004  20.867  0.00  0.00    +0.000 A 
ATOM      7  C   UNL     1       0.081  10.605  21.882  0.00  0.00    +0.000 A 
ATOM      8  C   UNL     1       0.934   9.539  21.660  0.00  0.00    +0.000 A 
ATOM      9  F   UNL     1       1.771   9.213  22.659  0.00  0.00    +0.000 F 
ATOM     10  C   UNL     1       0.966   8.838  20.440  0.00  0.00    +0.000 A 
ATOM     11  C   UNL     1       0.114   9.310  19.418  0.00  0.00    +0.000 A 
ATOM     12  C   UNL     1      -0.798  10.372  19.607  0.00  0.00    +0.000 A 
ENDROOT
BRANCH  10  13
ATOM     13  N   UNL     1       1.773   7.731  20.257  0.00  0.00    +0.000 N 
ATOM     14  C   UNL     1       1.795   6.555  21.151  0.00  0.00    +0.000 C 
ATOM     15  C   UNL     1       1.745   5.244  20.320  0.00  0.00    +0.000 C 
ATOM     16  N   UNL     1       2.713   5.249  19.208  0.00  0.00    +0.000 N 
ATOM     17  C   UNL     1       3.750   4.308  19.209  0.00  0.00    +0.000 C 
ATOM     18  O   UNL     1       3.835   3.458  20.094  0.00  0.00    +0.000 OA
ATOM     19  C   UNL     1       2.540   6.420  18.332  0.00  0.00    +0.000 C 
ATOM     20  C   UNL     1       2.769   7.694  19.167  0.00  0.00    +0.000 C 
BRANCH  17  21
ATOM     21  C   UNL     1       4.799   4.311  18.143  0.00  0.00    +0.000 A 
ATOM     22  C   UNL     1       6.098   4.754  18.437  0.00  0.00    +0.000 A 
ATOM     23  C   UNL     1       7.069   4.870  17.440  0.00  0.00    +0.000 A 
ATOM     24  C   UNL     1       6.792   4.433  16.151  0.00  0.00    +0.000 A 
ATOM     25  C   UNL     1       5.547   3.872  15.869  0.00  0.00    +0.000 A 
ATOM     26  C   UNL     1       4.546   3.819  16.852  0.00  0.00    +0.000 A 
ATOM     27 CL   UNL     1       3.030   3.147  16.355  0.00  0.00    +0.000 Cl
ENDBRANCH  17  21
ENDBRANCH  10  13
BRANCH   1  29
ATOM     28  C   UNL     1      -2.618  10.930  16.324  0.00  0.00    +0.000 C 
ATOM     29  C   UNL     1      -1.835  10.106  17.334  0.00  0.00    +0.000 C 
ENDBRANCH   1  29
BRANCH   3  30
ATOM     30  C   UNL     1      -3.700  13.550  20.299  0.00  0.00    +0.000 C 
ATOM     31  O   UNL     1      -4.906  13.322  20.318  0.00  0.00    +0.000 OA
BRANCH  30  32
ATOM     32  O   UNL     1      -3.207  14.799  20.466  0.00  0.00    +0.000 OA
ATOM     33  H   UNL     1      -3.898  15.476  20.676  0.00  0.00    +0.000 HD
ENDBRANCH  30  32
ENDBRANCH   3  30
TORSDOF 5
ENDMDL
MODEL 9
REMARK VINA RESULT:      -7.4      3.063      9.412
REMARK  Name = 
REMARK  6 active torsions:
REMARK  status: ('A' for Active; 'I' for Inactive)
REMARK    1  A    between atoms: C_1  and  C_2
REMARK    2  A    between atoms: C_2  and  N_3
REMARK    3  A    between atoms: C_5  and  C_6
REMARK    4  A    between atoms: C_6  and  O_8
REMARK    5  A    between atoms: C_15  and  N_16
REMARK    6  A    between atoms: C_20  and  C_22
REMARK                            x       y       z     vdW  Elec       q    Type
REMARK                         _______ _______ _______ _____ _____    ______ ____
ROOT
ATOM      1  N   UNL     1       3.972   5.279  18.091  0.00  0.00    +0.000 N 
ATOM      2  C   UNL     1       4.380   4.011  18.499  0.00  0.00    +0.000 A 
ATOM      3  C   UNL     1       3.973   3.348  19.593  0.00  0.00    +0.000 A 
ATOM      4  C   UNL     1       2.975   4.025  20.437  0.00  0.00    +0.000 A 
ATOM      5  O   UNL     1       2.546   3.468  21.448  0.00  0.00    +0.000 OA
ATOM      6  C   UNL     1       2.528   5.378  20.050  0.00  0.00    +0.000 A 
ATOM      7  C   UNL     1       1.622   6.028  20.884  0.00  0.00    +0.000 A 
ATOM      8  C   UNL     1       1.224   7.316  20.575  0.00  0.00    +0.000 A 
ATOM      9  F   UNL     1       0.327   7.888  21.394  0.00  0.00    +0.000 F 
ATOM     10  C   UNL     1       1.698   8.001  19.440  0.00  0.00    +0.000 A 
ATOM     11  C   UNL     1       2.570   7.287  18.590  0.00  0.00    +0.000 A 
ATOM     12  C   UNL     1       3.030   5.983  18.879  0.00  0.00    +0.000 A 
ENDROOT
BRANCH  10  13
ATOM     13  N   UNL     1       1.347   9.313  19.182  0.00  0.00    +0.000 N 
ATOM     14  C   UNL     1       0.509   9.747  18.046  0.00  0.00    +0.000 C 
ATOM     15  C   UNL     1      -0.581  10.742  18.528  0.00  0.00    +0.000 C 
ATOM     16  N   UNL     1      -0.028  11.805  19.388  0.00  0.00    +0.000 N 
ATOM     17  C   UNL     1      -0.093  13.132  18.948  0.00  0.00    +0.000 C 
ATOM     18  O   UNL     1      -0.642  13.423  17.887  0.00  0.00    +0.000 OA
ATOM     19  C   UNL     1       0.712  11.255  20.537  0.00  0.00    +0.000 C 
ATOM     20  C   UNL     1       1.887  10.414  20.004  0.00  0.00    +0.000 C 
BRANCH  17  21
ATOM     21  C   UNL     1       0.512  14.243  19.747  0.00  0.00    +0.000 A 
ATOM     22  C   UNL     1      -0.247  14.896  20.731  0.00  0.00    +0.000 A 
ATOM     23  C   UNL     1       0.254  16.004  21.417  0.00  0.00    +0.000 A 
ATOM     24  C   UNL     1       1.566  16.408  21.214  0.00  0.00    +0.000 A 
ATOM     25  C   UNL     1       2.377  15.694  20.333  0.00  0.00    +0.000 A 
ATOM     26  C   UNL     1       1.856  14.622  19.590  0.00  0.00    +0.000 A 
ATOM     27 CL   UNL     1       2.953  13.855  18.493  0.00  0.00    +0.000 Cl
ENDBRANCH  17  21
ENDBRANCH  10  13
BRANCH   1  29
ATOM     28  C   UNL     1       5.208   4.884  15.983  0.00  0.00    +0.000 C 
ATOM     29  C   UNL     1       4.593   5.918  16.914  0.00  0.00    +0.000 C 
ENDBRANCH   1  29
BRANCH   3  30
ATOM     30  C   UNL     1       4.538   2.025  19.909  0.00  0.00    +0.000 C 
ATOM     31  O   UNL     1       5.115   1.772  20.963  0.00  0.00    +0.000 OA
BRANCH  30  32
ATOM     32  O   UNL     1       4.364   1.090  18.947  0.00  0.00    +0.000 OA
ATOM     33  H   UNL     1       3.747   0.360  19.207  0.00  0.00    +0.000 HD
ENDBRANCH  30  32
ENDBRANCH   3  30
TORSDOF 5
ENDMDL
