MODEL 1
REMARK VINA RESULT:      -6.8      0.000      0.000
REMARK  Name = 
REMARK  4 active torsions:
REMARK  status: ('A' for Active; 'I' for Inactive)
REMARK    1  A    between atoms: C_1  and  S_2
REMARK    2  A    between atoms: S_2  and  N_5
REMARK    3  A    between atoms: N_9  and  C_10
REMARK    4  A    between atoms: C_10  and  C_11
REMARK                            x       y       z     vdW  Elec       q    Type
REMARK                         _______ _______ _______ _____ _____    ______ ____
ROOT
ATOM      1  N   UNL     1       5.692   3.563  16.835  0.00  0.00    +0.000 N 
ATOM      2  C   UNL     1       4.496   3.768  17.498  0.00  0.00    +0.000 A 
ATOM      3  C   UNL     1       3.210   3.446  17.033  0.00  0.00    +0.000 A 
ATOM      4  C   UNL     1       2.363   3.858  18.036  0.00  0.00    +0.000 A 
ATOM      5  N   UNL     1       3.163   4.398  19.006  0.00  0.00    +0.000 N 
ATOM      6  N   UNL     1       4.483   4.303  18.717  0.00  0.00    +0.000 NA
ATOM      7  H   UNL     1       6.455   3.356  17.475  0.00  0.00    +0.000 HD
ENDROOT
BRANCH   1   9
ATOM      8  C   UNL     1       5.873   4.064  14.176  0.00  0.00    +0.000 C 
ATOM      9  S   UNL     1       6.208   4.783  15.776  0.00  0.00    +0.000 S 
ATOM     10  O   UNL     1       7.636   4.964  15.916  0.00  0.00    +0.000 OA
ATOM     11  O   UNL     1       5.288   5.885  15.956  0.00  0.00    +0.000 OA
ENDBRANCH   1   9
BRANCH   5  12
ATOM     12  C   UNL     1       2.715   5.172  20.159  0.00  0.00    +0.000 C 
BRANCH  12  13
ATOM     13  C   UNL     1       2.241   6.557  19.799  0.00  0.00    +0.000 A 
ATOM     14  C   UNL     1       1.587   7.365  20.744  0.00  0.00    +0.000 A 
ATOM     15  C   UNL     1       1.206   8.669  20.423  0.00  0.00    +0.000 A 
ATOM     16  C   UNL     1       1.481   9.180  19.156  0.00  0.00    +0.000 A 
ATOM     17 BR   UNL     1       0.979  10.950  18.726  0.00  0.00    +0.000 Br
ATOM     18  C   UNL     1       2.132   8.395  18.207  0.00  0.00    +0.000 A 
ATOM     19  C   UNL     1       2.510   7.089  18.528  0.00  0.00    +0.000 A 
ENDBRANCH  12  13
ENDBRANCH   5  12
TORSDOF 3
ENDMDL
MODEL 2
REMARK VINA RESULT:      -6.8      1.188      1.924
REMARK  Name = 
REMARK  4 active torsions:
REMARK  status: ('A' for Active; 'I' for Inactive)
REMARK    1  A    between atoms: C_1  and  S_2
REMARK    2  A    between atoms: S_2  and  N_5
REMARK    3  A    between atoms: N_9  and  C_10
REMARK    4  A    between atoms: C_10  and  C_11
REMARK                            x       y       z     vdW  Elec       q    Type
REMARK                         _______ _______ _______ _____ _____    ______ ____
ROOT
ATOM      1  N   UNL     1       6.420   4.236  17.940  0.00  0.00    +0.000 N 
ATOM      2  C   UNL     1       5.113   4.061  18.357  0.00  0.00    +0.000 A 
ATOM      3  C   UNL     1       4.148   3.222  17.774  0.00  0.00    +0.000 A 
ATOM      4  C   UNL     1       3.016   3.414  18.532  0.00  0.00    +0.000 A 
ATOM      5  N   UNL     1       3.352   4.337  19.485  0.00  0.00    +0.000 N 
ATOM      6  N   UNL     1       4.654   4.706  19.427  0.00  0.00    +0.000 NA
ATOM      7  H   UNL     1       7.050   4.416  18.718  0.00  0.00    +0.000 HD
ENDROOT
BRANCH   1   9
ATOM      8  C   UNL     1       7.462   6.726  17.689  0.00  0.00    +0.000 C 
ATOM      9  S   UNL     1       6.701   5.411  16.751  0.00  0.00    +0.000 S 
ATOM     10  O   UNL     1       5.435   5.880  16.233  0.00  0.00    +0.000 OA
ATOM     11  O   UNL     1       7.714   4.862  15.876  0.00  0.00    +0.000 OA
ENDBRANCH   1   9
BRANCH   5  12
ATOM     12  C   UNL     1       2.428   5.029  20.377  0.00  0.00    +0.000 C 
BRANCH  12  13
ATOM     13  C   UNL     1       2.160   6.455  19.967  0.00  0.00    +0.000 A 
ATOM     14  C   UNL     1       2.431   6.893  18.661  0.00  0.00    +0.000 A 
ATOM     15  C   UNL     1       2.124   8.197  18.269  0.00  0.00    +0.000 A 
ATOM     16  C   UNL     1       1.537   9.074  19.180  0.00  0.00    +0.000 A 
ATOM     17 BR   UNL     1       1.107  10.835  18.647  0.00  0.00    +0.000 Br
ATOM     18  C   UNL     1       1.257   8.656  20.479  0.00  0.00    +0.000 A 
ATOM     19  C   UNL     1       1.568   7.351  20.871  0.00  0.00    +0.000 A 
ENDBRANCH  12  13
ENDBRANCH   5  12
TORSDOF 3
ENDMDL
MODEL 3
REMARK VINA RESULT:      -6.8      0.415      1.212
REMARK  Name = 
REMARK  4 active torsions:
REMARK  status: ('A' for Active; 'I' for Inactive)
REMARK    1  A    between atoms: C_1  and  S_2
REMARK    2  A    between atoms: S_2  and  N_5
REMARK    3  A    between atoms: N_9  and  C_10
REMARK    4  A    between atoms: C_10  and  C_11
REMARK                            x       y       z     vdW  Elec       q    Type
REMARK                         _______ _______ _______ _____ _____    ______ ____
ROOT
ATOM      1  N   UNL     1       6.080   4.080  17.086  0.00  0.00    +0.000 N 
ATOM      2  C   UNL     1       4.860   3.967  17.727  0.00  0.00    +0.000 A 
ATOM      3  C   UNL     1       3.763   3.191  17.320  0.00  0.00    +0.000 A 
ATOM      4  C   UNL     1       2.796   3.428  18.268  0.00  0.00    +0.000 A 
ATOM      5  N   UNL     1       3.346   4.316  19.153  0.00  0.00    +0.000 N 
ATOM      6  N   UNL     1       4.635   4.618  18.867  0.00  0.00    +0.000 NA
ATOM      7  H   UNL     1       6.848   4.213  17.741  0.00  0.00    +0.000 HD
ENDROOT
BRANCH   1   9
ATOM      8  C   UNL     1       5.919   4.310  14.389  0.00  0.00    +0.000 C 
ATOM      9  S   UNL     1       6.210   5.258  15.874  0.00  0.00    +0.000 S 
ATOM     10  O   UNL     1       7.564   5.766  15.844  0.00  0.00    +0.000 OA
ATOM     11  O   UNL     1       5.079   6.142  16.051  0.00  0.00    +0.000 OA
ENDBRANCH   1   9
BRANCH   5  12
ATOM     12  C   UNL     1       2.634   5.041  20.201  0.00  0.00    +0.000 C 
BRANCH  12  13
ATOM     13  C   UNL     1       2.297   6.460  19.820  0.00  0.00    +0.000 A 
ATOM     14  C   UNL     1       2.528   6.931  18.517  0.00  0.00    +0.000 A 
ATOM     15  C   UNL     1       2.158   8.227  18.153  0.00  0.00    +0.000 A 
ATOM     16  C   UNL     1       1.548   9.062  19.087  0.00  0.00    +0.000 A 
ATOM     17 BR   UNL     1       1.033  10.811  18.591  0.00  0.00    +0.000 Br
ATOM     18  C   UNL     1       1.308   8.611  20.383  0.00  0.00    +0.000 A 
ATOM     19  C   UNL     1       1.682   7.315  20.748  0.00  0.00    +0.000 A 
ENDBRANCH  12  13
ENDBRANCH   5  12
TORSDOF 3
ENDMDL
MODEL 4
REMARK VINA RESULT:      -6.7      1.110      1.152
REMARK  Name = 
REMARK  4 active torsions:
REMARK  status: ('A' for Active; 'I' for Inactive)
REMARK    1  A    between atoms: C_1  and  S_2
REMARK    2  A    between atoms: S_2  and  N_5
REMARK    3  A    between atoms: N_9  and  C_10
REMARK    4  A    between atoms: C_10  and  C_11
REMARK                            x       y       z     vdW  Elec       q    Type
REMARK                         _______ _______ _______ _____ _____    ______ ____
ROOT
ATOM      1  N   UNL     1       6.654   4.337  17.167  0.00  0.00    +0.000 N 
ATOM      2  C   UNL     1       5.380   4.177  17.681  0.00  0.00    +0.000 A 
ATOM      3  C   UNL     1       4.311   3.490  17.082  0.00  0.00    +0.000 A 
ATOM      4  C   UNL     1       3.267   3.632  17.966  0.00  0.00    +0.000 A 
ATOM      5  N   UNL     1       3.750   4.383  19.003  0.00  0.00    +0.000 N 
ATOM      6  N   UNL     1       5.064   4.683  18.871  0.00  0.00    +0.000 NA
ATOM      7  H   UNL     1       7.362   4.363  17.898  0.00  0.00    +0.000 HD
ENDROOT
BRANCH   1   9
ATOM      8  C   UNL     1       5.255   6.272  15.883  0.00  0.00    +0.000 C 
ATOM      9  S   UNL     1       6.912   5.656  16.135  0.00  0.00    +0.000 S 
ATOM     10  O   UNL     1       7.429   5.180  14.870  0.00  0.00    +0.000 OA
ATOM     11  O   UNL     1       7.626   6.643  16.915  0.00  0.00    +0.000 OA
ENDBRANCH   1   9
BRANCH   5  12
ATOM     12  C   UNL     1       2.959   4.988  20.070  0.00  0.00    +0.000 C 
BRANCH  12  13
ATOM     13  C   UNL     1       2.426   6.353  19.715  0.00  0.00    +0.000 A 
ATOM     14  C   UNL     1       1.794   7.154  20.681  0.00  0.00    +0.000 A 
ATOM     15  C   UNL     1       1.359   8.442  20.363  0.00  0.00    +0.000 A 
ATOM     16  C   UNL     1       1.557   8.943  19.078  0.00  0.00    +0.000 A 
ATOM     17 BR   UNL     1       0.981  10.691  18.651  0.00  0.00    +0.000 Br
ATOM     18  C   UNL     1       2.185   8.165  18.108  0.00  0.00    +0.000 A 
ATOM     19  C   UNL     1       2.618   6.875  18.426  0.00  0.00    +0.000 A 
ENDBRANCH  12  13
ENDBRANCH   5  12
TORSDOF 3
ENDMDL
MODEL 5
REMARK VINA RESULT:      -6.7      1.340      1.584
REMARK  Name = 
REMARK  4 active torsions:
REMARK  status: ('A' for Active; 'I' for Inactive)
REMARK    1  A    between atoms: C_1  and  S_2
REMARK    2  A    between atoms: S_2  and  N_5
REMARK    3  A    between atoms: N_9  and  C_10
REMARK    4  A    between atoms: C_10  and  C_11
REMARK                            x       y       z     vdW  Elec       q    Type
REMARK                         _______ _______ _______ _____ _____    ______ ____
ROOT
ATOM      1  N   UNL     1       6.303   3.913  18.181  0.00  0.00    +0.000 N 
ATOM      2  C   UNL     1       4.999   3.798  18.626  0.00  0.00    +0.000 A 
ATOM      3  C   UNL     1       4.013   2.930  18.129  0.00  0.00    +0.000 A 
ATOM      4  C   UNL     1       2.894   3.207  18.880  0.00  0.00    +0.000 A 
ATOM      5  N   UNL     1       3.258   4.202  19.747  0.00  0.00    +0.000 N 
ATOM      6  N   UNL     1       4.565   4.542  19.642  0.00  0.00    +0.000 NA
ATOM      7  H   UNL     1       6.947   4.147  18.934  0.00  0.00    +0.000 HD
ENDROOT
BRANCH   1   9
ATOM      8  C   UNL     1       6.995   6.496  17.736  0.00  0.00    +0.000 C 
ATOM      9  S   UNL     1       6.590   4.976  16.892  0.00  0.00    +0.000 S 
ATOM     10  O   UNL     1       5.364   5.168  16.149  0.00  0.00    +0.000 OA
ATOM     11  O   UNL     1       7.795   4.506  16.245  0.00  0.00    +0.000 OA
ENDBRANCH   1   9
BRANCH   5  12
ATOM     12  C   UNL     1       2.357   4.985  20.586  0.00  0.00    +0.000 C 
BRANCH  12  13
ATOM     13  C   UNL     1       2.065   6.355  20.029  0.00  0.00    +0.000 A 
ATOM     14  C   UNL     1       1.556   7.374  20.850  0.00  0.00    +0.000 A 
ATOM     15  C   UNL     1       1.345   8.658  20.344  0.00  0.00    +0.000 A 
ATOM     16  C   UNL     1       1.647   8.936  19.012  0.00  0.00    +0.000 A 
ATOM     17 BR   UNL     1       1.377  10.677  18.330  0.00  0.00    +0.000 Br
ATOM     18  C   UNL     1       2.157   7.939  18.183  0.00  0.00    +0.000 A 
ATOM     19  C   UNL     1       2.364   6.653  18.690  0.00  0.00    +0.000 A 
ENDBRANCH  12  13
ENDBRANCH   5  12
TORSDOF 3
ENDMDL
MODEL 6
REMARK VINA RESULT:      -6.6      1.071      1.713
REMARK  Name = 
REMARK  4 active torsions:
REMARK  status: ('A' for Active; 'I' for Inactive)
REMARK    1  A    between atoms: C_1  and  S_2
REMARK    2  A    between atoms: S_2  and  N_5
REMARK    3  A    between atoms: N_9  and  C_10
REMARK    4  A    between atoms: C_10  and  C_11
REMARK                            x       y       z     vdW  Elec       q    Type
REMARK                         _______ _______ _______ _____ _____    ______ ____
ROOT
ATOM      1  N   UNL     1       4.991   3.198  17.161  0.00  0.00    +0.000 N 
ATOM      2  C   UNL     1       3.842   3.640  17.792  0.00  0.00    +0.000 A 
ATOM      3  C   UNL     1       2.531   3.581  17.292  0.00  0.00    +0.000 A 
ATOM      4  C   UNL     1       1.757   4.156  18.272  0.00  0.00    +0.000 A 
ATOM      5  N   UNL     1       2.622   4.527  19.266  0.00  0.00    +0.000 N 
ATOM      6  N   UNL     1       3.903   4.168  19.012  0.00  0.00    +0.000 NA
ATOM      7  H   UNL     1       5.679   2.843  17.821  0.00  0.00    +0.000 HD
ENDROOT
BRANCH   1   9
ATOM      8  C   UNL     1       7.296   4.615  16.989  0.00  0.00    +0.000 C 
ATOM      9  S   UNL     1       5.769   4.288  16.122  0.00  0.00    +0.000 S 
ATOM     10  O   UNL     1       5.003   5.513  16.052  0.00  0.00    +0.000 OA
ATOM     11  O   UNL     1       6.101   3.539  14.930  0.00  0.00    +0.000 OA
ENDBRANCH   1   9
BRANCH   5  12
ATOM     12  C   UNL     1       2.306   5.377  20.410  0.00  0.00    +0.000 C 
BRANCH  12  13
ATOM     13  C   UNL     1       2.019   6.807  20.028  0.00  0.00    +0.000 A 
ATOM     14  C   UNL     1       2.399   7.308  18.772  0.00  0.00    +0.000 A 
ATOM     15  C   UNL     1       2.076   8.614  18.399  0.00  0.00    +0.000 A 
ATOM     16  C   UNL     1       1.365   9.429  19.278  0.00  0.00    +0.000 A 
ATOM     17 BR   UNL     1       0.915  11.193  18.769  0.00  0.00    +0.000 Br
ATOM     18  C   UNL     1       0.977   8.948  20.526  0.00  0.00    +0.000 A 
ATOM     19  C   UNL     1       1.303   7.642  20.899  0.00  0.00    +0.000 A 
ENDBRANCH  12  13
ENDBRANCH   5  12
TORSDOF 3
ENDMDL
MODEL 7
REMARK VINA RESULT:      -6.6      1.316      1.612
REMARK  Name = 
REMARK  4 active torsions:
REMARK  status: ('A' for Active; 'I' for Inactive)
REMARK    1  A    between atoms: C_1  and  S_2
REMARK    2  A    between atoms: S_2  and  N_5
REMARK    3  A    between atoms: N_9  and  C_10
REMARK    4  A    between atoms: C_10  and  C_11
REMARK                            x       y       z     vdW  Elec       q    Type
REMARK                         _______ _______ _______ _____ _____    ______ ____
ROOT
ATOM      1  N   UNL     1       6.272   4.690  17.335  0.00  0.00    +0.000 N 
ATOM      2  C   UNL     1       4.985   4.668  17.841  0.00  0.00    +0.000 A 
ATOM      3  C   UNL     1       3.839   4.159  17.207  0.00  0.00    +0.000 A 
ATOM      4  C   UNL     1       2.818   4.384  18.100  0.00  0.00    +0.000 A 
ATOM      5  N   UNL     1       3.389   5.007  19.177  0.00  0.00    +0.000 N 
ATOM      6  N   UNL     1       4.731   5.142  19.059  0.00  0.00    +0.000 NA
ATOM      7  H   UNL     1       6.973   4.585  18.064  0.00  0.00    +0.000 HD
ENDROOT
BRANCH   1   9
ATOM      8  C   UNL     1       7.562   7.066  17.543  0.00  0.00    +0.000 C 
ATOM      9  S   UNL     1       6.702   6.022  16.377  0.00  0.00    +0.000 S 
ATOM     10  O   UNL     1       5.504   6.703  15.938  0.00  0.00    +0.000 OA
ATOM     11  O   UNL     1       7.681   5.534  15.430  0.00  0.00    +0.000 OA
ENDBRANCH   1   9
BRANCH   5  12
ATOM     12  C   UNL     1       2.676   5.648  20.278  0.00  0.00    +0.000 C 
BRANCH  12  13
ATOM     13  C   UNL     1       2.107   6.996  19.915  0.00  0.00    +0.000 A 
ATOM     14  C   UNL     1       1.393   7.755  20.856  0.00  0.00    +0.000 A 
ATOM     15  C   UNL     1       0.922   9.029  20.533  0.00  0.00    +0.000 A 
ATOM     16  C   UNL     1       1.165   9.558  19.267  0.00  0.00    +0.000 A 
ATOM     17 BR   UNL     1       0.541  11.288  18.834  0.00  0.00    +0.000 Br
ATOM     18  C   UNL     1       1.875   8.821  18.321  0.00  0.00    +0.000 A 
ATOM     19  C   UNL     1       2.344   7.545  18.645  0.00  0.00    +0.000 A 
ENDBRANCH  12  13
ENDBRANCH   5  12
TORSDOF 3
ENDMDL
MODEL 8
REMARK VINA RESULT:      -6.5      1.051      1.259
REMARK  Name = 
REMARK  4 active torsions:
REMARK  status: ('A' for Active; 'I' for Inactive)
REMARK    1  A    between atoms: C_1  and  S_2
REMARK    2  A    between atoms: S_2  and  N_5
REMARK    3  A    between atoms: N_9  and  C_10
REMARK    4  A    between atoms: C_10  and  C_11
REMARK                            x       y       z     vdW  Elec       q    Type
REMARK                         _______ _______ _______ _____ _____    ______ ____
ROOT
ATOM      1  N   UNL     1       5.093   3.233  17.210  0.00  0.00    +0.000 N 
ATOM      2  C   UNL     1       3.913   3.611  17.823  0.00  0.00    +0.000 A 
ATOM      3  C   UNL     1       2.612   3.457  17.314  0.00  0.00    +0.000 A 
ATOM      4  C   UNL     1       1.795   4.000  18.277  0.00  0.00    +0.000 A 
ATOM      5  N   UNL     1       2.625   4.447  19.269  0.00  0.00    +0.000 N 
ATOM      6  N   UNL     1       3.929   4.167  19.032  0.00  0.00    +0.000 NA
ATOM      7  H   UNL     1       5.798   2.937  17.882  0.00  0.00    +0.000 HD
ENDROOT
BRANCH   1   9
ATOM      8  C   UNL     1       7.373   4.678  16.950  0.00  0.00    +0.000 C 
ATOM      9  S   UNL     1       5.808   4.351  16.154  0.00  0.00    +0.000 S 
ATOM     10  O   UNL     1       5.027   5.568  16.146  0.00  0.00    +0.000 OA
ATOM     11  O   UNL     1       6.087   3.627  14.933  0.00  0.00    +0.000 OA
ENDBRANCH   1   9
BRANCH   5  12
ATOM     12  C   UNL     1       2.245   5.297  20.393  0.00  0.00    +0.000 C 
BRANCH  12  13
ATOM     13  C   UNL     1       1.935   6.716  19.988  0.00  0.00    +0.000 A 
ATOM     14  C   UNL     1       1.280   7.591  20.869  0.00  0.00    +0.000 A 
ATOM     15  C   UNL     1       1.052   8.921  20.512  0.00  0.00    +0.000 A 
ATOM     16  C   UNL     1       1.482   9.390  19.272  0.00  0.00    +0.000 A 
ATOM     17 BR   UNL     1       1.186  11.194  18.794  0.00  0.00    +0.000 Br
ATOM     18  C   UNL     1       2.137   8.537  18.386  0.00  0.00    +0.000 A 
ATOM     19  C   UNL     1       2.362   7.205  18.743  0.00  0.00    +0.000 A 
ENDBRANCH  12  13
ENDBRANCH   5  12
TORSDOF 3
ENDMDL
MODEL 9
REMARK VINA RESULT:      -6.5      4.440      6.376
REMARK  Name = 
REMARK  4 active torsions:
REMARK  status: ('A' for Active; 'I' for Inactive)
REMARK    1  A    between atoms: C_1  and  S_2
REMARK    2  A    between atoms: S_2  and  N_5
REMARK    3  A    between atoms: N_9  and  C_10
REMARK    4  A    between atoms: C_10  and  C_11
REMARK                            x       y       z     vdW  Elec       q    Type
REMARK                         _______ _______ _______ _____ _____    ______ ____
ROOT
ATOM      1  N   UNL     1       2.251   4.747  20.893  0.00  0.00    +0.000 N 
ATOM      2  C   UNL     1       2.965   5.267  19.828  0.00  0.00    +0.000 A 
ATOM      3  C   UNL     1       2.442   5.937  18.710  0.00  0.00    +0.000 A 
ATOM      4  C   UNL     1       3.540   6.236  17.938  0.00  0.00    +0.000 A 
ATOM      5  N   UNL     1       4.621   5.732  18.608  0.00  0.00    +0.000 N 
ATOM      6  N   UNL     1       4.293   5.180  19.801  0.00  0.00    +0.000 NA
ATOM      7  H   UNL     1       2.770   4.802  21.767  0.00  0.00    +0.000 HD
ENDROOT
BRANCH   1   9
ATOM      8  C   UNL     1       3.002   2.344  19.887  0.00  0.00    +0.000 C 
ATOM      9  S   UNL     1       1.659   3.167  20.728  0.00  0.00    +0.000 S 
ATOM     10  O   UNL     1       0.503   3.178  19.859  0.00  0.00    +0.000 OA
ATOM     11  O   UNL     1       1.589   2.624  22.067  0.00  0.00    +0.000 OA
ENDBRANCH   1   9
BRANCH   5  12
ATOM     12  C   UNL     1       5.976   5.600  18.082  0.00  0.00    +0.000 C 
BRANCH  12  13
ATOM     13  C   UNL     1       6.016   5.099  16.660  0.00  0.00    +0.000 A 
ATOM     14  C   UNL     1       7.005   5.543  15.766  0.00  0.00    +0.000 A 
ATOM     15  C   UNL     1       7.075   5.030  14.470  0.00  0.00    +0.000 A 
ATOM     16  C   UNL     1       6.160   4.063  14.058  0.00  0.00    +0.000 A 
ATOM     17 BR   UNL     1       6.263   3.356  12.308  0.00  0.00    +0.000 Br
ATOM     18  C   UNL     1       5.175   3.608  14.931  0.00  0.00    +0.000 A 
ATOM     19  C   UNL     1       5.104   4.125  16.228  0.00  0.00    +0.000 A 
ENDBRANCH  12  13
ENDBRANCH   5  12
TORSDOF 3
ENDMDL
