MODEL 1
REMARK VINA RESULT:      -6.9      0.000      0.000
REMARK  Name = 
REMARK  9 active torsions:
REMARK  status: ('A' for Active; 'I' for Inactive)
REMARK    1  A    between atoms: C_1  and  N_2
REMARK    2  A    between atoms: N_2  and  C_3
REMARK    3  A    between atoms: N_2  and  C_14
REMARK    4  A    between atoms: C_3  and  C_4
REMARK    5  A    between atoms: C_4  and  C_5
REMARK    6  A    between atoms: C_5  and  N_6
REMARK    7  A    between atoms: C_14  and  C_15
REMARK    8  A    between atoms: C_15  and  C_16
REMARK    9  A    between atoms: C_16  and  N_17
REMARK                            x       y       z     vdW  Elec       q    Type
REMARK                         _______ _______ _______ _____ _____    ______ ____
ROOT
ATOM      1  C   UNL     1       3.288   3.239  20.716  0.00  0.00    +0.000 C 
ATOM      2  N   UNL     1       2.464   3.010  19.533  0.00  0.00    +0.000 NA
ENDROOT
BRANCH   2   3
ATOM      3  C   UNL     1       1.500   4.145  19.399  0.00  0.00    +0.000 C 
BRANCH   3   4
ATOM      4  C   UNL     1       1.683   5.319  20.371  0.00  0.00    +0.000 C 
BRANCH   4   5
ATOM      5  C   UNL     1       2.501   6.501  19.827  0.00  0.00    +0.000 C 
BRANCH   5   6
ATOM      6  N   UNL     1       1.810   7.763  20.089  0.00  0.00    +0.000 N 
ATOM      7  C   UNL     1       1.094   7.993  21.246  0.00  0.00    +0.000 A 
ATOM      8  C   UNL     1       0.491   9.217  21.079  0.00  0.00    +0.000 A 
ATOM      9  N   UNL     1       0.835   9.762  19.872  0.00  0.00    +0.000 NA
ATOM     10  C   UNL     1       1.628   8.873  19.296  0.00  0.00    +0.000 A 
ATOM     11  N   UNL     1       2.188   9.076  17.978  0.00  0.00    +0.000 N 
ATOM     12  O   UNL     1       2.925   8.196  17.514  0.00  0.00    +0.000 OA
ATOM     13  O   UNL     1       1.881  10.126  17.390  0.00  0.00    +0.000 OA
ENDBRANCH   5   6
ENDBRANCH   4   5
ENDBRANCH   3   4
ENDBRANCH   2   3
BRANCH   2  14
ATOM     14  C   UNL     1       3.261   2.631  18.327  0.00  0.00    +0.000 C 
BRANCH  14  15
ATOM     15  C   UNL     1       3.158   3.600  17.101  0.00  0.00    +0.000 C 
BRANCH  15  16
ATOM     16  C   UNL     1       4.153   4.797  17.029  0.00  0.00    +0.000 C 
BRANCH  16  17
ATOM     17  N   UNL     1       5.423   4.625  16.337  0.00  0.00    +0.000 N 
ATOM     18  C   UNL     1       5.557   4.742  14.963  0.00  0.00    +0.000 A 
ATOM     19  C   UNL     1       6.907   4.714  14.700  0.00  0.00    +0.000 A 
ATOM     20  N   UNL     1       7.616   4.613  15.863  0.00  0.00    +0.000 NA
ATOM     21  C   UNL     1       6.712   4.584  16.826  0.00  0.00    +0.000 A 
ATOM     22  N   UNL     1       7.090   4.550  18.216  0.00  0.00    +0.000 N 
ATOM     23  O   UNL     1       6.189   4.611  19.062  0.00  0.00    +0.000 OA
ATOM     24  O   UNL     1       8.299   4.462  18.477  0.00  0.00    +0.000 OA
ENDBRANCH  16  17
ENDBRANCH  15  16
ENDBRANCH  14  15
ENDBRANCH   2  14
TORSDOF 8
ENDMDL
MODEL 2
REMARK VINA RESULT:      -6.6      1.648      6.356
REMARK  Name = 
REMARK  9 active torsions:
REMARK  status: ('A' for Active; 'I' for Inactive)
REMARK    1  A    between atoms: C_1  and  N_2
REMARK    2  A    between atoms: N_2  and  C_3
REMARK    3  A    between atoms: N_2  and  C_14
REMARK    4  A    between atoms: C_3  and  C_4
REMARK    5  A    between atoms: C_4  and  C_5
REMARK    6  A    between atoms: C_5  and  N_6
REMARK    7  A    between atoms: C_14  and  C_15
REMARK    8  A    between atoms: C_15  and  C_16
REMARK    9  A    between atoms: C_16  and  N_17
REMARK                            x       y       z     vdW  Elec       q    Type
REMARK                         _______ _______ _______ _____ _____    ______ ____
ROOT
ATOM      1  C   UNL     1       1.901   2.146  18.515  0.00  0.00    +0.000 C 
ATOM      2  N   UNL     1       2.447   2.968  19.591  0.00  0.00    +0.000 NA
ENDROOT
BRANCH   2   3
ATOM      3  C   UNL     1       3.870   3.290  19.266  0.00  0.00    +0.000 C 
BRANCH   3   4
ATOM      4  C   UNL     1       4.246   3.315  17.777  0.00  0.00    +0.000 C 
BRANCH   4   5
ATOM      5  C   UNL     1       4.267   4.709  17.129  0.00  0.00    +0.000 C 
BRANCH   5   6
ATOM      6  N   UNL     1       5.601   5.300  17.235  0.00  0.00    +0.000 N 
ATOM      7  C   UNL     1       6.060   5.900  18.390  0.00  0.00    +0.000 A 
ATOM      8  C   UNL     1       7.283   6.442  18.073  0.00  0.00    +0.000 A 
ATOM      9  N   UNL     1       7.606   6.170  16.771  0.00  0.00    +0.000 NA
ATOM     10  C   UNL     1       6.584   5.482  16.288  0.00  0.00    +0.000 A 
ATOM     11  N   UNL     1       6.537   5.026  14.917  0.00  0.00    +0.000 N 
ATOM     12  O   UNL     1       5.545   4.384  14.548  0.00  0.00    +0.000 OA
ATOM     13  O   UNL     1       7.502   5.319  14.192  0.00  0.00    +0.000 OA
ENDBRANCH   5   6
ENDBRANCH   4   5
ENDBRANCH   3   4
ENDBRANCH   2   3
BRANCH   2  14
ATOM     14  C   UNL     1       1.552   4.100  19.979  0.00  0.00    +0.000 C 
BRANCH  14  15
ATOM     15  C   UNL     1       2.259   5.369  20.563  0.00  0.00    +0.000 C 
BRANCH  15  16
ATOM     16  C   UNL     1       2.407   6.615  19.640  0.00  0.00    +0.000 C 
BRANCH  16  17
ATOM     17  N   UNL     1       1.664   7.827  19.957  0.00  0.00    +0.000 N 
ATOM     18  C   UNL     1       1.085   8.057  21.195  0.00  0.00    +0.000 A 
ATOM     19  C   UNL     1       0.652   9.363  21.183  0.00  0.00    +0.000 A 
ATOM     20  N   UNL     1       0.965   9.959  19.995  0.00  0.00    +0.000 NA
ATOM     21  C   UNL     1       1.587   9.031  19.289  0.00  0.00    +0.000 A 
ATOM     22  N   UNL     1       2.135   9.314  17.986  0.00  0.00    +0.000 N 
ATOM     23  O   UNL     1       2.778   8.420  17.423  0.00  0.00    +0.000 OA
ATOM     24  O   UNL     1       1.927  10.441  17.512  0.00  0.00    +0.000 OA
ENDBRANCH  16  17
ENDBRANCH  15  16
ENDBRANCH  14  15
ENDBRANCH   2  14
TORSDOF 8
ENDMDL
MODEL 3
REMARK VINA RESULT:      -6.6      2.084      6.368
REMARK  Name = 
REMARK  9 active torsions:
REMARK  status: ('A' for Active; 'I' for Inactive)
REMARK    1  A    between atoms: C_1  and  N_2
REMARK    2  A    between atoms: N_2  and  C_3
REMARK    3  A    between atoms: N_2  and  C_14
REMARK    4  A    between atoms: C_3  and  C_4
REMARK    5  A    between atoms: C_4  and  C_5
REMARK    6  A    between atoms: C_5  and  N_6
REMARK    7  A    between atoms: C_14  and  C_15
REMARK    8  A    between atoms: C_15  and  C_16
REMARK    9  A    between atoms: C_16  and  N_17
REMARK                            x       y       z     vdW  Elec       q    Type
REMARK                         _______ _______ _______ _____ _____    ______ ____
ROOT
ATOM      1  C   UNL     1       1.422   2.660  18.233  0.00  0.00    +0.000 C 
ATOM      2  N   UNL     1       2.198   3.053  19.407  0.00  0.00    +0.000 NA
ENDROOT
BRANCH   2   3
ATOM      3  C   UNL     1       3.561   3.467  18.956  0.00  0.00    +0.000 C 
BRANCH   3   4
ATOM      4  C   UNL     1       3.672   4.036  17.535  0.00  0.00    +0.000 C 
BRANCH   4   5
ATOM      5  C   UNL     1       4.975   3.700  16.793  0.00  0.00    +0.000 C 
BRANCH   5   6
ATOM      6  N   UNL     1       5.923   4.809  16.901  0.00  0.00    +0.000 N 
ATOM      7  C   UNL     1       6.004   5.612  18.020  0.00  0.00    +0.000 A 
ATOM      8  C   UNL     1       6.902   6.605  17.707  0.00  0.00    +0.000 A 
ATOM      9  N   UNL     1       7.398   6.424  16.445  0.00  0.00    +0.000 NA
ATOM     10  C   UNL     1       6.799   5.340  15.981  0.00  0.00    +0.000 A 
ATOM     11  N   UNL     1       7.044   4.830  14.650  0.00  0.00    +0.000 N 
ATOM     12  O   UNL     1       6.445   3.806  14.297  0.00  0.00    +0.000 OA
ATOM     13  O   UNL     1       7.842   5.466  13.941  0.00  0.00    +0.000 OA
ENDBRANCH   5   6
ENDBRANCH   4   5
ENDBRANCH   3   4
ENDBRANCH   2   3
BRANCH   2  14
ATOM     14  C   UNL     1       1.458   3.976  20.318  0.00  0.00    +0.000 C 
BRANCH  14  15
ATOM     15  C   UNL     1       2.238   5.248  20.793  0.00  0.00    +0.000 C 
BRANCH  15  16
ATOM     16  C   UNL     1       1.510   6.623  20.722  0.00  0.00    +0.000 C 
BRANCH  16  17
ATOM     17  N   UNL     1       1.897   7.580  19.694  0.00  0.00    +0.000 N 
ATOM     18  C   UNL     1       2.655   7.235  18.586  0.00  0.00    +0.000 A 
ATOM     19  C   UNL     1       2.649   8.332  17.756  0.00  0.00    +0.000 A 
ATOM     20  N   UNL     1       1.893   9.333  18.294  0.00  0.00    +0.000 NA
ATOM     21  C   UNL     1       1.437   8.854  19.438  0.00  0.00    +0.000 A 
ATOM     22  N   UNL     1       0.533   9.612  20.267  0.00  0.00    +0.000 N 
ATOM     23  O   UNL     1       0.082   9.064  21.280  0.00  0.00    +0.000 OA
ATOM     24  O   UNL     1       0.264  10.768  19.910  0.00  0.00    +0.000 OA
ENDBRANCH  16  17
ENDBRANCH  15  16
ENDBRANCH  14  15
ENDBRANCH   2  14
TORSDOF 8
ENDMDL
MODEL 4
REMARK VINA RESULT:      -6.5      2.905      4.836
REMARK  Name = 
REMARK  9 active torsions:
REMARK  status: ('A' for Active; 'I' for Inactive)
REMARK    1  A    between atoms: C_1  and  N_2
REMARK    2  A    between atoms: N_2  and  C_3
REMARK    3  A    between atoms: N_2  and  C_14
REMARK    4  A    between atoms: C_3  and  C_4
REMARK    5  A    between atoms: C_4  and  C_5
REMARK    6  A    between atoms: C_5  and  N_6
REMARK    7  A    between atoms: C_14  and  C_15
REMARK    8  A    between atoms: C_15  and  C_16
REMARK    9  A    between atoms: C_16  and  N_17
REMARK                            x       y       z     vdW  Elec       q    Type
REMARK                         _______ _______ _______ _____ _____    ______ ____
ROOT
ATOM      1  C   UNL     1       4.607   6.619  17.274  0.00  0.00    +0.000 C 
ATOM      2  N   UNL     1       3.465   7.015  18.093  0.00  0.00    +0.000 NA
ENDROOT
BRANCH   2   3
ATOM      3  C   UNL     1       2.632   7.977  17.311  0.00  0.00    +0.000 C 
BRANCH   3   4
ATOM      4  C   UNL     1       2.290   9.307  17.999  0.00  0.00    +0.000 C 
BRANCH   4   5
ATOM      5  C   UNL     1       1.057   9.273  18.917  0.00  0.00    +0.000 C 
BRANCH   5   6
ATOM      6  N   UNL     1       1.011  10.474  19.752  0.00  0.00    +0.000 N 
ATOM      7  C   UNL     1       1.250  11.738  19.251  0.00  0.00    +0.000 A 
ATOM      8  C   UNL     1       1.246  12.580  20.337  0.00  0.00    +0.000 A 
ATOM      9  N   UNL     1       0.984  11.883  21.485  0.00  0.00    +0.000 NA
ATOM     10  C   UNL     1       0.845  10.622  21.110  0.00  0.00    +0.000 A 
ATOM     11  N   UNL     1       0.581   9.558  22.054  0.00  0.00    +0.000 N 
ATOM     12  O   UNL     1       0.460   8.406  21.617  0.00  0.00    +0.000 OA
ATOM     13  O   UNL     1       0.501   9.875  23.252  0.00  0.00    +0.000 OA
ENDBRANCH   5   6
ENDBRANCH   4   5
ENDBRANCH   3   4
ENDBRANCH   2   3
BRANCH   2  14
ATOM     14  C   UNL     1       2.771   5.856  18.733  0.00  0.00    +0.000 C 
BRANCH  14  15
ATOM     15  C   UNL     1       2.318   4.708  17.770  0.00  0.00    +0.000 C 
BRANCH  15  16
ATOM     16  C   UNL     1       1.918   3.340  18.400  0.00  0.00    +0.000 C 
BRANCH  16  17
ATOM     17  N   UNL     1       2.033   3.160  19.840  0.00  0.00    +0.000 N 
ATOM     18  C   UNL     1       0.953   3.260  20.703  0.00  0.00    +0.000 A 
ATOM     19  C   UNL     1       1.400   2.839  21.934  0.00  0.00    +0.000 A 
ATOM     20  N   UNL     1       2.709   2.456  21.861  0.00  0.00    +0.000 NA
ATOM     21  C   UNL     1       3.058   2.635  20.599  0.00  0.00    +0.000 A 
ATOM     22  N   UNL     1       4.367   2.270  20.118  0.00  0.00    +0.000 N 
ATOM     23  O   UNL     1       4.591   2.388  18.908  0.00  0.00    +0.000 OA
ATOM     24  O   UNL     1       5.187   1.859  20.952  0.00  0.00    +0.000 OA
ENDBRANCH  16  17
ENDBRANCH  15  16
ENDBRANCH  14  15
ENDBRANCH   2  14
TORSDOF 8
ENDMDL
MODEL 5
REMARK VINA RESULT:      -6.4      2.798      7.267
REMARK  Name = 
REMARK  9 active torsions:
REMARK  status: ('A' for Active; 'I' for Inactive)
REMARK    1  A    between atoms: C_1  and  N_2
REMARK    2  A    between atoms: N_2  and  C_3
REMARK    3  A    between atoms: N_2  and  C_14
REMARK    4  A    between atoms: C_3  and  C_4
REMARK    5  A    between atoms: C_4  and  C_5
REMARK    6  A    between atoms: C_5  and  N_6
REMARK    7  A    between atoms: C_14  and  C_15
REMARK    8  A    between atoms: C_15  and  C_16
REMARK    9  A    between atoms: C_16  and  N_17
REMARK                            x       y       z     vdW  Elec       q    Type
REMARK                         _______ _______ _______ _____ _____    ______ ____
ROOT
ATOM      1  C   UNL     1       4.662   5.328  17.999  0.00  0.00    +0.000 C 
ATOM      2  N   UNL     1       3.430   6.038  17.671  0.00  0.00    +0.000 NA
ENDROOT
BRANCH   2   3
ATOM      3  C   UNL     1       2.300   5.392  18.406  0.00  0.00    +0.000 C 
BRANCH   3   4
ATOM      4  C   UNL     1       1.680   4.147  17.756  0.00  0.00    +0.000 C 
BRANCH   4   5
ATOM      5  C   UNL     1       2.262   2.803  18.223  0.00  0.00    +0.000 C 
BRANCH   5   6
ATOM      6  N   UNL     1       2.176   2.690  19.679  0.00  0.00    +0.000 N 
ATOM      7  C   UNL     1       1.027   2.988  20.382  0.00  0.00    +0.000 A 
ATOM      8  C   UNL     1       1.362   2.889  21.711  0.00  0.00    +0.000 A 
ATOM      9  N   UNL     1       2.669   2.510  21.850  0.00  0.00    +0.000 NA
ATOM     10  C   UNL     1       3.138   2.394  20.618  0.00  0.00    +0.000 A 
ATOM     11  N   UNL     1       4.510   2.029  20.343  0.00  0.00    +0.000 N 
ATOM     12  O   UNL     1       4.865   1.938  19.161  0.00  0.00    +0.000 OA
ATOM     13  O   UNL     1       5.249   1.838  21.322  0.00  0.00    +0.000 OA
ENDBRANCH   5   6
ENDBRANCH   4   5
ENDBRANCH   3   4
ENDBRANCH   2   3
BRANCH   2  14
ATOM     14  C   UNL     1       3.562   7.523  17.770  0.00  0.00    +0.000 C 
BRANCH  14  15
ATOM     15  C   UNL     1       2.226   8.326  17.911  0.00  0.00    +0.000 C 
BRANCH  15  16
ATOM     16  C   UNL     1       1.699   8.624  19.347  0.00  0.00    +0.000 C 
BRANCH  16  17
ATOM     17  N   UNL     1       0.718   9.683  19.539  0.00  0.00    +0.000 N 
ATOM     18  C   UNL     1      -0.071  10.178  18.513  0.00  0.00    +0.000 A 
ATOM     19  C   UNL     1      -0.996  11.009  19.102  0.00  0.00    +0.000 A 
ATOM     20  N   UNL     1      -0.827  11.026  20.457  0.00  0.00    +0.000 NA
ATOM     21  C   UNL     1       0.185  10.212  20.696  0.00  0.00    +0.000 A 
ATOM     22  N   UNL     1       0.618   9.918  22.039  0.00  0.00    +0.000 N 
ATOM     23  O   UNL     1       1.516   9.081  22.187  0.00  0.00    +0.000 OA
ATOM     24  O   UNL     1       0.059  10.525  22.964  0.00  0.00    +0.000 OA
ENDBRANCH  16  17
ENDBRANCH  15  16
ENDBRANCH  14  15
ENDBRANCH   2  14
TORSDOF 8
ENDMDL
MODEL 6
REMARK VINA RESULT:      -6.4      2.076      8.130
REMARK  Name = 
REMARK  9 active torsions:
REMARK  status: ('A' for Active; 'I' for Inactive)
REMARK    1  A    between atoms: C_1  and  N_2
REMARK    2  A    between atoms: N_2  and  C_3
REMARK    3  A    between atoms: N_2  and  C_14
REMARK    4  A    between atoms: C_3  and  C_4
REMARK    5  A    between atoms: C_4  and  C_5
REMARK    6  A    between atoms: C_5  and  N_6
REMARK    7  A    between atoms: C_14  and  C_15
REMARK    8  A    between atoms: C_15  and  C_16
REMARK    9  A    between atoms: C_16  and  N_17
REMARK                            x       y       z     vdW  Elec       q    Type
REMARK                         _______ _______ _______ _____ _____    ______ ____
ROOT
ATOM      1  C   UNL     1       2.312   6.886  19.681  0.00  0.00    +0.000 C 
ATOM      2  N   UNL     1       2.897   7.634  18.572  0.00  0.00    +0.000 NA
ENDROOT
BRANCH   2   3
ATOM      3  C   UNL     1       3.691   6.690  17.730  0.00  0.00    +0.000 C 
BRANCH   3   4
ATOM      4  C   UNL     1       3.162   5.252  17.623  0.00  0.00    +0.000 C 
BRANCH   4   5
ATOM      5  C   UNL     1       4.184   4.150  17.946  0.00  0.00    +0.000 C 
BRANCH   5   6
ATOM      6  N   UNL     1       5.419   4.365  17.192  0.00  0.00    +0.000 N 
ATOM      7  C   UNL     1       5.521   4.100  15.841  0.00  0.00    +0.000 A 
ATOM      8  C   UNL     1       6.843   4.297  15.517  0.00  0.00    +0.000 A 
ATOM      9  N   UNL     1       7.551   4.703  16.615  0.00  0.00    +0.000 NA
ATOM     10  C   UNL     1       6.677   4.739  17.608  0.00  0.00    +0.000 A 
ATOM     11  N   UNL     1       7.051   5.103  18.956  0.00  0.00    +0.000 N 
ATOM     12  O   UNL     1       6.169   5.115  19.825  0.00  0.00    +0.000 OA
ATOM     13  O   UNL     1       8.247   5.373  19.156  0.00  0.00    +0.000 OA
ENDBRANCH   5   6
ENDBRANCH   4   5
ENDBRANCH   3   4
ENDBRANCH   2   3
BRANCH   2  14
ATOM     14  C   UNL     1       1.917   8.524  17.881  0.00  0.00    +0.000 C 
BRANCH  14  15
ATOM     15  C   UNL     1       1.534   9.843  18.632  0.00  0.00    +0.000 C 
BRANCH  15  16
ATOM     16  C   UNL     1       0.091   9.967  19.205  0.00  0.00    +0.000 C 
BRANCH  16  17
ATOM     17  N   UNL     1      -0.098  10.032  20.648  0.00  0.00    +0.000 N 
ATOM     18  C   UNL     1      -0.198   8.906  21.449  0.00  0.00    +0.000 A 
ATOM     19  C   UNL     1      -0.169   9.352  22.750  0.00  0.00    +0.000 A 
ATOM     20  N   UNL     1      -0.027  10.709  22.786  0.00  0.00    +0.000 NA
ATOM     21  C   UNL     1       0.036  11.090  21.522  0.00  0.00    +0.000 A 
ATOM     22  N   UNL     1       0.257  12.467  21.158  0.00  0.00    +0.000 N 
ATOM     23  O   UNL     1       0.389  12.733  19.958  0.00  0.00    +0.000 OA
ATOM     24  O   UNL     1       0.302  13.300  22.076  0.00  0.00    +0.000 OA
ENDBRANCH  16  17
ENDBRANCH  15  16
ENDBRANCH  14  15
ENDBRANCH   2  14
TORSDOF 8
ENDMDL
MODEL 7
REMARK VINA RESULT:      -6.4      2.665      3.737
REMARK  Name = 
REMARK  9 active torsions:
REMARK  status: ('A' for Active; 'I' for Inactive)
REMARK    1  A    between atoms: C_1  and  N_2
REMARK    2  A    between atoms: N_2  and  C_3
REMARK    3  A    between atoms: N_2  and  C_14
REMARK    4  A    between atoms: C_3  and  C_4
REMARK    5  A    between atoms: C_4  and  C_5
REMARK    6  A    between atoms: C_5  and  N_6
REMARK    7  A    between atoms: C_14  and  C_15
REMARK    8  A    between atoms: C_15  and  C_16
REMARK    9  A    between atoms: C_16  and  N_17
REMARK                            x       y       z     vdW  Elec       q    Type
REMARK                         _______ _______ _______ _____ _____    ______ ____
ROOT
ATOM      1  C   UNL     1       3.818   7.523  17.418  0.00  0.00    +0.000 C 
ATOM      2  N   UNL     1       3.046   6.905  18.492  0.00  0.00    +0.000 NA
ENDROOT
BRANCH   2   3
ATOM      3  C   UNL     1       2.076   7.913  19.018  0.00  0.00    +0.000 C 
BRANCH   3   4
ATOM      4  C   UNL     1       1.699   9.063  18.074  0.00  0.00    +0.000 C 
BRANCH   4   5
ATOM      5  C   UNL     1       0.477   9.891  18.503  0.00  0.00    +0.000 C 
BRANCH   5   6
ATOM      6  N   UNL     1       0.886  10.982  19.388  0.00  0.00    +0.000 N 
ATOM      7  C   UNL     1       1.557  12.098  18.932  0.00  0.00    +0.000 A 
ATOM      8  C   UNL     1       1.881  12.827  20.052  0.00  0.00    +0.000 A 
ATOM      9  N   UNL     1       1.407  12.212  21.178  0.00  0.00    +0.000 NA
ATOM     10  C   UNL     1       0.812  11.108  20.756  0.00  0.00    +0.000 A 
ATOM     11  N   UNL     1       0.199  10.164  21.664  0.00  0.00    +0.000 N 
ATOM     12  O   UNL     1      -0.341   9.158  21.185  0.00  0.00    +0.000 OA
ATOM     13  O   UNL     1       0.264  10.425  22.877  0.00  0.00    +0.000 OA
ENDBRANCH   5   6
ENDBRANCH   4   5
ENDBRANCH   3   4
ENDBRANCH   2   3
BRANCH   2  14
ATOM     14  C   UNL     1       2.517   5.555  18.133  0.00  0.00    +0.000 C 
BRANCH  14  15
ATOM     15  C   UNL     1       3.307   4.331  18.706  0.00  0.00    +0.000 C 
BRANCH  15  16
ATOM     16  C   UNL     1       4.621   3.906  17.986  0.00  0.00    +0.000 C 
BRANCH  16  17
ATOM     17  N   UNL     1       5.782   4.783  18.049  0.00  0.00    +0.000 N 
ATOM     18  C   UNL     1       6.307   5.257  19.240  0.00  0.00    +0.000 A 
ATOM     19  C   UNL     1       7.494   5.878  18.921  0.00  0.00    +0.000 A 
ATOM     20  N   UNL     1       7.736   5.782  17.581  0.00  0.00    +0.000 NA
ATOM     21  C   UNL     1       6.715   5.106  17.085  0.00  0.00    +0.000 A 
ATOM     22  N   UNL     1       6.653   4.744  15.691  0.00  0.00    +0.000 N 
ATOM     23  O   UNL     1       5.708   4.039  15.319  0.00  0.00    +0.000 OA
ATOM     24  O   UNL     1       7.555   5.164  14.952  0.00  0.00    +0.000 OA
ENDBRANCH  16  17
ENDBRANCH  15  16
ENDBRANCH  14  15
ENDBRANCH   2  14
TORSDOF 8
ENDMDL
MODEL 8
REMARK VINA RESULT:      -6.3      1.378      1.484
REMARK  Name = 
REMARK  9 active torsions:
REMARK  status: ('A' for Active; 'I' for Inactive)
REMARK    1  A    between atoms: C_1  and  N_2
REMARK    2  A    between atoms: N_2  and  C_3
REMARK    3  A    between atoms: N_2  and  C_14
REMARK    4  A    between atoms: C_3  and  C_4
REMARK    5  A    between atoms: C_4  and  C_5
REMARK    6  A    between atoms: C_5  and  N_6
REMARK    7  A    between atoms: C_14  and  C_15
REMARK    8  A    between atoms: C_15  and  C_16
REMARK    9  A    between atoms: C_16  and  N_17
REMARK                            x       y       z     vdW  Elec       q    Type
REMARK                         _______ _______ _______ _____ _____    ______ ____
ROOT
ATOM      1  C   UNL     1       1.710   2.380  19.046  0.00  0.00    +0.000 C 
ATOM      2  N   UNL     1       1.618   3.774  18.622  0.00  0.00    +0.000 NA
ENDROOT
BRANCH   2   3
ATOM      3  C   UNL     1       1.461   4.630  19.837  0.00  0.00    +0.000 C 
BRANCH   3   4
ATOM      4  C   UNL     1       2.494   5.749  20.028  0.00  0.00    +0.000 C 
BRANCH   4   5
ATOM      5  C   UNL     1       2.259   7.011  19.182  0.00  0.00    +0.000 C 
BRANCH   5   6
ATOM      6  N   UNL     1       1.719   8.087  20.012  0.00  0.00    +0.000 N 
ATOM      7  C   UNL     1       1.397   7.910  21.343  0.00  0.00    +0.000 A 
ATOM      8  C   UNL     1       0.809   9.085  21.747  0.00  0.00    +0.000 A 
ATOM      9  N   UNL     1       0.786   9.990  20.721  0.00  0.00    +0.000 NA
ATOM     10  C   UNL     1       1.339   9.371  19.691  0.00  0.00    +0.000 A 
ATOM     11  N   UNL     1       1.477   9.997  18.394  0.00  0.00    +0.000 N 
ATOM     12  O   UNL     1       2.011   9.348  17.486  0.00  0.00    +0.000 OA
ATOM     13  O   UNL     1       1.038  11.153  18.278  0.00  0.00    +0.000 OA
ENDBRANCH   5   6
ENDBRANCH   4   5
ENDBRANCH   3   4
ENDBRANCH   2   3
BRANCH   2  14
ATOM     14  C   UNL     1       2.671   4.158  17.634  0.00  0.00    +0.000 C 
BRANCH  14  15
ATOM     15  C   UNL     1       4.003   3.337  17.692  0.00  0.00    +0.000 C 
BRANCH  15  16
ATOM     16  C   UNL     1       5.341   4.122  17.833  0.00  0.00    +0.000 C 
BRANCH  16  17
ATOM     17  N   UNL     1       6.124   4.413  16.639  0.00  0.00    +0.000 N 
ATOM     18  C   UNL     1       6.007   3.689  15.463  0.00  0.00    +0.000 A 
ATOM     19  C   UNL     1       6.740   4.366  14.516  0.00  0.00    +0.000 A 
ATOM     20  N   UNL     1       7.285   5.497  15.054  0.00  0.00    +0.000 NA
ATOM     21  C   UNL     1       6.885   5.515  16.314  0.00  0.00    +0.000 A 
ATOM     22  N   UNL     1       7.210   6.610  17.193  0.00  0.00    +0.000 N 
ATOM     23  O   UNL     1       6.730   6.598  18.333  0.00  0.00    +0.000 OA
ATOM     24  O   UNL     1       7.953   7.498  16.749  0.00  0.00    +0.000 OA
ENDBRANCH  16  17
ENDBRANCH  15  16
ENDBRANCH  14  15
ENDBRANCH   2  14
TORSDOF 8
ENDMDL
MODEL 9
REMARK VINA RESULT:      -6.3      1.884      7.073
REMARK  Name = 
REMARK  9 active torsions:
REMARK  status: ('A' for Active; 'I' for Inactive)
REMARK    1  A    between atoms: C_1  and  N_2
REMARK    2  A    between atoms: N_2  and  C_3
REMARK    3  A    between atoms: N_2  and  C_14
REMARK    4  A    between atoms: C_3  and  C_4
REMARK    5  A    between atoms: C_4  and  C_5
REMARK    6  A    between atoms: C_5  and  N_6
REMARK    7  A    between atoms: C_14  and  C_15
REMARK    8  A    between atoms: C_15  and  C_16
REMARK    9  A    between atoms: C_16  and  N_17
REMARK                            x       y       z     vdW  Elec       q    Type
REMARK                         _______ _______ _______ _____ _____    ______ ____
ROOT
ATOM      1  C   UNL     1       3.537   2.857  20.373  0.00  0.00    +0.000 C 
ATOM      2  N   UNL     1       3.215   4.108  19.692  0.00  0.00    +0.000 NA
ENDROOT
BRANCH   2   3
ATOM      3  C   UNL     1       2.800   3.791  18.292  0.00  0.00    +0.000 C 
BRANCH   3   4
ATOM      4  C   UNL     1       3.601   4.465  17.169  0.00  0.00    +0.000 C 
BRANCH   4   5
ATOM      5  C   UNL     1       4.994   3.870  16.909  0.00  0.00    +0.000 C 
BRANCH   5   6
ATOM      6  N   UNL     1       6.013   4.918  16.957  0.00  0.00    +0.000 N 
ATOM      7  C   UNL     1       6.201   5.724  18.062  0.00  0.00    +0.000 A 
ATOM      8  C   UNL     1       7.140   6.657  17.694  0.00  0.00    +0.000 A 
ATOM      9  N   UNL     1       7.560   6.435  16.410  0.00  0.00    +0.000 NA
ATOM     10  C   UNL     1       6.872   5.387  15.988  0.00  0.00    +0.000 A 
ATOM     11  N   UNL     1       7.017   4.852  14.652  0.00  0.00    +0.000 N 
ATOM     12  O   UNL     1       6.339   3.865  14.341  0.00  0.00    +0.000 OA
ATOM     13  O   UNL     1       7.815   5.432  13.897  0.00  0.00    +0.000 OA
ENDBRANCH   5   6
ENDBRANCH   4   5
ENDBRANCH   3   4
ENDBRANCH   2   3
BRANCH   2  14
ATOM     14  C   UNL     1       2.325   5.001  20.494  0.00  0.00    +0.000 C 
BRANCH  14  15
ATOM     15  C   UNL     1       1.621   6.158  19.708  0.00  0.00    +0.000 C 
BRANCH  15  16
ATOM     16  C   UNL     1       2.128   7.613  19.938  0.00  0.00    +0.000 C 
BRANCH  16  17
ATOM     17  N   UNL     1       1.251   8.576  20.590  0.00  0.00    +0.000 N 
ATOM     18  C   UNL     1       1.182   8.725  21.966  0.00  0.00    +0.000 A 
ATOM     19  C   UNL     1       0.413   9.843  22.197  0.00  0.00    +0.000 A 
ATOM     20  N   UNL     1       0.026  10.407  21.016  0.00  0.00    +0.000 NA
ATOM     21  C   UNL     1       0.556   9.649  20.072  0.00  0.00    +0.000 A 
ATOM     22  N   UNL     1       0.420   9.975  18.675  0.00  0.00    +0.000 N 
ATOM     23  O   UNL     1       1.015   9.266  17.855  0.00  0.00    +0.000 OA
ATOM     24  O   UNL     1      -0.287  10.951  18.383  0.00  0.00    +0.000 OA
ENDBRANCH  16  17
ENDBRANCH  15  16
ENDBRANCH  14  15
ENDBRANCH   2  14
TORSDOF 8
ENDMDL
