MODEL 1
REMARK VINA RESULT:      -6.8      0.000      0.000
REMARK  Name = 
REMARK  13 active torsions:
REMARK  status: ('A' for Active; 'I' for Inactive)
REMARK    1  A    between atoms: C_1  and  C_2
REMARK    2  A    between atoms: C_2  and  N_3
REMARK    3  A    between atoms: C_2  and  C_18
REMARK    4  A    between atoms: N_3  and  C_4
REMARK    5  A    between atoms: C_6  and  N_7
REMARK    6  A    between atoms: C_8  and  O_10
REMARK    7  A    between atoms: O_10  and  C_11
REMARK    8  A    between atoms: C_11  and  C_12
REMARK    9  A    between atoms: C_11  and  C_13
REMARK   10  A    between atoms: C_11  and  C_14
REMARK   11  A    between atoms: C_15  and  C_16
REMARK   12  A    between atoms: C_15  and  C_17
REMARK   13  A    between atoms: N_21  and  C_22
REMARK                            x       y       z     vdW  Elec       q    Type
REMARK                         _______ _______ _______ _____ _____    ______ ____
ROOT
ATOM      1  C   UNL     1       4.450   5.016  18.136  0.00  0.00    +0.000 C 
ATOM      2  C   UNL     1       4.494   6.559  18.268  0.00  0.00    +0.000 C 
ATOM      3  C   UNL     1       2.961   6.599  18.123  0.00  0.00    +0.000 C 
ATOM      4  C   UNL     1       2.922   5.079  18.511  0.00  0.00    +0.000 C 
ATOM      5  C   UNL     1       2.726   4.786  20.011  0.00  0.00    +0.000 C 
ATOM      6  C   UNL     1       1.894   4.285  17.700  0.00  0.00    +0.000 C 
ENDROOT
BRANCH   3   7
ATOM      7  N   UNL     1       2.277   7.522  19.041  0.00  0.00    +0.000 N 
ATOM      8  C   UNL     1       1.856   8.743  18.600  0.00  0.00    +0.000 C 
ATOM      9  O   UNL     1       2.015   9.135  17.453  0.00  0.00    +0.000 OA
ATOM     10  H   UNL     1       2.091   7.315  20.013  0.00  0.00    +0.000 HD
BRANCH   8  11
ATOM     11  O   UNL     1       1.252   9.430  19.601  0.00  0.00    +0.000 OA
BRANCH  11  12
ATOM     12  C   UNL     1       0.456  10.599  19.229  0.00  0.00    +0.000 C 
ATOM     13  C   UNL     1      -0.616  10.227  18.194  0.00  0.00    +0.000 C 
ATOM     14  C   UNL     1      -0.258  11.056  20.512  0.00  0.00    +0.000 C 
ATOM     15  C   UNL     1       1.354  11.752  18.757  0.00  0.00    +0.000 C 
ENDBRANCH  11  12
ENDBRANCH   8  11
ENDBRANCH   3   7
BRANCH   1  16
ATOM     16  N   UNL     1       4.634   4.595  16.736  0.00  0.00    +0.000 NA
ATOM     17  H   UNL     1       3.965   3.866  16.467  0.00  0.00    +0.000 HD
BRANCH  16  19
ATOM     18  C   UNL     1       6.971   4.555  17.532  0.00  0.00    +0.000 C 
ATOM     19  C   UNL     1       5.983   4.039  16.478  0.00  0.00    +0.000 C 
BRANCH  19  20
ATOM     20  C   UNL     1       6.464   4.341  15.089  0.00  0.00    +0.000 A 
ATOM     21  C   UNL     1       6.004   3.782  13.880  0.00  0.00    +0.000 A 
ATOM     22  N   UNL     1       6.688   4.284  12.851  0.00  0.00    +0.000 NA
ATOM     23  N   UNL     1       7.535   5.123  13.479  0.00  0.00    +0.000 N 
ATOM     24  C   UNL     1       8.561   5.831  12.755  0.00  0.00    +0.000 C 
ATOM     25  N   UNL     1       7.439   5.226  14.821  0.00  0.00    +0.000 NA
ENDBRANCH  19  20
ENDBRANCH  16  19
ENDBRANCH   1  16
TORSDOF 6
ENDMDL
MODEL 2
REMARK VINA RESULT:      -6.7      0.888      1.112
REMARK  Name = 
REMARK  13 active torsions:
REMARK  status: ('A' for Active; 'I' for Inactive)
REMARK    1  A    between atoms: C_1  and  C_2
REMARK    2  A    between atoms: C_2  and  N_3
REMARK    3  A    between atoms: C_2  and  C_18
REMARK    4  A    between atoms: N_3  and  C_4
REMARK    5  A    between atoms: C_6  and  N_7
REMARK    6  A    between atoms: C_8  and  O_10
REMARK    7  A    between atoms: O_10  and  C_11
REMARK    8  A    between atoms: C_11  and  C_12
REMARK    9  A    between atoms: C_11  and  C_13
REMARK   10  A    between atoms: C_11  and  C_14
REMARK   11  A    between atoms: C_15  and  C_16
REMARK   12  A    between atoms: C_15  and  C_17
REMARK   13  A    between atoms: N_21  and  C_22
REMARK                            x       y       z     vdW  Elec       q    Type
REMARK                         _______ _______ _______ _____ _____    ______ ____
ROOT
ATOM      1  C   UNL     1       3.921   5.064  18.436  0.00  0.00    +0.000 C 
ATOM      2  C   UNL     1       4.106   6.595  18.584  0.00  0.00    +0.000 C 
ATOM      3  C   UNL     1       2.612   6.791  18.265  0.00  0.00    +0.000 C 
ATOM      4  C   UNL     1       2.374   5.285  18.635  0.00  0.00    +0.000 C 
ATOM      5  C   UNL     1       1.980   5.020  20.101  0.00  0.00    +0.000 C 
ATOM      6  C   UNL     1       1.369   4.597  17.707  0.00  0.00    +0.000 C 
ENDROOT
BRANCH   3   7
ATOM      7  N   UNL     1       1.927   7.784  19.107  0.00  0.00    +0.000 N 
ATOM      8  C   UNL     1       1.682   9.038  18.630  0.00  0.00    +0.000 C 
ATOM      9  O   UNL     1       2.006   9.406  17.509  0.00  0.00    +0.000 OA
ATOM     10  H   UNL     1       1.614   7.601  20.052  0.00  0.00    +0.000 HD
BRANCH   8  11
ATOM     11  O   UNL     1       1.042   9.788  19.561  0.00  0.00    +0.000 OA
BRANCH  11  12
ATOM     12  C   UNL     1       0.035  10.736  19.085  0.00  0.00    +0.000 C 
ATOM     13  C   UNL     1      -0.813  10.119  17.963  0.00  0.00    +0.000 C 
ATOM     14  C   UNL     1      -0.888  11.016  20.282  0.00  0.00    +0.000 C 
ATOM     15  C   UNL     1       0.681  12.066  18.672  0.00  0.00    +0.000 C 
ENDBRANCH  11  12
ENDBRANCH   8  11
ENDBRANCH   3   7
BRANCH   1  16
ATOM     16  N   UNL     1       4.218   4.621  17.062  0.00  0.00    +0.000 NA
ATOM     17  H   UNL     1       3.541   3.925  16.732  0.00  0.00    +0.000 HD
BRANCH  16  19
ATOM     18  C   UNL     1       6.446   4.432  18.109  0.00  0.00    +0.000 C 
ATOM     19  C   UNL     1       5.555   3.993  16.941  0.00  0.00    +0.000 C 
BRANCH  19  20
ATOM     20  C   UNL     1       6.203   4.292  15.621  0.00  0.00    +0.000 A 
ATOM     21  C   UNL     1       7.135   5.307  15.331  0.00  0.00    +0.000 A 
ATOM     22  N   UNL     1       7.469   5.271  14.040  0.00  0.00    +0.000 NA
ATOM     23  N   UNL     1       6.724   4.238  13.602  0.00  0.00    +0.000 N 
ATOM     24  C   UNL     1       6.684   3.884  12.205  0.00  0.00    +0.000 C 
ATOM     25  N   UNL     1       5.959   3.588  14.502  0.00  0.00    +0.000 NA
ENDBRANCH  19  20
ENDBRANCH  16  19
ENDBRANCH   1  16
TORSDOF 6
ENDMDL
MODEL 3
REMARK VINA RESULT:      -6.6      2.865      7.544
REMARK  Name = 
REMARK  13 active torsions:
REMARK  status: ('A' for Active; 'I' for Inactive)
REMARK    1  A    between atoms: C_1  and  C_2
REMARK    2  A    between atoms: C_2  and  N_3
REMARK    3  A    between atoms: C_2  and  C_18
REMARK    4  A    between atoms: N_3  and  C_4
REMARK    5  A    between atoms: C_6  and  N_7
REMARK    6  A    between atoms: C_8  and  O_10
REMARK    7  A    between atoms: O_10  and  C_11
REMARK    8  A    between atoms: C_11  and  C_12
REMARK    9  A    between atoms: C_11  and  C_13
REMARK   10  A    between atoms: C_11  and  C_14
REMARK   11  A    between atoms: C_15  and  C_16
REMARK   12  A    between atoms: C_15  and  C_17
REMARK   13  A    between atoms: N_21  and  C_22
REMARK                            x       y       z     vdW  Elec       q    Type
REMARK                         _______ _______ _______ _____ _____    ______ ____
ROOT
ATOM      1  C   UNL     1       3.030   4.515  18.840  0.00  0.00    +0.000 C 
ATOM      2  C   UNL     1       3.736   5.252  17.674  0.00  0.00    +0.000 C 
ATOM      3  C   UNL     1       4.955   4.326  17.847  0.00  0.00    +0.000 C 
ATOM      4  C   UNL     1       4.033   3.320  18.622  0.00  0.00    +0.000 C 
ATOM      5  C   UNL     1       3.380   2.224  17.758  0.00  0.00    +0.000 C 
ATOM      6  C   UNL     1       4.735   2.672  19.819  0.00  0.00    +0.000 C 
ENDROOT
BRANCH   3   7
ATOM      7  N   UNL     1       5.541   3.836  16.590  0.00  0.00    +0.000 N 
ATOM      8  C   UNL     1       6.732   4.333  16.148  0.00  0.00    +0.000 C 
ATOM      9  O   UNL     1       7.367   5.189  16.746  0.00  0.00    +0.000 OA
ATOM     10  H   UNL     1       5.110   3.133  16.004  0.00  0.00    +0.000 HD
BRANCH   8  11
ATOM     11  O   UNL     1       7.090   3.746  14.979  0.00  0.00    +0.000 OA
BRANCH  11  12
ATOM     12  C   UNL     1       6.659   4.394  13.741  0.00  0.00    +0.000 C 
ATOM     13  C   UNL     1       6.145   3.358  12.730  0.00  0.00    +0.000 C 
ATOM     14  C   UNL     1       5.485   5.309  14.124  0.00  0.00    +0.000 C 
ATOM     15  C   UNL     1       7.773   5.278  13.163  0.00  0.00    +0.000 C 
ENDBRANCH  11  12
ENDBRANCH   8  11
ENDBRANCH   3   7
BRANCH   1  16
ATOM     16  N   UNL     1       3.281   5.187  20.126  0.00  0.00    +0.000 NA
ATOM     17  H   UNL     1       3.728   4.560  20.803  0.00  0.00    +0.000 HD
BRANCH  16  19
ATOM     18  C   UNL     1       0.869   4.750  20.413  0.00  0.00    +0.000 C 
ATOM     19  C   UNL     1       2.038   5.676  20.769  0.00  0.00    +0.000 C 
BRANCH  19  20
ATOM     20  C   UNL     1       1.735   7.099  20.405  0.00  0.00    +0.000 A 
ATOM     21  C   UNL     1       1.127   8.082  21.213  0.00  0.00    +0.000 A 
ATOM     22  N   UNL     1       1.006   9.224  20.534  0.00  0.00    +0.000 NA
ATOM     23  N   UNL     1       1.542   8.885  19.345  0.00  0.00    +0.000 N 
ATOM     24  C   UNL     1       1.536   9.803  18.234  0.00  0.00    +0.000 C 
ATOM     25  N   UNL     1       2.022   7.633  19.206  0.00  0.00    +0.000 NA
ENDBRANCH  19  20
ENDBRANCH  16  19
ENDBRANCH   1  16
TORSDOF 6
ENDMDL
MODEL 4
REMARK VINA RESULT:      -6.6      2.763      8.182
REMARK  Name = 
REMARK  13 active torsions:
REMARK  status: ('A' for Active; 'I' for Inactive)
REMARK    1  A    between atoms: C_1  and  C_2
REMARK    2  A    between atoms: C_2  and  N_3
REMARK    3  A    between atoms: C_2  and  C_18
REMARK    4  A    between atoms: N_3  and  C_4
REMARK    5  A    between atoms: C_6  and  N_7
REMARK    6  A    between atoms: C_8  and  O_10
REMARK    7  A    between atoms: O_10  and  C_11
REMARK    8  A    between atoms: C_11  and  C_12
REMARK    9  A    between atoms: C_11  and  C_13
REMARK   10  A    between atoms: C_11  and  C_14
REMARK   11  A    between atoms: C_15  and  C_16
REMARK   12  A    between atoms: C_15  and  C_17
REMARK   13  A    between atoms: N_21  and  C_22
REMARK                            x       y       z     vdW  Elec       q    Type
REMARK                         _______ _______ _______ _____ _____    ______ ____
ROOT
ATOM      1  C   UNL     1       4.113   5.122  18.460  0.00  0.00    +0.000 C 
ATOM      2  C   UNL     1       3.600   4.183  17.339  0.00  0.00    +0.000 C 
ATOM      3  C   UNL     1       4.551   4.876  16.345  0.00  0.00    +0.000 C 
ATOM      4  C   UNL     1       5.377   5.412  17.566  0.00  0.00    +0.000 C 
ATOM      5  C   UNL     1       6.557   4.524  18.005  0.00  0.00    +0.000 C 
ATOM      6  C   UNL     1       5.869   6.848  17.366  0.00  0.00    +0.000 C 
ENDROOT
BRANCH   3   7
ATOM      7  N   UNL     1       5.257   3.966  15.430  0.00  0.00    +0.000 N 
ATOM      8  C   UNL     1       6.030   4.468  14.423  0.00  0.00    +0.000 C 
ATOM      9  O   UNL     1       6.179   5.665  14.222  0.00  0.00    +0.000 OA
ATOM     10  H   UNL     1       5.210   2.958  15.491  0.00  0.00    +0.000 HD
BRANCH   8  11
ATOM     11  O   UNL     1       6.590   3.463  13.705  0.00  0.00    +0.000 OA
BRANCH  11  12
ATOM     12  C   UNL     1       6.359   3.459  12.261  0.00  0.00    +0.000 C 
ATOM     13  C   UNL     1       7.192   4.547  11.568  0.00  0.00    +0.000 C 
ATOM     14  C   UNL     1       6.845   2.091  11.754  0.00  0.00    +0.000 C 
ATOM     15  C   UNL     1       4.861   3.570  11.941  0.00  0.00    +0.000 C 
ENDBRANCH  11  12
ENDBRANCH   8  11
ENDBRANCH   3   7
BRANCH   1  16
ATOM     16  N   UNL     1       3.264   6.321  18.580  0.00  0.00    +0.000 NA
ATOM     17  H   UNL     1       3.791   7.180  18.386  0.00  0.00    +0.000 HD
BRANCH  16  19
ATOM     18  C   UNL     1       1.859   5.244  20.300  0.00  0.00    +0.000 C 
ATOM     19  C   UNL     1       2.689   6.481  19.935  0.00  0.00    +0.000 C 
BRANCH  19  20
ATOM     20  C   UNL     1       1.876   7.736  20.062  0.00  0.00    +0.000 A 
ATOM     21  C   UNL     1       1.182   8.200  21.197  0.00  0.00    +0.000 A 
ATOM     22  N   UNL     1       0.558   9.346  20.918  0.00  0.00    +0.000 NA
ATOM     23  N   UNL     1       0.898   9.527  19.627  0.00  0.00    +0.000 N 
ATOM     24  C   UNL     1       0.357  10.618  18.856  0.00  0.00    +0.000 C 
ATOM     25  N   UNL     1       1.709   8.612  19.056  0.00  0.00    +0.000 NA
ENDBRANCH  19  20
ENDBRANCH  16  19
ENDBRANCH   1  16
TORSDOF 6
ENDMDL
MODEL 5
REMARK VINA RESULT:      -6.6      3.646      5.210
REMARK  Name = 
REMARK  13 active torsions:
REMARK  status: ('A' for Active; 'I' for Inactive)
REMARK    1  A    between atoms: C_1  and  C_2
REMARK    2  A    between atoms: C_2  and  N_3
REMARK    3  A    between atoms: C_2  and  C_18
REMARK    4  A    between atoms: N_3  and  C_4
REMARK    5  A    between atoms: C_6  and  N_7
REMARK    6  A    between atoms: C_8  and  O_10
REMARK    7  A    between atoms: O_10  and  C_11
REMARK    8  A    between atoms: C_11  and  C_12
REMARK    9  A    between atoms: C_11  and  C_13
REMARK   10  A    between atoms: C_11  and  C_14
REMARK   11  A    between atoms: C_15  and  C_16
REMARK   12  A    between atoms: C_15  and  C_17
REMARK   13  A    between atoms: N_21  and  C_22
REMARK                            x       y       z     vdW  Elec       q    Type
REMARK                         _______ _______ _______ _____ _____    ______ ____
ROOT
ATOM      1  C   UNL     1       5.563   4.581  15.207  0.00  0.00    +0.000 C 
ATOM      2  C   UNL     1       4.633   3.667  16.042  0.00  0.00    +0.000 C 
ATOM      3  C   UNL     1       5.234   4.258  17.331  0.00  0.00    +0.000 C 
ATOM      4  C   UNL     1       5.744   5.479  16.488  0.00  0.00    +0.000 C 
ATOM      5  C   UNL     1       4.789   6.687  16.433  0.00  0.00    +0.000 C 
ATOM      6  C   UNL     1       7.138   5.953  16.909  0.00  0.00    +0.000 C 
ENDROOT
BRANCH   3   7
ATOM      7  N   UNL     1       4.256   4.560  18.387  0.00  0.00    +0.000 N 
ATOM      8  C   UNL     1       4.181   3.772  19.499  0.00  0.00    +0.000 C 
ATOM      9  O   UNL     1       4.897   2.798  19.683  0.00  0.00    +0.000 OA
ATOM     10  H   UNL     1       3.607   5.335  18.349  0.00  0.00    +0.000 HD
BRANCH   8  11
ATOM     11  O   UNL     1       3.221   4.226  20.342  0.00  0.00    +0.000 OA
BRANCH  11  12
ATOM     12  C   UNL     1       1.977   3.460  20.420  0.00  0.00    +0.000 C 
ATOM     13  C   UNL     1       1.914   2.647  21.722  0.00  0.00    +0.000 C 
ATOM     14  C   UNL     1       0.840   4.494  20.448  0.00  0.00    +0.000 C 
ATOM     15  C   UNL     1       1.787   2.588  19.171  0.00  0.00    +0.000 C 
ENDBRANCH  11  12
ENDBRANCH   8  11
ENDBRANCH   3   7
BRANCH   1  16
ATOM     16  N   UNL     1       6.819   3.892  14.863  0.00  0.00    +0.000 NA
ATOM     17  H   UNL     1       7.612   4.256  15.402  0.00  0.00    +0.000 HD
BRANCH  16  19
ATOM     18  C   UNL     1       7.341   5.530  13.090  0.00  0.00    +0.000 C 
ATOM     19  C   UNL     1       7.182   4.044  13.434  0.00  0.00    +0.000 C 
BRANCH  19  20
ATOM     20  C   UNL     1       6.191   3.378  12.525  0.00  0.00    +0.000 A 
ATOM     21  C   UNL     1       6.312   2.125  11.892  0.00  0.00    +0.000 A 
ATOM     22  N   UNL     1       5.234   1.882  11.145  0.00  0.00    +0.000 NA
ATOM     23  N   UNL     1       4.508   2.997  11.353  0.00  0.00    +0.000 N 
ATOM     24  C   UNL     1       3.271   3.227  10.650  0.00  0.00    +0.000 C 
ATOM     25  N   UNL     1       5.010   3.927  12.191  0.00  0.00    +0.000 NA
ENDBRANCH  19  20
ENDBRANCH  16  19
ENDBRANCH   1  16
TORSDOF 6
ENDMDL
MODEL 6
REMARK VINA RESULT:      -6.6      2.898      7.769
REMARK  Name = 
REMARK  13 active torsions:
REMARK  status: ('A' for Active; 'I' for Inactive)
REMARK    1  A    between atoms: C_1  and  C_2
REMARK    2  A    between atoms: C_2  and  N_3
REMARK    3  A    between atoms: C_2  and  C_18
REMARK    4  A    between atoms: N_3  and  C_4
REMARK    5  A    between atoms: C_6  and  N_7
REMARK    6  A    between atoms: C_8  and  O_10
REMARK    7  A    between atoms: O_10  and  C_11
REMARK    8  A    between atoms: C_11  and  C_12
REMARK    9  A    between atoms: C_11  and  C_13
REMARK   10  A    between atoms: C_11  and  C_14
REMARK   11  A    between atoms: C_15  and  C_16
REMARK   12  A    between atoms: C_15  and  C_17
REMARK   13  A    between atoms: N_21  and  C_22
REMARK                            x       y       z     vdW  Elec       q    Type
REMARK                         _______ _______ _______ _____ _____    ______ ____
ROOT
ATOM      1  C   UNL     1       3.166   4.949  18.825  0.00  0.00    +0.000 C 
ATOM      2  C   UNL     1       4.132   5.715  17.887  0.00  0.00    +0.000 C 
ATOM      3  C   UNL     1       5.169   4.590  18.061  0.00  0.00    +0.000 C 
ATOM      4  C   UNL     1       4.012   3.650  18.547  0.00  0.00    +0.000 C 
ATOM      5  C   UNL     1       3.345   2.802  17.446  0.00  0.00    +0.000 C 
ATOM      6  C   UNL     1       4.432   2.739  19.704  0.00  0.00    +0.000 C 
ENDROOT
BRANCH   3   7
ATOM      7  N   UNL     1       5.858   4.189  16.825  0.00  0.00    +0.000 N 
ATOM      8  C   UNL     1       7.012   4.812  16.449  0.00  0.00    +0.000 C 
ATOM      9  O   UNL     1       7.530   5.714  17.092  0.00  0.00    +0.000 OA
ATOM     10  H   UNL     1       5.527   3.460  16.207  0.00  0.00    +0.000 HD
BRANCH   8  11
ATOM     11  O   UNL     1       7.481   4.290  15.288  0.00  0.00    +0.000 OA
BRANCH  11  12
ATOM     12  C   UNL     1       6.860   4.748  14.045  0.00  0.00    +0.000 C 
ATOM     13  C   UNL     1       7.905   5.363  13.104  0.00  0.00    +0.000 C 
ATOM     14  C   UNL     1       6.286   3.493  13.367  0.00  0.00    +0.000 C 
ATOM     15  C   UNL     1       5.690   5.701  14.331  0.00  0.00    +0.000 C 
ENDBRANCH  11  12
ENDBRANCH   8  11
ENDBRANCH   3   7
BRANCH   1  16
ATOM     16  N   UNL     1       3.318   5.390  20.223  0.00  0.00    +0.000 NA
ATOM     17  H   UNL     1       3.754   4.666  20.804  0.00  0.00    +0.000 HD
BRANCH  16  19
ATOM     18  C   UNL     1       0.941   4.741  20.381  0.00  0.00    +0.000 C 
ATOM     19  C   UNL     1       2.022   5.716  20.863  0.00  0.00    +0.000 C 
BRANCH  19  20
ATOM     20  C   UNL     1       1.615   7.140  20.625  0.00  0.00    +0.000 A 
ATOM     21  C   UNL     1       1.852   7.921  19.476  0.00  0.00    +0.000 A 
ATOM     22  N   UNL     1       1.356   9.148  19.644  0.00  0.00    +0.000 NA
ATOM     23  N   UNL     1       0.843   9.060  20.886  0.00  0.00    +0.000 N 
ATOM     24  C   UNL     1       0.275  10.210  21.544  0.00  0.00    +0.000 C 
ATOM     25  N   UNL     1       0.941   7.876  21.525  0.00  0.00    +0.000 NA
ENDBRANCH  19  20
ENDBRANCH  16  19
ENDBRANCH   1  16
TORSDOF 6
ENDMDL
MODEL 7
REMARK VINA RESULT:      -6.5      2.822      8.285
REMARK  Name = 
REMARK  13 active torsions:
REMARK  status: ('A' for Active; 'I' for Inactive)
REMARK    1  A    between atoms: C_1  and  C_2
REMARK    2  A    between atoms: C_2  and  N_3
REMARK    3  A    between atoms: C_2  and  C_18
REMARK    4  A    between atoms: N_3  and  C_4
REMARK    5  A    between atoms: C_6  and  N_7
REMARK    6  A    between atoms: C_8  and  O_10
REMARK    7  A    between atoms: O_10  and  C_11
REMARK    8  A    between atoms: C_11  and  C_12
REMARK    9  A    between atoms: C_11  and  C_13
REMARK   10  A    between atoms: C_11  and  C_14
REMARK   11  A    between atoms: C_15  and  C_16
REMARK   12  A    between atoms: C_15  and  C_17
REMARK   13  A    between atoms: N_21  and  C_22
REMARK                            x       y       z     vdW  Elec       q    Type
REMARK                         _______ _______ _______ _____ _____    ______ ____
ROOT
ATOM      1  C   UNL     1       3.981   5.074  18.497  0.00  0.00    +0.000 C 
ATOM      2  C   UNL     1       3.492   4.139  17.362  0.00  0.00    +0.000 C 
ATOM      3  C   UNL     1       4.454   4.844  16.387  0.00  0.00    +0.000 C 
ATOM      4  C   UNL     1       5.257   5.377  17.625  0.00  0.00    +0.000 C 
ATOM      5  C   UNL     1       6.436   4.493  18.076  0.00  0.00    +0.000 C 
ATOM      6  C   UNL     1       5.744   6.818  17.442  0.00  0.00    +0.000 C 
ENDROOT
BRANCH   3   7
ATOM      7  N   UNL     1       5.180   3.944  15.478  0.00  0.00    +0.000 N 
ATOM      8  C   UNL     1       5.940   4.456  14.467  0.00  0.00    +0.000 C 
ATOM      9  O   UNL     1       6.062   5.655  14.258  0.00  0.00    +0.000 OA
ATOM     10  H   UNL     1       5.156   2.936  15.546  0.00  0.00    +0.000 HD
BRANCH   8  11
ATOM     11  O   UNL     1       6.523   3.460  13.755  0.00  0.00    +0.000 OA
BRANCH  11  12
ATOM     12  C   UNL     1       6.331   3.469  12.305  0.00  0.00    +0.000 C 
ATOM     13  C   UNL     1       7.193   4.554  11.644  0.00  0.00    +0.000 C 
ATOM     14  C   UNL     1       6.818   2.100  11.802  0.00  0.00    +0.000 C 
ATOM     15  C   UNL     1       4.844   3.598  11.945  0.00  0.00    +0.000 C 
ENDBRANCH  11  12
ENDBRANCH   8  11
ENDBRANCH   3   7
BRANCH   1  16
ATOM     16  N   UNL     1       3.124   6.267  18.611  0.00  0.00    +0.000 NA
ATOM     17  H   UNL     1       3.625   7.122  18.346  0.00  0.00    +0.000 HD
BRANCH  16  19
ATOM     18  C   UNL     1       1.802   5.276  20.445  0.00  0.00    +0.000 C 
ATOM     19  C   UNL     1       2.628   6.485  19.990  0.00  0.00    +0.000 C 
BRANCH  19  20
ATOM     20  C   UNL     1       1.843   7.758  20.115  0.00  0.00    +0.000 A 
ATOM     21  C   UNL     1       1.624   8.733  19.123  0.00  0.00    +0.000 A 
ATOM     22  N   UNL     1       0.893   9.734  19.616  0.00  0.00    +0.000 NA
ATOM     23  N   UNL     1       0.703   9.325  20.885  0.00  0.00    +0.000 N 
ATOM     24  C   UNL     1       0.030  10.160  21.848  0.00  0.00    +0.000 C 
ATOM     25  N   UNL     1       1.224   8.135  21.247  0.00  0.00    +0.000 NA
ENDBRANCH  19  20
ENDBRANCH  16  19
ENDBRANCH   1  16
TORSDOF 6
ENDMDL
MODEL 8
REMARK VINA RESULT:      -6.5      0.567      1.021
REMARK  Name = 
REMARK  13 active torsions:
REMARK  status: ('A' for Active; 'I' for Inactive)
REMARK    1  A    between atoms: C_1  and  C_2
REMARK    2  A    between atoms: C_2  and  N_3
REMARK    3  A    between atoms: C_2  and  C_18
REMARK    4  A    between atoms: N_3  and  C_4
REMARK    5  A    between atoms: C_6  and  N_7
REMARK    6  A    between atoms: C_8  and  O_10
REMARK    7  A    between atoms: O_10  and  C_11
REMARK    8  A    between atoms: C_11  and  C_12
REMARK    9  A    between atoms: C_11  and  C_13
REMARK   10  A    between atoms: C_11  and  C_14
REMARK   11  A    between atoms: C_15  and  C_16
REMARK   12  A    between atoms: C_15  and  C_17
REMARK   13  A    between atoms: N_21  and  C_22
REMARK                            x       y       z     vdW  Elec       q    Type
REMARK                         _______ _______ _______ _____ _____    ______ ____
ROOT
ATOM      1  C   UNL     1       4.391   5.716  17.932  0.00  0.00    +0.000 C 
ATOM      2  C   UNL     1       4.297   7.262  17.914  0.00  0.00    +0.000 C 
ATOM      3  C   UNL     1       2.761   7.154  17.965  0.00  0.00    +0.000 C 
ATOM      4  C   UNL     1       2.920   5.686  18.494  0.00  0.00    +0.000 C 
ATOM      5  C   UNL     1       2.935   5.536  20.027  0.00  0.00    +0.000 C 
ATOM      6  C   UNL     1       1.885   4.725  17.900  0.00  0.00    +0.000 C 
ENDROOT
BRANCH   3   7
ATOM      7  N   UNL     1       2.105   8.106  18.874  0.00  0.00    +0.000 N 
ATOM      8  C   UNL     1       1.828   9.376  18.456  0.00  0.00    +0.000 C 
ATOM      9  O   UNL     1       2.099   9.790  17.338  0.00  0.00    +0.000 OA
ATOM     10  H   UNL     1       1.836   7.884  19.823  0.00  0.00    +0.000 HD
BRANCH   8  11
ATOM     11  O   UNL     1       1.223  10.082  19.443  0.00  0.00    +0.000 OA
BRANCH  11  12
ATOM     12  C   UNL     1      -0.015  10.784  19.106  0.00  0.00    +0.000 C 
ATOM     13  C   UNL     1      -0.910  10.945  20.343  0.00  0.00    +0.000 C 
ATOM     14  C   UNL     1       0.404  12.186  18.635  0.00  0.00    +0.000 C 
ATOM     15  C   UNL     1      -0.740  10.097  17.939  0.00  0.00    +0.000 C 
ENDBRANCH  11  12
ENDBRANCH   8  11
ENDBRANCH   3   7
BRANCH   1  16
ATOM     16  N   UNL     1       4.446   5.169  16.565  0.00  0.00    +0.000 NA
ATOM     17  H   UNL     1       3.608   4.623  16.340  0.00  0.00    +0.000 HD
BRANCH  16  19
ATOM     18  C   UNL     1       6.631   4.467  17.476  0.00  0.00    +0.000 C 
ATOM     19  C   UNL     1       5.602   4.265  16.357  0.00  0.00    +0.000 C 
BRANCH  19  20
ATOM     20  C   UNL     1       6.226   4.446  15.005  0.00  0.00    +0.000 A 
ATOM     21  C   UNL     1       5.953   3.721  13.828  0.00  0.00    +0.000 A 
ATOM     22  N   UNL     1       6.723   4.158  12.830  0.00  0.00    +0.000 NA
ATOM     23  N   UNL     1       7.432   5.125  13.444  0.00  0.00    +0.000 N 
ATOM     24  C   UNL     1       8.489   5.826  12.760  0.00  0.00    +0.000 C 
ATOM     25  N   UNL     1       7.167   5.369  14.744  0.00  0.00    +0.000 NA
ENDBRANCH  19  20
ENDBRANCH  16  19
ENDBRANCH   1  16
TORSDOF 6
ENDMDL
MODEL 9
REMARK VINA RESULT:      -6.5      3.353      7.940
REMARK  Name = 
REMARK  13 active torsions:
REMARK  status: ('A' for Active; 'I' for Inactive)
REMARK    1  A    between atoms: C_1  and  C_2
REMARK    2  A    between atoms: C_2  and  N_3
REMARK    3  A    between atoms: C_2  and  C_18
REMARK    4  A    between atoms: N_3  and  C_4
REMARK    5  A    between atoms: C_6  and  N_7
REMARK    6  A    between atoms: C_8  and  O_10
REMARK    7  A    between atoms: O_10  and  C_11
REMARK    8  A    between atoms: C_11  and  C_12
REMARK    9  A    between atoms: C_11  and  C_13
REMARK   10  A    between atoms: C_11  and  C_14
REMARK   11  A    between atoms: C_15  and  C_16
REMARK   12  A    between atoms: C_15  and  C_17
REMARK   13  A    between atoms: N_21  and  C_22
REMARK                            x       y       z     vdW  Elec       q    Type
REMARK                         _______ _______ _______ _____ _____    ______ ____
ROOT
ATOM      1  C   UNL     1       5.429   4.686  18.701  0.00  0.00    +0.000 C 
ATOM      2  C   UNL     1       4.860   3.709  17.641  0.00  0.00    +0.000 C 
ATOM      3  C   UNL     1       5.478   4.579  16.530  0.00  0.00    +0.000 C 
ATOM      4  C   UNL     1       6.434   5.206  17.605  0.00  0.00    +0.000 C 
ATOM      5  C   UNL     1       7.800   4.510  17.759  0.00  0.00    +0.000 C 
ATOM      6  C   UNL     1       6.648   6.709  17.405  0.00  0.00    +0.000 C 
ENDROOT
BRANCH   3   7
ATOM      7  N   UNL     1       6.125   3.825  15.445  0.00  0.00    +0.000 N 
ATOM      8  C   UNL     1       6.541   4.468  14.315  0.00  0.00    +0.000 C 
ATOM      9  O   UNL     1       6.406   5.670  14.137  0.00  0.00    +0.000 OA
ATOM     10  H   UNL     1       6.289   2.828  15.472  0.00  0.00    +0.000 HD
BRANCH   8  11
ATOM     11  O   UNL     1       7.110   3.593  13.450  0.00  0.00    +0.000 OA
BRANCH  11  12
ATOM     12  C   UNL     1       6.501   3.463  12.126  0.00  0.00    +0.000 C 
ATOM     13  C   UNL     1       4.974   3.610  12.208  0.00  0.00    +0.000 C 
ATOM     14  C   UNL     1       7.048   4.630  11.288  0.00  0.00    +0.000 C 
ATOM     15  C   UNL     1       6.931   2.156  11.446  0.00  0.00    +0.000 C 
ENDBRANCH  11  12
ENDBRANCH   8  11
ENDBRANCH   3   7
BRANCH   1  16
ATOM     16  N   UNL     1       4.445   5.725  19.051  0.00  0.00    +0.000 NA
ATOM     17  H   UNL     1       4.272   5.760  20.061  0.00  0.00    +0.000 HD
BRANCH  16  19
ATOM     18  C   UNL     1       2.363   6.830  18.317  0.00  0.00    +0.000 C 
ATOM     19  C   UNL     1       3.127   5.504  18.410  0.00  0.00    +0.000 C 
BRANCH  19  20
ATOM     20  C   UNL     1       2.319   4.460  19.123  0.00  0.00    +0.000 A 
ATOM     21  C   UNL     1       1.261   3.688  18.602  0.00  0.00    +0.000 A 
ATOM     22  N   UNL     1       0.775   2.879  19.545  0.00  0.00    +0.000 NA
ATOM     23  N   UNL     1       1.554   3.197  20.596  0.00  0.00    +0.000 N 
ATOM     24  C   UNL     1       1.322   2.627  21.900  0.00  0.00    +0.000 C 
ATOM     25  N   UNL     1       2.520   4.121  20.408  0.00  0.00    +0.000 NA
ENDBRANCH  19  20
ENDBRANCH  16  19
ENDBRANCH   1  16
TORSDOF 6
ENDMDL
