MODEL 1
REMARK VINA RESULT:      -8.2      0.000      0.000
REMARK  Name = 
REMARK  2 active torsions:
REMARK  status: ('A' for Active; 'I' for Inactive)
REMARK    1  A    between atoms: C_2  and  C_3
REMARK    2  A    between atoms: C_15  and  C_16
REMARK                            x       y       z     vdW  Elec       q    Type
REMARK                         _______ _______ _______ _____ _____    ______ ____
ROOT
ATOM      1  O   UNL     1       4.170   3.719  18.516  0.00  0.00    +0.000 OA
ATOM      2  C   UNL     1       4.257   4.747  17.837  0.00  0.00    +0.000 C 
ATOM      3  N   UNL     1       3.445   5.868  18.153  0.00  0.00    +0.000 N 
ATOM      4  C   UNL     1       3.601   7.109  17.419  0.00  0.00    +0.000 C 
ATOM      5  C   UNL     1       2.642   8.237  17.618  0.00  0.00    +0.000 C 
ATOM      6  N   UNL     1       2.095   8.219  18.932  0.00  0.00    +0.000 N 
ATOM      7  N   UNL     1       1.446   9.296  19.352  0.00  0.00    +0.000 NA
ATOM      8  C   UNL     1       1.036   8.971  20.587  0.00  0.00    +0.000 A 
ATOM      9  C   UNL     1       1.461   7.645  20.912  0.00  0.00    +0.000 A 
ATOM     10  C   UNL     1       2.176   7.194  19.817  0.00  0.00    +0.000 A 
ATOM     11  C   UNL     1       2.938   5.941  19.536  0.00  0.00    +0.000 C 
ENDROOT
BRANCH   2  12
ATOM     12  C   UNL     1       5.300   4.759  16.705  0.00  0.00    +0.000 A 
ATOM     13  C   UNL     1       6.669   5.086  16.809  0.00  0.00    +0.000 A 
ATOM     14  C   UNL     1       7.568   5.008  15.747  0.00  0.00    +0.000 A 
ATOM     15  C   UNL     1       7.121   4.566  14.521  0.00  0.00    +0.000 A 
ATOM     16  C   UNL     1       5.779   4.220  14.370  0.00  0.00    +0.000 A 
ATOM     17 CL   UNL     1       5.250   3.641  12.841  0.00  0.00    +0.000 Cl
ATOM     18  C   UNL     1       4.876   4.321  15.440  0.00  0.00    +0.000 A 
ENDBRANCH   2  12
BRANCH   8  19
ATOM     19  C   UNL     1       0.281   9.924  21.402  0.00  0.00    +0.000 A 
ATOM     20  C   UNL     1      -0.388   9.493  22.550  0.00  0.00    +0.000 A 
ATOM     21  C   UNL     1      -1.108  10.423  23.290  0.00  0.00    +0.000 A 
ATOM     22  C   UNL     1      -1.131  11.742  22.869  0.00  0.00    +0.000 A 
ATOM     23  C   UNL     1      -0.436  12.082  21.716  0.00  0.00    +0.000 A 
ATOM     24  N   UNL     1       0.268  11.206  20.974  0.00  0.00    +0.000 NA
ENDBRANCH   8  19
TORSDOF 2
ENDMDL
MODEL 2
REMARK VINA RESULT:      -8.1      1.053      1.260
REMARK  Name = 
REMARK  2 active torsions:
REMARK  status: ('A' for Active; 'I' for Inactive)
REMARK    1  A    between atoms: C_2  and  C_3
REMARK    2  A    between atoms: C_15  and  C_16
REMARK                            x       y       z     vdW  Elec       q    Type
REMARK                         _______ _______ _______ _____ _____    ______ ____
ROOT
ATOM      1  O   UNL     1       3.601   4.136  19.718  0.00  0.00    +0.000 OA
ATOM      2  C   UNL     1       3.818   5.067  18.937  0.00  0.00    +0.000 C 
ATOM      3  N   UNL     1       3.002   6.228  18.983  0.00  0.00    +0.000 N 
ATOM      4  C   UNL     1       3.301   7.363  18.131  0.00  0.00    +0.000 C 
ATOM      5  C   UNL     1       2.357   8.517  18.040  0.00  0.00    +0.000 C 
ATOM      6  N   UNL     1       1.620   8.673  19.248  0.00  0.00    +0.000 N 
ATOM      7  N   UNL     1       0.947   9.802  19.427  0.00  0.00    +0.000 NA
ATOM      8  C   UNL     1       0.349   9.642  20.617  0.00  0.00    +0.000 A 
ATOM      9  C   UNL     1       0.682   8.364  21.165  0.00  0.00    +0.000 A 
ATOM     10  C   UNL     1       1.538   7.769  20.257  0.00  0.00    +0.000 A 
ATOM     11  C   UNL     1       2.297   6.483  20.254  0.00  0.00    +0.000 C 
ENDROOT
BRANCH   2  12
ATOM     12  C   UNL     1       5.018   4.923  17.984  0.00  0.00    +0.000 A 
ATOM     13  C   UNL     1       6.387   4.922  18.328  0.00  0.00    +0.000 A 
ATOM     14  C   UNL     1       7.417   4.719  17.412  0.00  0.00    +0.000 A 
ATOM     15  C   UNL     1       7.103   4.481  16.092  0.00  0.00    +0.000 A 
ATOM     16  C   UNL     1       5.764   4.462  15.703  0.00  0.00    +0.000 A 
ATOM     17 CL   UNL     1       5.394   4.132  14.058  0.00  0.00    +0.000 Cl
ATOM     18  C   UNL     1       4.734   4.688  16.629  0.00  0.00    +0.000 A 
ENDBRANCH   2  12
BRANCH   8  19
ATOM     19  C   UNL     1      -0.491  10.699  21.181  0.00  0.00    +0.000 A 
ATOM     20  C   UNL     1      -0.678  10.786  22.563  0.00  0.00    +0.000 A 
ATOM     21  C   UNL     1      -1.495  11.794  23.062  0.00  0.00    +0.000 A 
ATOM     22  C   UNL     1      -2.087  12.678  22.176  0.00  0.00    +0.000 A 
ATOM     23  C   UNL     1      -1.845  12.517  20.818  0.00  0.00    +0.000 A 
ATOM     24  N   UNL     1      -1.063  11.550  20.301  0.00  0.00    +0.000 NA
ENDBRANCH   8  19
TORSDOF 2
ENDMDL
MODEL 3
REMARK VINA RESULT:      -7.9      2.612      4.292
REMARK  Name = 
REMARK  2 active torsions:
REMARK  status: ('A' for Active; 'I' for Inactive)
REMARK    1  A    between atoms: C_2  and  C_3
REMARK    2  A    between atoms: C_15  and  C_16
REMARK                            x       y       z     vdW  Elec       q    Type
REMARK                         _______ _______ _______ _____ _____    ______ ____
ROOT
ATOM      1  O   UNL     1       2.229   8.933  17.202  0.00  0.00    +0.000 OA
ATOM      2  C   UNL     1       2.171   8.291  18.254  0.00  0.00    +0.000 C 
ATOM      3  N   UNL     1       1.693   8.918  19.434  0.00  0.00    +0.000 N 
ATOM      4  C   UNL     1       1.538   8.151  20.656  0.00  0.00    +0.000 C 
ATOM      5  C   UNL     1       1.204   8.828  21.944  0.00  0.00    +0.000 C 
ATOM      6  N   UNL     1       0.455  10.018  21.719  0.00  0.00    +0.000 N 
ATOM      7  N   UNL     1      -0.147  10.582  22.757  0.00  0.00    +0.000 NA
ATOM      8  C   UNL     1      -0.735  11.672  22.242  0.00  0.00    +0.000 A 
ATOM      9  C   UNL     1      -0.470  11.757  20.840  0.00  0.00    +0.000 A 
ATOM     10  C   UNL     1       0.287  10.642  20.526  0.00  0.00    +0.000 A 
ATOM     11  C   UNL     1       0.828  10.098  19.245  0.00  0.00    +0.000 C 
ENDROOT
BRANCH   2  12
ATOM     12  C   UNL     1       2.581   6.807  18.200  0.00  0.00    +0.000 A 
ATOM     13  C   UNL     1       1.727   5.689  18.087  0.00  0.00    +0.000 A 
ATOM     14  C   UNL     1       2.180   4.376  17.976  0.00  0.00    +0.000 A 
ATOM     15  C   UNL     1       3.535   4.134  17.949  0.00  0.00    +0.000 A 
ATOM     16  C   UNL     1       4.421   5.207  18.046  0.00  0.00    +0.000 A 
ATOM     17 CL   UNL     1       6.107   4.885  17.978  0.00  0.00    +0.000 Cl
ATOM     18  C   UNL     1       3.956   6.524  18.179  0.00  0.00    +0.000 A 
ENDBRANCH   2  12
BRANCH   8  19
ATOM     19  C   UNL     1      -1.523  12.569  23.088  0.00  0.00    +0.000 A 
ATOM     20  C   UNL     1      -2.845  12.251  23.409  0.00  0.00    +0.000 A 
ATOM     21  C   UNL     1      -3.568  13.135  24.202  0.00  0.00    +0.000 A 
ATOM     22  C   UNL     1      -2.953  14.291  24.652  0.00  0.00    +0.000 A 
ATOM     23  C   UNL     1      -1.635  14.526  24.284  0.00  0.00    +0.000 A 
ATOM     24  N   UNL     1      -0.907  13.694  23.514  0.00  0.00    +0.000 NA
ENDBRANCH   8  19
TORSDOF 2
ENDMDL
MODEL 4
REMARK VINA RESULT:      -7.8      2.592      4.365
REMARK  Name = 
REMARK  2 active torsions:
REMARK  status: ('A' for Active; 'I' for Inactive)
REMARK    1  A    between atoms: C_2  and  C_3
REMARK    2  A    between atoms: C_15  and  C_16
REMARK                            x       y       z     vdW  Elec       q    Type
REMARK                         _______ _______ _______ _____ _____    ______ ____
ROOT
ATOM      1  O   UNL     1       2.225   8.953  17.252  0.00  0.00    +0.000 OA
ATOM      2  C   UNL     1       2.181   8.310  18.305  0.00  0.00    +0.000 C 
ATOM      3  N   UNL     1       1.655   8.915  19.477  0.00  0.00    +0.000 N 
ATOM      4  C   UNL     1       1.518   8.143  20.697  0.00  0.00    +0.000 C 
ATOM      5  C   UNL     1       1.132   8.805  21.979  0.00  0.00    +0.000 C 
ATOM      6  N   UNL     1       0.331   9.958  21.740  0.00  0.00    +0.000 N 
ATOM      7  N   UNL     1      -0.312  10.495  22.767  0.00  0.00    +0.000 NA
ATOM      8  C   UNL     1      -0.942  11.555  22.241  0.00  0.00    +0.000 A 
ATOM      9  C   UNL     1      -0.660  11.650  20.844  0.00  0.00    +0.000 A 
ATOM     10  C   UNL     1       0.153  10.573  20.543  0.00  0.00    +0.000 A 
ATOM     11  C   UNL     1       0.739  10.053  19.272  0.00  0.00    +0.000 C 
ENDROOT
BRANCH   2  12
ATOM     12  C   UNL     1       2.661   6.848  18.260  0.00  0.00    +0.000 A 
ATOM     13  C   UNL     1       1.860   5.687  18.221  0.00  0.00    +0.000 A 
ATOM     14  C   UNL     1       2.370   4.395  18.113  0.00  0.00    +0.000 A 
ATOM     15  C   UNL     1       3.733   4.219  18.013  0.00  0.00    +0.000 A 
ATOM     16  C   UNL     1       4.568   5.336  18.035  0.00  0.00    +0.000 A 
ATOM     17 CL   UNL     1       6.261   5.096  17.878  0.00  0.00    +0.000 Cl
ATOM     18  C   UNL     1       4.046   6.632  18.166  0.00  0.00    +0.000 A 
ENDBRANCH   2  12
BRANCH   8  19
ATOM     19  C   UNL     1      -1.786  12.414  23.074  0.00  0.00    +0.000 A 
ATOM     20  C   UNL     1      -1.362  13.701  23.412  0.00  0.00    +0.000 A 
ATOM     21  C   UNL     1      -2.182  14.483  24.217  0.00  0.00    +0.000 A 
ATOM     22  C   UNL     1      -3.391  13.963  24.647  0.00  0.00    +0.000 A 
ATOM     23  C   UNL     1      -3.734  12.674  24.262  0.00  0.00    +0.000 A 
ATOM     24  N   UNL     1      -2.960  11.888  23.486  0.00  0.00    +0.000 NA
ENDBRANCH   8  19
TORSDOF 2
ENDMDL
MODEL 5
REMARK VINA RESULT:      -7.8      1.852      2.513
REMARK  Name = 
REMARK  2 active torsions:
REMARK  status: ('A' for Active; 'I' for Inactive)
REMARK    1  A    between atoms: C_2  and  C_3
REMARK    2  A    between atoms: C_15  and  C_16
REMARK                            x       y       z     vdW  Elec       q    Type
REMARK                         _______ _______ _______ _____ _____    ______ ____
ROOT
ATOM      1  O   UNL     1       2.452   4.217  20.273  0.00  0.00    +0.000 OA
ATOM      2  C   UNL     1       2.780   5.089  19.464  0.00  0.00    +0.000 C 
ATOM      3  N   UNL     1       2.196   6.380  19.547  0.00  0.00    +0.000 N 
ATOM      4  C   UNL     1       2.636   7.438  18.658  0.00  0.00    +0.000 C 
ATOM      5  C   UNL     1       1.916   8.746  18.614  0.00  0.00    +0.000 C 
ATOM      6  N   UNL     1       1.308   9.039  19.868  0.00  0.00    +0.000 N 
ATOM      7  N   UNL     1       0.868  10.273  20.074  0.00  0.00    +0.000 NA
ATOM      8  C   UNL     1       0.336  10.229  21.304  0.00  0.00    +0.000 A 
ATOM      9  C   UNL     1       0.467   8.914  21.849  0.00  0.00    +0.000 A 
ATOM     10  C   UNL     1       1.133   8.169  20.894  0.00  0.00    +0.000 A 
ATOM     11  C   UNL     1       1.641   6.765  20.859  0.00  0.00    +0.000 C 
ENDROOT
BRANCH   2  12
ATOM     12  C   UNL     1       3.863   4.724  18.432  0.00  0.00    +0.000 A 
ATOM     13  C   UNL     1       3.666   4.217  17.130  0.00  0.00    +0.000 A 
ATOM     14  C   UNL     1       4.700   3.972  16.228  0.00  0.00    +0.000 A 
ATOM     15  C   UNL     1       5.995   4.257  16.600  0.00  0.00    +0.000 A 
ATOM     16  C   UNL     1       6.241   4.770  17.873  0.00  0.00    +0.000 A 
ATOM     17 CL   UNL     1       7.861   5.147  18.305  0.00  0.00    +0.000 Cl
ATOM     18  C   UNL     1       5.196   4.993  18.783  0.00  0.00    +0.000 A 
ENDBRANCH   2  12
BRANCH   8  19
ATOM     19  C   UNL     1      -0.254  11.424  21.909  0.00  0.00    +0.000 A 
ATOM     20  C   UNL     1      -1.403  11.321  22.695  0.00  0.00    +0.000 A 
ATOM     21  C   UNL     1      -1.944  12.480  23.240  0.00  0.00    +0.000 A 
ATOM     22  C   UNL     1      -1.322  13.691  22.991  0.00  0.00    +0.000 A 
ATOM     23  C   UNL     1      -0.182  13.701  22.198  0.00  0.00    +0.000 A 
ATOM     24  N   UNL     1       0.365  12.598  21.652  0.00  0.00    +0.000 NA
ENDBRANCH   8  19
TORSDOF 2
ENDMDL
MODEL 6
REMARK VINA RESULT:      -7.6      2.817      4.250
REMARK  Name = 
REMARK  2 active torsions:
REMARK  status: ('A' for Active; 'I' for Inactive)
REMARK    1  A    between atoms: C_2  and  C_3
REMARK    2  A    between atoms: C_15  and  C_16
REMARK                            x       y       z     vdW  Elec       q    Type
REMARK                         _______ _______ _______ _____ _____    ______ ____
ROOT
ATOM      1  O   UNL     1       2.191   8.767  17.127  0.00  0.00    +0.000 OA
ATOM      2  C   UNL     1       2.225   8.183  18.214  0.00  0.00    +0.000 C 
ATOM      3  N   UNL     1       1.744   8.837  19.378  0.00  0.00    +0.000 N 
ATOM      4  C   UNL     1       1.697   8.131  20.644  0.00  0.00    +0.000 C 
ATOM      5  C   UNL     1       1.359   8.853  21.907  0.00  0.00    +0.000 C 
ATOM      6  N   UNL     1       0.510   9.966  21.650  0.00  0.00    +0.000 N 
ATOM      7  N   UNL     1      -0.094  10.541  22.682  0.00  0.00    +0.000 NA
ATOM      8  C   UNL     1      -0.786  11.551  22.134  0.00  0.00    +0.000 A 
ATOM      9  C   UNL     1      -0.582  11.576  20.720  0.00  0.00    +0.000 A 
ATOM     10  C   UNL     1       0.248  10.507  20.434  0.00  0.00    +0.000 A 
ATOM     11  C   UNL     1       0.781   9.935  19.163  0.00  0.00    +0.000 C 
ENDROOT
BRANCH   2  12
ATOM     12  C   UNL     1       2.749   6.735  18.221  0.00  0.00    +0.000 A 
ATOM     13  C   UNL     1       4.092   6.312  18.308  0.00  0.00    +0.000 A 
ATOM     14  C   UNL     1       4.483   4.976  18.376  0.00  0.00    +0.000 A 
ATOM     15  C   UNL     1       3.516   3.995  18.385  0.00  0.00    +0.000 A 
ATOM     16  C   UNL     1       2.173   4.361  18.312  0.00  0.00    +0.000 A 
ATOM     17 CL   UNL     1       0.983   3.123  18.356  0.00  0.00    +0.000 Cl
ATOM     18  C   UNL     1       1.789   5.708  18.222  0.00  0.00    +0.000 A 
ENDBRANCH   2  12
BRANCH   8  19
ATOM     19  C   UNL     1      -1.610  12.431  22.964  0.00  0.00    +0.000 A 
ATOM     20  C   UNL     1      -2.883  12.025  23.370  0.00  0.00    +0.000 A 
ATOM     21  C   UNL     1      -3.644  12.893  24.145  0.00  0.00    +0.000 A 
ATOM     22  C   UNL     1      -3.111  14.123  24.492  0.00  0.00    +0.000 A 
ATOM     23  C   UNL     1      -1.837  14.444  24.045  0.00  0.00    +0.000 A 
ATOM     24  N   UNL     1      -1.075  13.628  23.290  0.00  0.00    +0.000 NA
ENDBRANCH   8  19
TORSDOF 2
ENDMDL
MODEL 7
REMARK VINA RESULT:      -7.6      4.270      9.514
REMARK  Name = 
REMARK  2 active torsions:
REMARK  status: ('A' for Active; 'I' for Inactive)
REMARK    1  A    between atoms: C_2  and  C_3
REMARK    2  A    between atoms: C_15  and  C_16
REMARK                            x       y       z     vdW  Elec       q    Type
REMARK                         _______ _______ _______ _____ _____    ______ ____
ROOT
ATOM      1  O   UNL     1       0.041   9.953  23.587  0.00  0.00    +0.000 OA
ATOM      2  C   UNL     1      -0.180  10.395  22.456  0.00  0.00    +0.000 C 
ATOM      3  N   UNL     1       0.537   9.876  21.347  0.00  0.00    +0.000 N 
ATOM      4  C   UNL     1       0.225  10.325  20.003  0.00  0.00    +0.000 C 
ATOM      5  C   UNL     1       1.082   9.923  18.847  0.00  0.00    +0.000 C 
ATOM      6  N   UNL     1       1.699   8.662  19.081  0.00  0.00    +0.000 N 
ATOM      7  N   UNL     1       2.265   8.045  18.053  0.00  0.00    +0.000 NA
ATOM      8  C   UNL     1       2.771   6.921  18.583  0.00  0.00    +0.000 A 
ATOM      9  C   UNL     1       2.492   6.872  19.984  0.00  0.00    +0.000 A 
ATOM     10  C   UNL     1       1.764   8.012  20.270  0.00  0.00    +0.000 A 
ATOM     11  C   UNL     1       1.110   8.526  21.509  0.00  0.00    +0.000 C 
ENDROOT
BRANCH   2  12
ATOM     12  C   UNL     1      -1.281  11.463  22.318  0.00  0.00    +0.000 A 
ATOM     13  C   UNL     1      -1.505  12.322  21.222  0.00  0.00    +0.000 A 
ATOM     14  C   UNL     1      -2.568  13.220  21.144  0.00  0.00    +0.000 A 
ATOM     15  C   UNL     1      -3.478  13.273  22.176  0.00  0.00    +0.000 A 
ATOM     16  C   UNL     1      -3.307  12.436  23.278  0.00  0.00    +0.000 A 
ATOM     17 CL   UNL     1      -4.472  12.495  24.540  0.00  0.00    +0.000 Cl
ATOM     18  C   UNL     1      -2.222  11.549  23.358  0.00  0.00    +0.000 A 
ENDBRANCH   2  12
BRANCH   8  19
ATOM     19  C   UNL     1       3.476   5.949  17.747  0.00  0.00    +0.000 A 
ATOM     20  C   UNL     1       3.099   4.605  17.760  0.00  0.00    +0.000 A 
ATOM     21  C   UNL     1       3.802   3.708  16.965  0.00  0.00    +0.000 A 
ATOM     22  C   UNL     1       4.843   4.178  16.183  0.00  0.00    +0.000 A 
ATOM     23  C   UNL     1       5.150   5.531  16.230  0.00  0.00    +0.000 A 
ATOM     24  N   UNL     1       4.492   6.427  16.993  0.00  0.00    +0.000 NA
ENDBRANCH   8  19
TORSDOF 2
ENDMDL
MODEL 8
REMARK VINA RESULT:      -7.6      2.826      4.247
REMARK  Name = 
REMARK  2 active torsions:
REMARK  status: ('A' for Active; 'I' for Inactive)
REMARK    1  A    between atoms: C_2  and  C_3
REMARK    2  A    between atoms: C_15  and  C_16
REMARK                            x       y       z     vdW  Elec       q    Type
REMARK                         _______ _______ _______ _____ _____    ______ ____
ROOT
ATOM      1  O   UNL     1       2.284   8.574  17.185  0.00  0.00    +0.000 OA
ATOM      2  C   UNL     1       2.303   8.009  18.283  0.00  0.00    +0.000 C 
ATOM      3  N   UNL     1       1.791   8.678  19.426  0.00  0.00    +0.000 N 
ATOM      4  C   UNL     1       1.728   7.993  20.703  0.00  0.00    +0.000 C 
ATOM      5  C   UNL     1       1.356   8.733  21.946  0.00  0.00    +0.000 C 
ATOM      6  N   UNL     1       0.500   9.831  21.653  0.00  0.00    +0.000 N 
ATOM      7  N   UNL     1      -0.132  10.416  22.662  0.00  0.00    +0.000 NA
ATOM      8  C   UNL     1      -0.824  11.408  22.084  0.00  0.00    +0.000 A 
ATOM      9  C   UNL     1      -0.593  11.411  20.673  0.00  0.00    +0.000 A 
ATOM     10  C   UNL     1       0.255  10.348  20.423  0.00  0.00    +0.000 A 
ATOM     11  C   UNL     1       0.820   9.760  19.172  0.00  0.00    +0.000 C 
ENDROOT
BRANCH   2  12
ATOM     12  C   UNL     1       2.843   6.568  18.326  0.00  0.00    +0.000 A 
ATOM     13  C   UNL     1       4.180   6.162  18.527  0.00  0.00    +0.000 A 
ATOM     14  C   UNL     1       4.581   4.831  18.620  0.00  0.00    +0.000 A 
ATOM     15  C   UNL     1       3.631   3.837  18.537  0.00  0.00    +0.000 A 
ATOM     16  C   UNL     1       2.294   4.187  18.349  0.00  0.00    +0.000 A 
ATOM     17 CL   UNL     1       1.122   2.933  18.280  0.00  0.00    +0.000 Cl
ATOM     18  C   UNL     1       1.902   5.530  18.236  0.00  0.00    +0.000 A 
ENDBRANCH   2  12
BRANCH   8  19
ATOM     19  C   UNL     1      -1.675  12.292  22.881  0.00  0.00    +0.000 A 
ATOM     20  C   UNL     1      -1.233  13.571  23.228  0.00  0.00    +0.000 A 
ATOM     21  C   UNL     1      -2.063  14.376  23.999  0.00  0.00    +0.000 A 
ATOM     22  C   UNL     1      -3.298  13.888  24.389  0.00  0.00    +0.000 A 
ATOM     23  C   UNL     1      -3.657  12.605  23.999  0.00  0.00    +0.000 A 
ATOM     24  N   UNL     1      -2.876  11.796  23.256  0.00  0.00    +0.000 NA
ENDBRANCH   8  19
TORSDOF 2
ENDMDL
MODEL 9
REMARK VINA RESULT:      -7.4      1.808      2.627
REMARK  Name = 
REMARK  2 active torsions:
REMARK  status: ('A' for Active; 'I' for Inactive)
REMARK    1  A    between atoms: C_2  and  C_3
REMARK    2  A    between atoms: C_15  and  C_16
REMARK                            x       y       z     vdW  Elec       q    Type
REMARK                         _______ _______ _______ _____ _____    ______ ____
ROOT
ATOM      1  O   UNL     1       3.008   4.858  20.125  0.00  0.00    +0.000 OA
ATOM      2  C   UNL     1       3.119   5.692  19.221  0.00  0.00    +0.000 C 
ATOM      3  N   UNL     1       2.326   6.868  19.249  0.00  0.00    +0.000 N 
ATOM      4  C   UNL     1       2.509   7.895  18.240  0.00  0.00    +0.000 C 
ATOM      5  C   UNL     1       1.569   9.052  18.152  0.00  0.00    +0.000 C 
ATOM      6  N   UNL     1       1.010   9.358  19.425  0.00  0.00    +0.000 N 
ATOM      7  N   UNL     1       0.377  10.514  19.566  0.00  0.00    +0.000 NA
ATOM      8  C   UNL     1      -0.050  10.500  20.838  0.00  0.00    +0.000 A 
ATOM      9  C   UNL     1       0.348   9.285  21.476  0.00  0.00    +0.000 A 
ATOM     10  C   UNL     1       1.065   8.573  20.531  0.00  0.00    +0.000 A 
ATOM     11  C   UNL     1       1.807   7.279  20.568  0.00  0.00    +0.000 C 
ENDROOT
BRANCH   2  12
ATOM     12  C   UNL     1       4.173   5.416  18.133  0.00  0.00    +0.000 A 
ATOM     13  C   UNL     1       4.061   4.532  17.039  0.00  0.00    +0.000 A 
ATOM     14  C   UNL     1       5.037   4.387  16.055  0.00  0.00    +0.000 A 
ATOM     15  C   UNL     1       6.176   5.158  16.121  0.00  0.00    +0.000 A 
ATOM     16  C   UNL     1       6.330   6.056  17.177  0.00  0.00    +0.000 A 
ATOM     17 CL   UNL     1       7.744   7.031  17.224  0.00  0.00    +0.000 Cl
ATOM     18  C   UNL     1       5.351   6.181  18.176  0.00  0.00    +0.000 A 
ENDBRANCH   2  12
BRANCH   8  19
ATOM     19  C   UNL     1      -0.795  11.631  21.391  0.00  0.00    +0.000 A 
ATOM     20  C   UNL     1      -1.679  12.353  20.585  0.00  0.00    +0.000 A 
ATOM     21  C   UNL     1      -2.358  13.431  21.141  0.00  0.00    +0.000 A 
ATOM     22  C   UNL     1      -2.142  13.746  22.471  0.00  0.00    +0.000 A 
ATOM     23  C   UNL     1      -1.246  12.974  23.199  0.00  0.00    +0.000 A 
ATOM     24  N   UNL     1      -0.568  11.926  22.690  0.00  0.00    +0.000 NA
ENDBRANCH   8  19
TORSDOF 2
ENDMDL
