MODEL 1
REMARK VINA RESULT:      -7.3      0.000      0.000
REMARK  Name = 
REMARK  12 active torsions:
REMARK  status: ('A' for Active; 'I' for Inactive)
REMARK    1  A    between atoms: C_1  and  C_2
REMARK    2  A    between atoms: C_2  and  C_3
REMARK    3  A    between atoms: C_2  and  C_4
REMARK    4  A    between atoms: C_2  and  C_6
REMARK    5  A    between atoms: C_6  and  C_7
REMARK    6  A    between atoms: C_10  and  N_11
REMARK    7  A    between atoms: N_11  and  C_27
REMARK    8  A    between atoms: C_12  and  C_14
REMARK    9  A    between atoms: C_17  and  C_18
REMARK   10  A    between atoms: C_18  and  C_19
REMARK   11  A    between atoms: C_18  and  O_20
REMARK   12  A    between atoms: C_18  and  C_21
REMARK                            x       y       z     vdW  Elec       q    Type
REMARK                         _______ _______ _______ _____ _____    ______ ____
ROOT
ATOM      1  N   UNL     1       0.213  11.952  18.848  0.00  0.00    +0.000 N 
ATOM      2  C   UNL     1      -0.080  10.564  18.803  0.00  0.00    +0.000 C 
ATOM      3  O   UNL     1      -1.195  10.107  18.550  0.00  0.00    +0.000 OA
ENDROOT
BRANCH   1   7
ATOM      4  C   UNL     1      -2.027  13.860  21.345  0.00  0.00    +0.000 C 
ATOM      5  C   UNL     1      -0.628  14.265  20.865  0.00  0.00    +0.000 C 
ATOM      6  C   UNL     1      -0.491  14.347  19.352  0.00  0.00    +0.000 C 
ATOM      7  C   UNL     1      -0.843  13.014  18.663  0.00  0.00    +0.000 C 
ATOM      8  C   UNL     1      -2.312  12.720  19.023  0.00  0.00    +0.000 C 
ATOM      9  C   UNL     1      -2.611  12.693  20.522  0.00  0.00    +0.000 C 
BRANCH   4  10
ATOM     10  C   UNL     1      -2.042  13.417  22.836  0.00  0.00    +0.000 C 
BRANCH  10  12
ATOM     11  C   UNL     1      -2.510  14.680  24.991  0.00  0.00    +0.000 C 
ATOM     12  C   UNL     1      -3.136  13.944  23.800  0.00  0.00    +0.000 C 
ATOM     13  C   UNL     1      -4.023  14.929  23.005  0.00  0.00    +0.000 C 
BRANCH  12  14
ATOM     14  C   UNL     1      -4.028  12.871  24.286  0.00  0.00    +0.000 C 
ATOM     15  N   UNL     1      -4.709  12.009  24.671  0.00  0.00    +0.000 NA
ENDBRANCH  12  14
ENDBRANCH  10  12
ENDBRANCH   4  10
ENDBRANCH   1   7
BRANCH   2  16
ATOM     16  C   UNL     1       0.954   9.499  19.019  0.00  0.00    +0.000 A 
ATOM     17  C   UNL     1       1.057   8.894  20.283  0.00  0.00    +0.000 A 
ATOM     18  C   UNL     1       1.760   7.685  20.454  0.00  0.00    +0.000 A 
ATOM     19  C   UNL     1       2.389   7.060  19.365  0.00  0.00    +0.000 A 
ATOM     20  C   UNL     1       2.370   7.727  18.135  0.00  0.00    +0.000 A 
ATOM     21  C   UNL     1       1.622   8.892  17.962  0.00  0.00    +0.000 A 
BRANCH  19  22
ATOM     22  C   UNL     1       2.943   5.632  19.423  0.00  0.00    +0.000 C 
ATOM     23  C   UNL     1       2.258   4.904  20.603  0.00  0.00    +0.000 C 
BRANCH  22  24
ATOM     24  C   UNL     1       2.731   4.813  18.105  0.00  0.00    +0.000 C 
ATOM     25  F   UNL     1       3.602   5.124  17.121  0.00  0.00    +0.000 F 
ATOM     26  F   UNL     1       2.871   3.484  18.355  0.00  0.00    +0.000 F 
ATOM     27  F   UNL     1       1.483   4.976  17.600  0.00  0.00    +0.000 F 
ENDBRANCH  22  24
BRANCH  22  28
ATOM     28  O   UNL     1       4.347   5.681  19.785  0.00  0.00    +0.000 OA
ATOM     29  H   UNL     1       4.808   6.167  19.075  0.00  0.00    +0.000 HD
ENDBRANCH  22  28
ENDBRANCH  19  22
ENDBRANCH   2  16
BRANCH   1  30
ATOM     30  C   UNL     1       1.577  12.448  19.047  0.00  0.00    +0.000 C 
ATOM     31  C   UNL     1       2.656  12.157  18.017  0.00  0.00    +0.000 C 
ATOM     32  C   UNL     1       2.226  13.560  18.239  0.00  0.00    +0.000 C 
ENDBRANCH   1  30
TORSDOF 9
ENDMDL
MODEL 2
REMARK VINA RESULT:      -7.2      0.729      1.015
REMARK  Name = 
REMARK  12 active torsions:
REMARK  status: ('A' for Active; 'I' for Inactive)
REMARK    1  A    between atoms: C_1  and  C_2
REMARK    2  A    between atoms: C_2  and  C_3
REMARK    3  A    between atoms: C_2  and  C_4
REMARK    4  A    between atoms: C_2  and  C_6
REMARK    5  A    between atoms: C_6  and  C_7
REMARK    6  A    between atoms: C_10  and  N_11
REMARK    7  A    between atoms: N_11  and  C_27
REMARK    8  A    between atoms: C_12  and  C_14
REMARK    9  A    between atoms: C_17  and  C_18
REMARK   10  A    between atoms: C_18  and  C_19
REMARK   11  A    between atoms: C_18  and  O_20
REMARK   12  A    between atoms: C_18  and  C_21
REMARK                            x       y       z     vdW  Elec       q    Type
REMARK                         _______ _______ _______ _____ _____    ______ ____
ROOT
ATOM      1  N   UNL     1       0.235  11.936  18.872  0.00  0.00    +0.000 N 
ATOM      2  C   UNL     1      -0.053  10.549  18.791  0.00  0.00    +0.000 C 
ATOM      3  O   UNL     1      -1.160  10.094  18.501  0.00  0.00    +0.000 OA
ENDROOT
BRANCH   1   7
ATOM      4  C   UNL     1      -2.296  13.552  21.296  0.00  0.00    +0.000 C 
ATOM      5  C   UNL     1      -0.863  14.020  21.011  0.00  0.00    +0.000 C 
ATOM      6  C   UNL     1      -0.570  14.258  19.538  0.00  0.00    +0.000 C 
ATOM      7  C   UNL     1      -0.818  12.999  18.683  0.00  0.00    +0.000 C 
ATOM      8  C   UNL     1      -2.310  12.654  18.854  0.00  0.00    +0.000 C 
ATOM      9  C   UNL     1      -2.764  12.469  20.301  0.00  0.00    +0.000 C 
BRANCH   4  10
ATOM     10  C   UNL     1      -2.457  12.957  22.725  0.00  0.00    +0.000 C 
BRANCH  10  12
ATOM     11  C   UNL     1      -4.176  12.416  24.516  0.00  0.00    +0.000 C 
ATOM     12  C   UNL     1      -3.517  13.533  23.698  0.00  0.00    +0.000 C 
ATOM     13  C   UNL     1      -2.791  14.502  24.659  0.00  0.00    +0.000 C 
BRANCH  12  14
ATOM     14  C   UNL     1      -4.553  14.325  23.004  0.00  0.00    +0.000 C 
ATOM     15  N   UNL     1      -5.370  14.967  22.478  0.00  0.00    +0.000 NA
ENDBRANCH  12  14
ENDBRANCH  10  12
ENDBRANCH   4  10
ENDBRANCH   1   7
BRANCH   2  16
ATOM     16  C   UNL     1       0.978   9.481  19.009  0.00  0.00    +0.000 A 
ATOM     17  C   UNL     1       1.076   8.876  20.274  0.00  0.00    +0.000 A 
ATOM     18  C   UNL     1       1.776   7.665  20.446  0.00  0.00    +0.000 A 
ATOM     19  C   UNL     1       2.406   7.038  19.358  0.00  0.00    +0.000 A 
ATOM     20  C   UNL     1       2.391   7.705  18.129  0.00  0.00    +0.000 A 
ATOM     21  C   UNL     1       1.647   8.872  17.954  0.00  0.00    +0.000 A 
BRANCH  19  22
ATOM     22  C   UNL     1       2.957   5.609  19.418  0.00  0.00    +0.000 C 
ATOM     23  C   UNL     1       2.310   4.901  20.631  0.00  0.00    +0.000 C 
BRANCH  22  24
ATOM     24  C   UNL     1       2.697   4.773  18.120  0.00  0.00    +0.000 C 
ATOM     25  F   UNL     1       3.555   5.044  17.113  0.00  0.00    +0.000 F 
ATOM     26  F   UNL     1       2.808   3.445  18.391  0.00  0.00    +0.000 F 
ATOM     27  F   UNL     1       1.444   4.959  17.637  0.00  0.00    +0.000 F 
ENDBRANCH  22  24
BRANCH  22  28
ATOM     28  O   UNL     1       4.372   5.658  19.731  0.00  0.00    +0.000 OA
ATOM     29  H   UNL     1       4.507   6.419  20.326  0.00  0.00    +0.000 HD
ENDBRANCH  22  28
ENDBRANCH  19  22
ENDBRANCH   2  16
BRANCH   1  30
ATOM     30  C   UNL     1       1.593  12.429  19.114  0.00  0.00    +0.000 C 
ATOM     31  C   UNL     1       2.675  12.245  18.063  0.00  0.00    +0.000 C 
ATOM     32  C   UNL     1       2.227  13.617  18.407  0.00  0.00    +0.000 C 
ENDBRANCH   1  30
TORSDOF 9
ENDMDL
MODEL 3
REMARK VINA RESULT:      -7.2      0.787      1.313
REMARK  Name = 
REMARK  12 active torsions:
REMARK  status: ('A' for Active; 'I' for Inactive)
REMARK    1  A    between atoms: C_1  and  C_2
REMARK    2  A    between atoms: C_2  and  C_3
REMARK    3  A    between atoms: C_2  and  C_4
REMARK    4  A    between atoms: C_2  and  C_6
REMARK    5  A    between atoms: C_6  and  C_7
REMARK    6  A    between atoms: C_10  and  N_11
REMARK    7  A    between atoms: N_11  and  C_27
REMARK    8  A    between atoms: C_12  and  C_14
REMARK    9  A    between atoms: C_17  and  C_18
REMARK   10  A    between atoms: C_18  and  C_19
REMARK   11  A    between atoms: C_18  and  O_20
REMARK   12  A    between atoms: C_18  and  C_21
REMARK                            x       y       z     vdW  Elec       q    Type
REMARK                         _______ _______ _______ _____ _____    ______ ____
ROOT
ATOM      1  N   UNL     1       0.231  11.997  18.910  0.00  0.00    +0.000 N 
ATOM      2  C   UNL     1      -0.060  10.611  18.814  0.00  0.00    +0.000 C 
ATOM      3  O   UNL     1      -1.165  10.162  18.511  0.00  0.00    +0.000 OA
ENDROOT
BRANCH   1   7
ATOM      4  C   UNL     1      -2.372  13.540  21.305  0.00  0.00    +0.000 C 
ATOM      5  C   UNL     1      -0.933  14.018  21.075  0.00  0.00    +0.000 C 
ATOM      6  C   UNL     1      -0.598  14.298  19.618  0.00  0.00    +0.000 C 
ATOM      7  C   UNL     1      -0.819  13.064  18.722  0.00  0.00    +0.000 C 
ATOM      8  C   UNL     1      -2.314  12.712  18.839  0.00  0.00    +0.000 C 
ATOM      9  C   UNL     1      -2.810  12.486  20.267  0.00  0.00    +0.000 C 
BRANCH   4  10
ATOM     10  C   UNL     1      -2.574  12.905  22.711  0.00  0.00    +0.000 C 
BRANCH  10  12
ATOM     11  C   UNL     1      -4.711  14.253  22.978  0.00  0.00    +0.000 C 
ATOM     12  C   UNL     1      -3.580  13.524  23.714  0.00  0.00    +0.000 C 
ATOM     13  C   UNL     1      -4.181  12.368  24.546  0.00  0.00    +0.000 C 
BRANCH  12  14
ATOM     14  C   UNL     1      -2.932  14.442  24.674  0.00  0.00    +0.000 C 
ATOM     15  N   UNL     1      -2.446  15.171  25.440  0.00  0.00    +0.000 NA
ENDBRANCH  12  14
ENDBRANCH  10  12
ENDBRANCH   4  10
ENDBRANCH   1   7
BRANCH   2  16
ATOM     16  C   UNL     1       0.967   9.540  19.033  0.00  0.00    +0.000 A 
ATOM     17  C   UNL     1       1.047   8.916  20.289  0.00  0.00    +0.000 A 
ATOM     18  C   UNL     1       1.743   7.703  20.454  0.00  0.00    +0.000 A 
ATOM     19  C   UNL     1       2.389   7.091  19.367  0.00  0.00    +0.000 A 
ATOM     20  C   UNL     1       2.392   7.776  18.147  0.00  0.00    +0.000 A 
ATOM     21  C   UNL     1       1.651   8.945  17.979  0.00  0.00    +0.000 A 
BRANCH  19  22
ATOM     22  C   UNL     1       2.937   5.660  19.415  0.00  0.00    +0.000 C 
ATOM     23  C   UNL     1       2.299   4.946  20.628  0.00  0.00    +0.000 C 
BRANCH  22  24
ATOM     24  C   UNL     1       2.666   4.832  18.114  0.00  0.00    +0.000 C 
ATOM     25  F   UNL     1       1.443   5.035  17.580  0.00  0.00    +0.000 F 
ATOM     26  F   UNL     1       3.578   5.156  17.157  0.00  0.00    +0.000 F 
ATOM     27  F   UNL     1       2.794   3.498  18.324  0.00  0.00    +0.000 F 
ENDBRANCH  22  24
BRANCH  22  28
ATOM     28  O   UNL     1       4.355   5.705  19.717  0.00  0.00    +0.000 OA
ATOM     29  H   UNL     1       4.713   4.815  19.542  0.00  0.00    +0.000 HD
ENDBRANCH  22  28
ENDBRANCH  19  22
ENDBRANCH   2  16
BRANCH   1  30
ATOM     30  C   UNL     1       1.587  12.486  19.168  0.00  0.00    +0.000 C 
ATOM     31  C   UNL     1       2.664  12.357  18.104  0.00  0.00    +0.000 C 
ATOM     32  C   UNL     1       2.211  13.709  18.515  0.00  0.00    +0.000 C 
ENDBRANCH   1  30
TORSDOF 9
ENDMDL
MODEL 4
REMARK VINA RESULT:      -7.0      2.602      4.870
REMARK  Name = 
REMARK  12 active torsions:
REMARK  status: ('A' for Active; 'I' for Inactive)
REMARK    1  A    between atoms: C_1  and  C_2
REMARK    2  A    between atoms: C_2  and  C_3
REMARK    3  A    between atoms: C_2  and  C_4
REMARK    4  A    between atoms: C_2  and  C_6
REMARK    5  A    between atoms: C_6  and  C_7
REMARK    6  A    between atoms: C_10  and  N_11
REMARK    7  A    between atoms: N_11  and  C_27
REMARK    8  A    between atoms: C_12  and  C_14
REMARK    9  A    between atoms: C_17  and  C_18
REMARK   10  A    between atoms: C_18  and  C_19
REMARK   11  A    between atoms: C_18  and  O_20
REMARK   12  A    between atoms: C_18  and  C_21
REMARK                            x       y       z     vdW  Elec       q    Type
REMARK                         _______ _______ _______ _____ _____    ______ ____
ROOT
ATOM      1  N   UNL     1      -0.150  11.500  19.840  0.00  0.00    +0.000 N 
ATOM      2  C   UNL     1       0.750  10.573  20.426  0.00  0.00    +0.000 C 
ATOM      3  O   UNL     1       1.272  10.728  21.531  0.00  0.00    +0.000 OA
ENDROOT
BRANCH   1   7
ATOM      4  C   UNL     1       1.626  14.925  19.905  0.00  0.00    +0.000 C 
ATOM      5  C   UNL     1       0.604  14.436  18.871  0.00  0.00    +0.000 C 
ATOM      6  C   UNL     1      -0.708  13.958  19.475  0.00  0.00    +0.000 C 
ATOM      7  C   UNL     1      -0.501  12.816  20.489  0.00  0.00    +0.000 C 
ATOM      8  C   UNL     1       0.390  13.393  21.606  0.00  0.00    +0.000 C 
ATOM      9  C   UNL     1       1.714  13.989  21.128  0.00  0.00    +0.000 C 
BRANCH   4  10
ATOM     10  C   UNL     1       3.062  15.042  19.317  0.00  0.00    +0.000 C 
BRANCH  10  12
ATOM     11  C   UNL     1       3.405  17.436  20.098  0.00  0.00    +0.000 C 
ATOM     12  C   UNL     1       3.656  16.431  18.967  0.00  0.00    +0.000 C 
ATOM     13  C   UNL     1       5.179  16.252  18.778  0.00  0.00    +0.000 C 
BRANCH  12  14
ATOM     14  C   UNL     1       3.132  16.966  17.694  0.00  0.00    +0.000 C 
ATOM     15  N   UNL     1       2.717  17.413  16.702  0.00  0.00    +0.000 NA
ENDBRANCH  12  14
ENDBRANCH  10  12
ENDBRANCH   4  10
ENDBRANCH   1   7
BRANCH   2  16
ATOM     16  C   UNL     1       1.133   9.277  19.775  0.00  0.00    +0.000 A 
ATOM     17  C   UNL     1       1.616   9.292  18.456  0.00  0.00    +0.000 A 
ATOM     18  C   UNL     1       2.292   8.179  17.918  0.00  0.00    +0.000 A 
ATOM     19  C   UNL     1       2.488   7.018  18.684  0.00  0.00    +0.000 A 
ATOM     20  C   UNL     1       1.909   6.976  19.957  0.00  0.00    +0.000 A 
ATOM     21  C   UNL     1       1.294   8.103  20.503  0.00  0.00    +0.000 A 
BRANCH  19  22
ATOM     22  C   UNL     1       3.427   5.882  18.260  0.00  0.00    +0.000 C 
ATOM     23  C   UNL     1       4.380   5.589  19.442  0.00  0.00    +0.000 C 
BRANCH  22  24
ATOM     24  C   UNL     1       2.686   4.568  17.841  0.00  0.00    +0.000 C 
ATOM     25  F   UNL     1       1.441   4.770  17.361  0.00  0.00    +0.000 F 
ATOM     26  F   UNL     1       3.389   3.928  16.868  0.00  0.00    +0.000 F 
ATOM     27  F   UNL     1       2.580   3.693  18.871  0.00  0.00    +0.000 F 
ENDBRANCH  22  24
BRANCH  22  28
ATOM     28  O   UNL     1       4.292   6.354  17.196  0.00  0.00    +0.000 OA
ATOM     29  H   UNL     1       5.049   5.740  17.149  0.00  0.00    +0.000 HD
ENDBRANCH  22  28
ENDBRANCH  19  22
ENDBRANCH   2  16
BRANCH   1  30
ATOM     30  C   UNL     1      -0.829  11.222  18.572  0.00  0.00    +0.000 C 
ATOM     31  C   UNL     1      -1.788  10.049  18.457  0.00  0.00    +0.000 C 
ATOM     32  C   UNL     1      -2.314  11.429  18.316  0.00  0.00    +0.000 C 
ENDBRANCH   1  30
TORSDOF 9
ENDMDL
MODEL 5
REMARK VINA RESULT:      -7.0      1.720      2.444
REMARK  Name = 
REMARK  12 active torsions:
REMARK  status: ('A' for Active; 'I' for Inactive)
REMARK    1  A    between atoms: C_1  and  C_2
REMARK    2  A    between atoms: C_2  and  C_3
REMARK    3  A    between atoms: C_2  and  C_4
REMARK    4  A    between atoms: C_2  and  C_6
REMARK    5  A    between atoms: C_6  and  C_7
REMARK    6  A    between atoms: C_10  and  N_11
REMARK    7  A    between atoms: N_11  and  C_27
REMARK    8  A    between atoms: C_12  and  C_14
REMARK    9  A    between atoms: C_17  and  C_18
REMARK   10  A    between atoms: C_18  and  C_19
REMARK   11  A    between atoms: C_18  and  O_20
REMARK   12  A    between atoms: C_18  and  C_21
REMARK                            x       y       z     vdW  Elec       q    Type
REMARK                         _______ _______ _______ _____ _____    ______ ____
ROOT
ATOM      1  N   UNL     1      -0.259  11.493  19.979  0.00  0.00    +0.000 N 
ATOM      2  C   UNL     1       0.861  10.746  20.430  0.00  0.00    +0.000 C 
ATOM      3  O   UNL     1       1.725  11.193  21.184  0.00  0.00    +0.000 OA
ENDROOT
BRANCH   1   7
ATOM      4  C   UNL     1      -2.597  13.273  22.480  0.00  0.00    +0.000 C 
ATOM      5  C   UNL     1      -1.183  12.745  22.755  0.00  0.00    +0.000 C 
ATOM      6  C   UNL     1      -0.127  13.273  21.795  0.00  0.00    +0.000 C 
ATOM      7  C   UNL     1      -0.460  12.947  20.326  0.00  0.00    +0.000 C 
ATOM      8  C   UNL     1      -1.805  13.638  20.028  0.00  0.00    +0.000 C 
ATOM      9  C   UNL     1      -2.943  13.261  20.977  0.00  0.00    +0.000 C 
BRANCH   4  10
ATOM     10  C   UNL     1      -3.696  12.445  23.207  0.00  0.00    +0.000 C 
BRANCH  10  12
ATOM     11  C   UNL     1      -5.721  12.410  24.741  0.00  0.00    +0.000 C 
ATOM     12  C   UNL     1      -5.076  13.078  23.521  0.00  0.00    +0.000 C 
ATOM     13  C   UNL     1      -4.843  14.575  23.828  0.00  0.00    +0.000 C 
BRANCH  12  14
ATOM     14  C   UNL     1      -6.000  13.022  22.370  0.00  0.00    +0.000 C 
ATOM     15  N   UNL     1      -6.733  12.951  21.468  0.00  0.00    +0.000 NA
ENDBRANCH  12  14
ENDBRANCH  10  12
ENDBRANCH   4  10
ENDBRANCH   1   7
BRANCH   2  16
ATOM     16  C   UNL     1       1.089   9.309  20.065  0.00  0.00    +0.000 A 
ATOM     17  C   UNL     1       1.757   9.006  18.866  0.00  0.00    +0.000 A 
ATOM     18  C   UNL     1       2.288   7.722  18.635  0.00  0.00    +0.000 A 
ATOM     19  C   UNL     1       2.151   6.704  19.593  0.00  0.00    +0.000 A 
ATOM     20  C   UNL     1       1.392   6.987  20.734  0.00  0.00    +0.000 A 
ATOM     21  C   UNL     1       0.922   8.277  20.981  0.00  0.00    +0.000 A 
BRANCH  19  22
ATOM     22  C   UNL     1       2.916   5.378  19.523  0.00  0.00    +0.000 C 
ATOM     23  C   UNL     1       2.461   4.503  20.714  0.00  0.00    +0.000 C 
BRANCH  22  24
ATOM     24  C   UNL     1       2.709   4.595  18.184  0.00  0.00    +0.000 C 
ATOM     25  F   UNL     1       1.477   4.738  17.650  0.00  0.00    +0.000 F 
ATOM     26  F   UNL     1       3.600   5.024  17.250  0.00  0.00    +0.000 F 
ATOM     27  F   UNL     1       2.927   3.264  18.333  0.00  0.00    +0.000 F 
ENDBRANCH  22  24
BRANCH  22  28
ATOM     28  O   UNL     1       4.324   5.629  19.767  0.00  0.00    +0.000 OA
ATOM     29  H   UNL     1       4.388   6.085  20.627  0.00  0.00    +0.000 HD
ENDBRANCH  22  28
ENDBRANCH  19  22
ENDBRANCH   2  16
BRANCH   1  30
ATOM     30  C   UNL     1      -1.318  10.885  19.170  0.00  0.00    +0.000 C 
ATOM     31  C   UNL     1      -1.782  11.555  17.887  0.00  0.00    +0.000 C 
ATOM     32  C   UNL     1      -1.110  10.235  17.811  0.00  0.00    +0.000 C 
ENDBRANCH   1  30
TORSDOF 9
ENDMDL
MODEL 6
REMARK VINA RESULT:      -7.0      1.878      2.639
REMARK  Name = 
REMARK  12 active torsions:
REMARK  status: ('A' for Active; 'I' for Inactive)
REMARK    1  A    between atoms: C_1  and  C_2
REMARK    2  A    between atoms: C_2  and  C_3
REMARK    3  A    between atoms: C_2  and  C_4
REMARK    4  A    between atoms: C_2  and  C_6
REMARK    5  A    between atoms: C_6  and  C_7
REMARK    6  A    between atoms: C_10  and  N_11
REMARK    7  A    between atoms: N_11  and  C_27
REMARK    8  A    between atoms: C_12  and  C_14
REMARK    9  A    between atoms: C_17  and  C_18
REMARK   10  A    between atoms: C_18  and  C_19
REMARK   11  A    between atoms: C_18  and  O_20
REMARK   12  A    between atoms: C_18  and  C_21
REMARK                            x       y       z     vdW  Elec       q    Type
REMARK                         _______ _______ _______ _____ _____    ______ ____
ROOT
ATOM      1  N   UNL     1      -0.456  11.430  20.292  0.00  0.00    +0.000 N 
ATOM      2  C   UNL     1       0.648  10.666  20.752  0.00  0.00    +0.000 C 
ATOM      3  O   UNL     1       1.459  11.066  21.587  0.00  0.00    +0.000 OA
ENDROOT
BRANCH   1   7
ATOM      4  C   UNL     1      -3.491  13.165  21.925  0.00  0.00    +0.000 C 
ATOM      5  C   UNL     1      -2.329  12.470  22.644  0.00  0.00    +0.000 C 
ATOM      6  C   UNL     1      -0.955  12.986  22.244  0.00  0.00    +0.000 C 
ATOM      7  C   UNL     1      -0.701  12.852  20.730  0.00  0.00    +0.000 C 
ATOM      8  C   UNL     1      -1.782  13.704  20.038  0.00  0.00    +0.000 C 
ATOM      9  C   UNL     1      -3.219  13.346  20.417  0.00  0.00    +0.000 C 
BRANCH   4  10
ATOM     10  C   UNL     1      -4.829  12.381  22.055  0.00  0.00    +0.000 C 
BRANCH  10  12
ATOM     11  C   UNL     1      -5.973  14.608  22.490  0.00  0.00    +0.000 C 
ATOM     12  C   UNL     1      -6.181  13.139  22.102  0.00  0.00    +0.000 C 
ATOM     13  C   UNL     1      -6.802  13.072  20.688  0.00  0.00    +0.000 C 
BRANCH  12  14
ATOM     14  C   UNL     1      -7.152  12.509  23.020  0.00  0.00    +0.000 C 
ATOM     15  N   UNL     1      -7.917  12.035  23.759  0.00  0.00    +0.000 NA
ENDBRANCH  12  14
ENDBRANCH  10  12
ENDBRANCH   4  10
ENDBRANCH   1   7
BRANCH   2  16
ATOM     16  C   UNL     1       0.920   9.262  20.298  0.00  0.00    +0.000 A 
ATOM     17  C   UNL     1       1.597   9.056  19.084  0.00  0.00    +0.000 A 
ATOM     18  C   UNL     1       2.167   7.806  18.774  0.00  0.00    +0.000 A 
ATOM     19  C   UNL     1       2.061   6.726  19.666  0.00  0.00    +0.000 A 
ATOM     20  C   UNL     1       1.294   6.914  20.821  0.00  0.00    +0.000 A 
ATOM     21  C   UNL     1       0.785   8.170  21.148  0.00  0.00    +0.000 A 
BRANCH  19  22
ATOM     22  C   UNL     1       2.867   5.431  19.515  0.00  0.00    +0.000 C 
ATOM     23  C   UNL     1       2.460   4.481  20.665  0.00  0.00    +0.000 C 
BRANCH  22  24
ATOM     24  C   UNL     1       2.662   4.712  18.140  0.00  0.00    +0.000 C 
ATOM     25  F   UNL     1       3.479   5.157  17.161  0.00  0.00    +0.000 F 
ATOM     26  F   UNL     1       2.891   3.378  18.273  0.00  0.00    +0.000 F 
ATOM     27  F   UNL     1       1.390   4.836  17.685  0.00  0.00    +0.000 F 
ENDBRANCH  22  24
BRANCH  22  28
ATOM     28  O   UNL     1       4.270   5.715  19.750  0.00  0.00    +0.000 OA
ATOM     29  H   UNL     1       4.317   6.591  20.176  0.00  0.00    +0.000 HD
ENDBRANCH  22  28
ENDBRANCH  19  22
ENDBRANCH   2  16
BRANCH   1  30
ATOM     30  C   UNL     1      -1.456  10.871  19.380  0.00  0.00    +0.000 C 
ATOM     31  C   UNL     1      -1.738  11.543  18.046  0.00  0.00    +0.000 C 
ATOM     32  C   UNL     1      -1.143  10.183  18.060  0.00  0.00    +0.000 C 
ENDBRANCH   1  30
TORSDOF 9
ENDMDL
MODEL 7
REMARK VINA RESULT:      -6.9      2.624      4.985
REMARK  Name = 
REMARK  12 active torsions:
REMARK  status: ('A' for Active; 'I' for Inactive)
REMARK    1  A    between atoms: C_1  and  C_2
REMARK    2  A    between atoms: C_2  and  C_3
REMARK    3  A    between atoms: C_2  and  C_4
REMARK    4  A    between atoms: C_2  and  C_6
REMARK    5  A    between atoms: C_6  and  C_7
REMARK    6  A    between atoms: C_10  and  N_11
REMARK    7  A    between atoms: N_11  and  C_27
REMARK    8  A    between atoms: C_12  and  C_14
REMARK    9  A    between atoms: C_17  and  C_18
REMARK   10  A    between atoms: C_18  and  C_19
REMARK   11  A    between atoms: C_18  and  O_20
REMARK   12  A    between atoms: C_18  and  C_21
REMARK                            x       y       z     vdW  Elec       q    Type
REMARK                         _______ _______ _______ _____ _____    ______ ____
ROOT
ATOM      1  N   UNL     1      -0.104  11.425  19.796  0.00  0.00    +0.000 N 
ATOM      2  C   UNL     1       0.789  10.503  20.403  0.00  0.00    +0.000 C 
ATOM      3  O   UNL     1       1.287  10.664  21.517  0.00  0.00    +0.000 OA
ENDROOT
BRANCH   1   7
ATOM      4  C   UNL     1       1.616  14.879  19.819  0.00  0.00    +0.000 C 
ATOM      5  C   UNL     1       0.598  14.362  18.795  0.00  0.00    +0.000 C 
ATOM      6  C   UNL     1      -0.703  13.869  19.409  0.00  0.00    +0.000 C 
ATOM      7  C   UNL     1      -0.473  12.741  20.434  0.00  0.00    +0.000 C 
ATOM      8  C   UNL     1       0.413  13.343  21.541  0.00  0.00    +0.000 C 
ATOM      9  C   UNL     1       1.725  13.956  21.050  0.00  0.00    +0.000 C 
BRANCH   4  10
ATOM     10  C   UNL     1       3.047  15.013  19.224  0.00  0.00    +0.000 C 
BRANCH  10  12
ATOM     11  C   UNL     1       3.054  16.765  17.383  0.00  0.00    +0.000 C 
ATOM     12  C   UNL     1       3.583  16.397  18.774  0.00  0.00    +0.000 C 
ATOM     13  C   UNL     1       3.087  17.444  19.797  0.00  0.00    +0.000 C 
BRANCH  12  14
ATOM     14  C   UNL     1       5.059  16.463  18.784  0.00  0.00    +0.000 C 
ATOM     15  N   UNL     1       6.220  16.542  18.800  0.00  0.00    +0.000 NA
ENDBRANCH  12  14
ENDBRANCH  10  12
ENDBRANCH   4  10
ENDBRANCH   1   7
BRANCH   2  16
ATOM     16  C   UNL     1       1.190   9.206  19.764  0.00  0.00    +0.000 A 
ATOM     17  C   UNL     1       1.612   9.207  18.424  0.00  0.00    +0.000 A 
ATOM     18  C   UNL     1       2.304   8.108  17.880  0.00  0.00    +0.000 A 
ATOM     19  C   UNL     1       2.579   6.974  18.662  0.00  0.00    +0.000 A 
ATOM     20  C   UNL     1       2.061   6.941  19.961  0.00  0.00    +0.000 A 
ATOM     21  C   UNL     1       1.429   8.058  20.509  0.00  0.00    +0.000 A 
BRANCH  19  22
ATOM     22  C   UNL     1       3.540   5.864  18.221  0.00  0.00    +0.000 C 
ATOM     23  C   UNL     1       4.510   5.582  19.391  0.00  0.00    +0.000 C 
BRANCH  22  24
ATOM     24  C   UNL     1       2.827   4.536  17.797  0.00  0.00    +0.000 C 
ATOM     25  F   UNL     1       2.831   3.582  18.752  0.00  0.00    +0.000 F 
ATOM     26  F   UNL     1       1.525   4.785  17.488  0.00  0.00    +0.000 F 
ATOM     27  F   UNL     1       3.383   3.992  16.686  0.00  0.00    +0.000 F 
ENDBRANCH  22  24
BRANCH  22  28
ATOM     28  O   UNL     1       4.385   6.364  17.153  0.00  0.00    +0.000 OA
ATOM     29  H   UNL     1       4.031   7.235  16.893  0.00  0.00    +0.000 HD
ENDBRANCH  22  28
ENDBRANCH  19  22
ENDBRANCH   2  16
BRANCH   1  30
ATOM     30  C   UNL     1      -0.755  11.140  18.516  0.00  0.00    +0.000 C 
ATOM     31  C   UNL     1      -1.868  10.109  18.434  0.00  0.00    +0.000 C 
ATOM     32  C   UNL     1      -2.180  11.533  18.157  0.00  0.00    +0.000 C 
ENDBRANCH   1  30
TORSDOF 9
ENDMDL
MODEL 8
REMARK VINA RESULT:      -6.9      2.536      4.813
REMARK  Name = 
REMARK  12 active torsions:
REMARK  status: ('A' for Active; 'I' for Inactive)
REMARK    1  A    between atoms: C_1  and  C_2
REMARK    2  A    between atoms: C_2  and  C_3
REMARK    3  A    between atoms: C_2  and  C_4
REMARK    4  A    between atoms: C_2  and  C_6
REMARK    5  A    between atoms: C_6  and  C_7
REMARK    6  A    between atoms: C_10  and  N_11
REMARK    7  A    between atoms: N_11  and  C_27
REMARK    8  A    between atoms: C_12  and  C_14
REMARK    9  A    between atoms: C_17  and  C_18
REMARK   10  A    between atoms: C_18  and  C_19
REMARK   11  A    between atoms: C_18  and  O_20
REMARK   12  A    between atoms: C_18  and  C_21
REMARK                            x       y       z     vdW  Elec       q    Type
REMARK                         _______ _______ _______ _____ _____    ______ ____
ROOT
ATOM      1  N   UNL     1      -0.402  11.205  19.511  0.00  0.00    +0.000 N 
ATOM      2  C   UNL     1       0.880  10.636  19.729  0.00  0.00    +0.000 C 
ATOM      3  O   UNL     1       1.794  11.212  20.318  0.00  0.00    +0.000 OA
ENDROOT
BRANCH   1   7
ATOM      4  C   UNL     1       1.678  14.451  19.670  0.00  0.00    +0.000 C 
ATOM      5  C   UNL     1       0.880  13.925  18.471  0.00  0.00    +0.000 C 
ATOM      6  C   UNL     1      -0.582  13.636  18.777  0.00  0.00    +0.000 C 
ATOM      7  C   UNL     1      -0.748  12.615  19.920  0.00  0.00    +0.000 C 
ATOM      8  C   UNL     1      -0.086  13.249  21.159  0.00  0.00    +0.000 C 
ATOM      9  C   UNL     1       1.371  13.668  20.964  0.00  0.00    +0.000 C 
BRANCH   4  10
ATOM     10  C   UNL     1       3.215  14.374  19.445  0.00  0.00    +0.000 C 
BRANCH  10  12
ATOM     11  C   UNL     1       4.611  16.357  20.205  0.00  0.00    +0.000 C 
ATOM     12  C   UNL     1       4.006  15.630  18.997  0.00  0.00    +0.000 C 
ATOM     13  C   UNL     1       5.148  15.155  18.069  0.00  0.00    +0.000 C 
BRANCH  12  14
ATOM     14  C   UNL     1       3.181  16.567  18.207  0.00  0.00    +0.000 C 
ATOM     15  N   UNL     1       2.550  17.304  17.565  0.00  0.00    +0.000 NA
ENDBRANCH  12  14
ENDBRANCH  10  12
ENDBRANCH   4  10
ENDBRANCH   1   7
BRANCH   2  16
ATOM     16  C   UNL     1       1.245   9.247  19.297  0.00  0.00    +0.000 A 
ATOM     17  C   UNL     1       1.608   9.021  17.958  0.00  0.00    +0.000 A 
ATOM     18  C   UNL     1       2.270   7.838  17.575  0.00  0.00    +0.000 A 
ATOM     19  C   UNL     1       2.572   6.845  18.521  0.00  0.00    +0.000 A 
ATOM     20  C   UNL     1       2.112   7.034  19.829  0.00  0.00    +0.000 A 
ATOM     21  C   UNL     1       1.510   8.234  20.211  0.00  0.00    +0.000 A 
BRANCH  19  22
ATOM     22  C   UNL     1       3.507   5.666  18.230  0.00  0.00    +0.000 C 
ATOM     23  C   UNL     1       4.343   5.396  19.502  0.00  0.00    +0.000 C 
BRANCH  22  24
ATOM     24  C   UNL     1       2.764   4.356  17.800  0.00  0.00    +0.000 C 
ATOM     25  F   UNL     1       3.369   3.685  16.798  0.00  0.00    +0.000 F 
ATOM     26  F   UNL     1       2.677   3.503  18.856  0.00  0.00    +0.000 F 
ATOM     27  F   UNL     1       1.490   4.601  17.404  0.00  0.00    +0.000 F 
ENDBRANCH  22  24
BRANCH  22  28
ATOM     28  O   UNL     1       4.477   6.065  17.228  0.00  0.00    +0.000 OA
ATOM     29  H   UNL     1       5.353   5.782  17.549  0.00  0.00    +0.000 HD
ENDBRANCH  22  28
ENDBRANCH  19  22
ENDBRANCH   2  16
BRANCH   1  30
ATOM     30  C   UNL     1      -1.493  10.441  18.900  0.00  0.00    +0.000 C 
ATOM     31  C   UNL     1      -2.688  11.160  18.295  0.00  0.00    +0.000 C 
ATOM     32  C   UNL     1      -1.786  10.383  17.409  0.00  0.00    +0.000 C 
ENDBRANCH   1  30
TORSDOF 9
ENDMDL
MODEL 9
REMARK VINA RESULT:      -6.9      1.193      1.617
REMARK  Name = 
REMARK  12 active torsions:
REMARK  status: ('A' for Active; 'I' for Inactive)
REMARK    1  A    between atoms: C_1  and  C_2
REMARK    2  A    between atoms: C_2  and  C_3
REMARK    3  A    between atoms: C_2  and  C_4
REMARK    4  A    between atoms: C_2  and  C_6
REMARK    5  A    between atoms: C_6  and  C_7
REMARK    6  A    between atoms: C_10  and  N_11
REMARK    7  A    between atoms: N_11  and  C_27
REMARK    8  A    between atoms: C_12  and  C_14
REMARK    9  A    between atoms: C_17  and  C_18
REMARK   10  A    between atoms: C_18  and  C_19
REMARK   11  A    between atoms: C_18  and  O_20
REMARK   12  A    between atoms: C_18  and  C_21
REMARK                            x       y       z     vdW  Elec       q    Type
REMARK                         _______ _______ _______ _____ _____    ______ ____
ROOT
ATOM      1  N   UNL     1       0.210  11.969  18.786  0.00  0.00    +0.000 N 
ATOM      2  C   UNL     1      -0.051  10.580  18.652  0.00  0.00    +0.000 C 
ATOM      3  O   UNL     1      -1.142  10.116  18.322  0.00  0.00    +0.000 OA
ENDROOT
BRANCH   1   7
ATOM      4  C   UNL     1      -2.411  13.448  21.200  0.00  0.00    +0.000 C 
ATOM      5  C   UNL     1      -0.981  13.953  20.969  0.00  0.00    +0.000 C 
ATOM      6  C   UNL     1      -0.656  14.250  19.513  0.00  0.00    +0.000 C 
ATOM      7  C   UNL     1      -0.858  13.018  18.608  0.00  0.00    +0.000 C 
ATOM      8  C   UNL     1      -2.347  12.639  18.728  0.00  0.00    +0.000 C 
ATOM      9  C   UNL     1      -2.834  12.395  20.156  0.00  0.00    +0.000 C 
BRANCH   4  10
ATOM     10  C   UNL     1      -2.597  12.800  22.602  0.00  0.00    +0.000 C 
BRANCH  10  12
ATOM     11  C   UNL     1      -4.670  14.220  22.980  0.00  0.00    +0.000 C 
ATOM     12  C   UNL     1      -3.521  13.462  23.657  0.00  0.00    +0.000 C 
ATOM     13  C   UNL     1      -4.107  12.335  24.537  0.00  0.00    +0.000 C 
BRANCH  12  14
ATOM     14  C   UNL     1      -2.786  14.368  24.564  0.00  0.00    +0.000 C 
ATOM     15  N   UNL     1      -2.217  15.103  25.264  0.00  0.00    +0.000 NA
ENDBRANCH  12  14
ENDBRANCH  10  12
ENDBRANCH   4  10
ENDBRANCH   1   7
BRANCH   2  16
ATOM     16  C   UNL     1       0.995   9.524  18.858  0.00  0.00    +0.000 A 
ATOM     17  C   UNL     1       1.142   8.949  20.132  0.00  0.00    +0.000 A 
ATOM     18  C   UNL     1       1.856   7.747  20.307  0.00  0.00    +0.000 A 
ATOM     19  C   UNL     1       2.453   7.099  19.213  0.00  0.00    +0.000 A 
ATOM     20  C   UNL     1       2.391   7.738  17.969  0.00  0.00    +0.000 A 
ATOM     21  C   UNL     1       1.632   8.896  17.795  0.00  0.00    +0.000 A 
BRANCH  19  22
ATOM     22  C   UNL     1       3.015   5.675  19.285  0.00  0.00    +0.000 C 
ATOM     23  C   UNL     1       2.102   4.760  18.438  0.00  0.00    +0.000 C 
BRANCH  22  24
ATOM     24  C   UNL     1       4.495   5.550  18.789  0.00  0.00    +0.000 C 
ATOM     25  F   UNL     1       5.406   5.512  19.784  0.00  0.00    +0.000 F 
ATOM     26  F   UNL     1       4.648   4.409  18.065  0.00  0.00    +0.000 F 
ATOM     27  F   UNL     1       4.844   6.571  17.967  0.00  0.00    +0.000 F 
ENDBRANCH  22  24
BRANCH  22  28
ATOM     28  O   UNL     1       2.879   5.180  20.642  0.00  0.00    +0.000 OA
ATOM     29  H   UNL     1       2.675   5.948  21.208  0.00  0.00    +0.000 HD
ENDBRANCH  22  28
ENDBRANCH  19  22
ENDBRANCH   2  16
BRANCH   1  30
ATOM     30  C   UNL     1       1.553  12.478  19.075  0.00  0.00    +0.000 C 
ATOM     31  C   UNL     1       2.659  12.355  18.041  0.00  0.00    +0.000 C 
ATOM     32  C   UNL     1       2.177  13.704  18.428  0.00  0.00    +0.000 C 
ENDBRANCH   1  30
TORSDOF 9
ENDMDL
