MODEL 1
REMARK VINA RESULT:      -8.7      0.000      0.000
REMARK  Name = 
REMARK  4 active torsions:
REMARK  status: ('A' for Active; 'I' for Inactive)
REMARK    1  A    between atoms: C_2  and  C_3
REMARK    2  A    between atoms: C_3  and  N_4
REMARK    3  A    between atoms: C_9  and  C_10
REMARK    4  A    between atoms: N_24  and  C_25
REMARK                            x       y       z     vdW  Elec       q    Type
REMARK                         _______ _______ _______ _____ _____    ______ ____
ROOT
ATOM      1  N   UNL     1       0.140  11.661  19.123  0.00  0.00    +0.000 N 
ATOM      2  N   UNL     1       0.852  10.760  18.354  0.00  0.00    +0.000 NA
ATOM      3  C   UNL     1       1.074   9.779  19.175  0.00  0.00    +0.000 A 
ATOM      4  C   UNL     1       1.807   8.590  18.917  0.00  0.00    +0.000 A 
ATOM      5  C   UNL     1       2.511   8.138  17.838  0.00  0.00    +0.000 A 
ATOM      6  C   UNL     1       3.047   6.893  18.243  0.00  0.00    +0.000 A 
ATOM      7  N   UNL     1       2.671   6.601  19.502  0.00  0.00    +0.000 NA
ATOM      8  N   UNL     1       1.921   7.639  19.915  0.00  0.00    +0.000 N 
ATOM      9  C   UNL     1       1.319   7.844  21.165  0.00  0.00    +0.000 A 
ATOM     10  C   UNL     1       0.643   8.982  21.417  0.00  0.00    +0.000 A 
ATOM     11  N   UNL     1       0.542   9.925  20.421  0.00  0.00    +0.000 N 
ATOM     12  C   UNL     1      -0.055  11.164  20.423  0.00  0.00    +0.000 A 
ATOM     13  O   UNL     1      -0.635  11.718  21.346  0.00  0.00    +0.000 OA
ENDROOT
BRANCH   6  14
ATOM     14  C   UNL     1       3.923   6.020  17.460  0.00  0.00    +0.000 A 
ATOM     15  C   UNL     1       4.813   6.557  16.516  0.00  0.00    +0.000 A 
ATOM     16  C   UNL     1       5.604   5.716  15.729  0.00  0.00    +0.000 A 
ATOM     17  C   UNL     1       5.515   4.339  15.891  0.00  0.00    +0.000 A 
ATOM     18  F   UNL     1       6.267   3.534  15.131  0.00  0.00    +0.000 F 
ATOM     19  C   UNL     1       4.653   3.785  16.830  0.00  0.00    +0.000 A 
ATOM     20  C   UNL     1       3.860   4.624  17.614  0.00  0.00    +0.000 A 
ENDBRANCH   6  14
BRANCH   1  21
ATOM     21  C   UNL     1      -0.243  12.971  18.638  0.00  0.00    +0.000 C 
BRANCH  21  23
ATOM     22  O   UNL     1       0.519  15.223  18.938  0.00  0.00    +0.000 OA
ATOM     23  C   UNL     1       0.833  14.042  18.811  0.00  0.00    +0.000 C 
ATOM     24  N   UNL     1       2.118  13.538  18.899  0.00  0.00    +0.000 N 
ATOM     25  H   UNL     1       2.166  12.534  19.038  0.00  0.00    +0.000 HD
BRANCH  24  26
ATOM     26  C   UNL     1       3.258  14.274  19.258  0.00  0.00    +0.000 A 
ATOM     27  C   UNL     1       3.467  14.836  20.520  0.00  0.00    +0.000 A 
ATOM     28  C   UNL     1       4.694  15.437  20.825  0.00  0.00    +0.000 A 
ATOM     29  C   UNL     1       5.721  15.435  19.882  0.00  0.00    +0.000 A 
ATOM     30  C   UNL     1       5.507  14.851  18.638  0.00  0.00    +0.000 A 
ATOM     31  C   UNL     1       4.260  14.348  18.295  0.00  0.00    +0.000 A 
ATOM     32  O   UNL     1       6.506  14.638  17.733  0.00  0.00    +0.000 OA
ATOM     33  C   UNL     1       7.469  15.673  17.816  0.00  0.00    +0.000 C 
ATOM     34  C   UNL     1       7.911  16.011  19.236  0.00  0.00    +0.000 C 
ATOM     35  O   UNL     1       6.902  16.007  20.248  0.00  0.00    +0.000 OA
ENDBRANCH  24  26
ENDBRANCH  21  23
ENDBRANCH   1  21
TORSDOF 4
ENDMDL
MODEL 2
REMARK VINA RESULT:      -8.6      1.137      1.478
REMARK  Name = 
REMARK  4 active torsions:
REMARK  status: ('A' for Active; 'I' for Inactive)
REMARK    1  A    between atoms: C_2  and  C_3
REMARK    2  A    between atoms: C_3  and  N_4
REMARK    3  A    between atoms: C_9  and  C_10
REMARK    4  A    between atoms: N_24  and  C_25
REMARK                            x       y       z     vdW  Elec       q    Type
REMARK                         _______ _______ _______ _____ _____    ______ ____
ROOT
ATOM      1  N   UNL     1      -0.246  11.546  19.092  0.00  0.00    +0.000 N 
ATOM      2  N   UNL     1       0.484  10.653  18.330  0.00  0.00    +0.000 NA
ATOM      3  C   UNL     1       0.825   9.740  19.189  0.00  0.00    +0.000 A 
ATOM      4  C   UNL     1       1.629   8.593  18.951  0.00  0.00    +0.000 A 
ATOM      5  C   UNL     1       2.300   8.128  17.857  0.00  0.00    +0.000 A 
ATOM      6  C   UNL     1       2.949   6.950  18.296  0.00  0.00    +0.000 A 
ATOM      7  N   UNL     1       2.670   6.708  19.590  0.00  0.00    +0.000 NA
ATOM      8  N   UNL     1       1.871   7.714  19.991  0.00  0.00    +0.000 N 
ATOM      9  C   UNL     1       1.330   7.949  21.264  0.00  0.00    +0.000 A 
ATOM     10  C   UNL     1       0.586   9.050  21.495  0.00  0.00    +0.000 A 
ATOM     11  N   UNL     1       0.358   9.923  20.456  0.00  0.00    +0.000 N 
ATOM     12  C   UNL     1      -0.327  11.115  20.427  0.00  0.00    +0.000 A 
ATOM     13  O   UNL     1      -0.892  11.680  21.352  0.00  0.00    +0.000 OA
ENDROOT
BRANCH   6  14
ATOM     14  C   UNL     1       3.839   6.096  17.509  0.00  0.00    +0.000 A 
ATOM     15  C   UNL     1       4.834   6.657  16.692  0.00  0.00    +0.000 A 
ATOM     16  C   UNL     1       5.643   5.840  15.897  0.00  0.00    +0.000 A 
ATOM     17  C   UNL     1       5.466   4.462  15.926  0.00  0.00    +0.000 A 
ATOM     18  F   UNL     1       6.235   3.680  15.158  0.00  0.00    +0.000 F 
ATOM     19  C   UNL     1       4.499   3.883  16.738  0.00  0.00    +0.000 A 
ATOM     20  C   UNL     1       3.688   4.698  17.530  0.00  0.00    +0.000 A 
ENDBRANCH   6  14
BRANCH   1  21
ATOM     21  C   UNL     1      -0.752  12.794  18.560  0.00  0.00    +0.000 C 
BRANCH  21  23
ATOM     22  O   UNL     1      -0.189  15.051  19.134  0.00  0.00    +0.000 OA
ATOM     23  C   UNL     1       0.210  13.972  18.703  0.00  0.00    +0.000 C 
ATOM     24  N   UNL     1       1.523  13.664  18.400  0.00  0.00    +0.000 N 
ATOM     25  H   UNL     1       1.714  12.670  18.318  0.00  0.00    +0.000 HD
BRANCH  24  26
ATOM     26  C   UNL     1       2.630  14.494  18.640  0.00  0.00    +0.000 A 
ATOM     27  C   UNL     1       3.010  15.556  17.815  0.00  0.00    +0.000 A 
ATOM     28  C   UNL     1       4.047  16.411  18.207  0.00  0.00    +0.000 A 
ATOM     29  C   UNL     1       4.669  16.227  19.441  0.00  0.00    +0.000 A 
ATOM     30  C   UNL     1       4.264  15.181  20.262  0.00  0.00    +0.000 A 
ATOM     31  C   UNL     1       3.310  14.269  19.832  0.00  0.00    +0.000 A 
ATOM     32  O   UNL     1       4.683  15.042  21.553  0.00  0.00    +0.000 OA
ATOM     33  C   UNL     1       6.015  15.504  21.688  0.00  0.00    +0.000 C 
ATOM     34  C   UNL     1       6.281  16.859  21.038  0.00  0.00    +0.000 C 
ATOM     35  O   UNL     1       5.650  17.109  19.780  0.00  0.00    +0.000 OA
ENDBRANCH  24  26
ENDBRANCH  21  23
ENDBRANCH   1  21
TORSDOF 4
ENDMDL
MODEL 3
REMARK VINA RESULT:      -8.5      4.199      6.959
REMARK  Name = 
REMARK  4 active torsions:
REMARK  status: ('A' for Active; 'I' for Inactive)
REMARK    1  A    between atoms: C_2  and  C_3
REMARK    2  A    between atoms: C_3  and  N_4
REMARK    3  A    between atoms: C_9  and  C_10
REMARK    4  A    between atoms: N_24  and  C_25
REMARK                            x       y       z     vdW  Elec       q    Type
REMARK                         _______ _______ _______ _____ _____    ______ ____
ROOT
ATOM      1  N   UNL     1      -0.293  11.254  19.390  0.00  0.00    +0.000 N 
ATOM      2  N   UNL     1       0.430  10.419  18.559  0.00  0.00    +0.000 NA
ATOM      3  C   UNL     1       0.844   9.488  19.364  0.00  0.00    +0.000 A 
ATOM      4  C   UNL     1       1.675   8.381  19.042  0.00  0.00    +0.000 A 
ATOM      5  C   UNL     1       2.308   7.983  17.899  0.00  0.00    +0.000 A 
ATOM      6  C   UNL     1       3.019   6.814  18.260  0.00  0.00    +0.000 A 
ATOM      7  N   UNL     1       2.812   6.513  19.555  0.00  0.00    +0.000 NA
ATOM      8  N   UNL     1       1.998   7.472  20.033  0.00  0.00    +0.000 N 
ATOM      9  C   UNL     1       1.512   7.639  21.339  0.00  0.00    +0.000 A 
ATOM     10  C   UNL     1       0.743   8.702  21.648  0.00  0.00    +0.000 A 
ATOM     11  N   UNL     1       0.434   9.604  20.658  0.00  0.00    +0.000 N 
ATOM     12  C   UNL     1      -0.294  10.770  20.709  0.00  0.00    +0.000 A 
ATOM     13  O   UNL     1      -0.832  11.278  21.681  0.00  0.00    +0.000 OA
ENDROOT
BRANCH   6  14
ATOM     14  C   UNL     1       3.899   6.024  17.398  0.00  0.00    +0.000 A 
ATOM     15  C   UNL     1       3.839   4.621  17.405  0.00  0.00    +0.000 A 
ATOM     16  C   UNL     1       4.722   3.870  16.624  0.00  0.00    +0.000 A 
ATOM     17  C   UNL     1       5.658   4.519  15.829  0.00  0.00    +0.000 A 
ATOM     18  F   UNL     1       6.509   3.799  15.088  0.00  0.00    +0.000 F 
ATOM     19  C   UNL     1       5.727   5.906  15.794  0.00  0.00    +0.000 A 
ATOM     20  C   UNL     1       4.848   6.657  16.576  0.00  0.00    +0.000 A 
ENDBRANCH   6  14
BRANCH   1  21
ATOM     21  C   UNL     1      -0.869  12.502  18.932  0.00  0.00    +0.000 C 
BRANCH  21  23
ATOM     22  O   UNL     1      -3.171  11.868  18.725  0.00  0.00    +0.000 OA
ATOM     23  C   UNL     1      -2.362  12.647  19.224  0.00  0.00    +0.000 C 
ATOM     24  N   UNL     1      -2.662  13.638  20.140  0.00  0.00    +0.000 N 
ATOM     25  H   UNL     1      -1.859  14.001  20.644  0.00  0.00    +0.000 HD
BRANCH  24  26
ATOM     26  C   UNL     1      -3.917  13.845  20.732  0.00  0.00    +0.000 A 
ATOM     27  C   UNL     1      -4.934  14.621  20.171  0.00  0.00    +0.000 A 
ATOM     28  C   UNL     1      -6.199  14.659  20.770  0.00  0.00    +0.000 A 
ATOM     29  C   UNL     1      -6.453  13.888  21.903  0.00  0.00    +0.000 A 
ATOM     30  C   UNL     1      -5.438  13.102  22.438  0.00  0.00    +0.000 A 
ATOM     31  C   UNL     1      -4.156  13.142  21.909  0.00  0.00    +0.000 A 
ATOM     32  O   UNL     1      -5.649  12.181  23.422  0.00  0.00    +0.000 OA
ATOM     33  C   UNL     1      -6.665  12.629  24.302  0.00  0.00    +0.000 C 
ATOM     34  C   UNL     1      -7.913  13.163  23.604  0.00  0.00    +0.000 C 
ATOM     35  O   UNL     1      -7.711  13.943  22.423  0.00  0.00    +0.000 OA
ENDBRANCH  24  26
ENDBRANCH  21  23
ENDBRANCH   1  21
TORSDOF 4
ENDMDL
MODEL 4
REMARK VINA RESULT:      -8.4      3.674      6.879
REMARK  Name = 
REMARK  4 active torsions:
REMARK  status: ('A' for Active; 'I' for Inactive)
REMARK    1  A    between atoms: C_2  and  C_3
REMARK    2  A    between atoms: C_3  and  N_4
REMARK    3  A    between atoms: C_9  and  C_10
REMARK    4  A    between atoms: N_24  and  C_25
REMARK                            x       y       z     vdW  Elec       q    Type
REMARK                         _______ _______ _______ _____ _____    ______ ____
ROOT
ATOM      1  N   UNL     1       0.314  11.697  19.708  0.00  0.00    +0.000 N 
ATOM      2  N   UNL     1       0.939  10.835  18.827  0.00  0.00    +0.000 NA
ATOM      3  C   UNL     1       1.188   9.792  19.559  0.00  0.00    +0.000 A 
ATOM      4  C   UNL     1       1.863   8.606  19.165  0.00  0.00    +0.000 A 
ATOM      5  C   UNL     1       2.472   8.213  18.008  0.00  0.00    +0.000 A 
ATOM      6  C   UNL     1       2.996   6.929  18.285  0.00  0.00    +0.000 A 
ATOM      7  N   UNL     1       2.703   6.558  19.545  0.00  0.00    +0.000 NA
ATOM      8  N   UNL     1       2.018   7.583  20.083  0.00  0.00    +0.000 N 
ATOM      9  C   UNL     1       1.515   7.713  21.386  0.00  0.00    +0.000 A 
ATOM     10  C   UNL     1       0.895   8.848  21.766  0.00  0.00    +0.000 A 
ATOM     11  N   UNL     1       0.752   9.862  20.849  0.00  0.00    +0.000 N 
ATOM     12  C   UNL     1       0.198  11.113  20.981  0.00  0.00    +0.000 A 
ATOM     13  O   UNL     1      -0.297  11.615  21.981  0.00  0.00    +0.000 OA
ENDROOT
BRANCH   6  14
ATOM     14  C   UNL     1       3.785   6.092  17.380  0.00  0.00    +0.000 A 
ATOM     15  C   UNL     1       3.702   4.691  17.444  0.00  0.00    +0.000 A 
ATOM     16  C   UNL     1       4.501   3.895  16.619  0.00  0.00    +0.000 A 
ATOM     17  C   UNL     1       5.376   4.497  15.721  0.00  0.00    +0.000 A 
ATOM     18  F   UNL     1       6.147   3.734  14.938  0.00  0.00    +0.000 F 
ATOM     19  C   UNL     1       5.464   5.880  15.629  0.00  0.00    +0.000 A 
ATOM     20  C   UNL     1       4.669   6.676  16.455  0.00  0.00    +0.000 A 
ENDBRANCH   6  14
BRANCH   1  21
ATOM     21  C   UNL     1      -0.062  13.048  19.345  0.00  0.00    +0.000 C 
BRANCH  21  23
ATOM     22  O   UNL     1      -1.624  14.692  20.120  0.00  0.00    +0.000 OA
ATOM     23  C   UNL     1      -1.405  13.500  19.917  0.00  0.00    +0.000 C 
ATOM     24  N   UNL     1      -2.320  12.476  20.076  0.00  0.00    +0.000 N 
ATOM     25  H   UNL     1      -2.064  11.609  19.615  0.00  0.00    +0.000 HD
BRANCH  24  26
ATOM     26  C   UNL     1      -3.679  12.641  20.387  0.00  0.00    +0.000 A 
ATOM     27  C   UNL     1      -4.712  12.606  19.447  0.00  0.00    +0.000 A 
ATOM     28  C   UNL     1      -6.046  12.645  19.869  0.00  0.00    +0.000 A 
ATOM     29  C   UNL     1      -6.342  12.675  21.231  0.00  0.00    +0.000 A 
ATOM     30  C   UNL     1      -5.304  12.686  22.157  0.00  0.00    +0.000 A 
ATOM     31  C   UNL     1      -3.982  12.753  21.740  0.00  0.00    +0.000 A 
ATOM     32  O   UNL     1      -5.500  12.527  23.497  0.00  0.00    +0.000 OA
ATOM     33  C   UNL     1      -6.731  13.110  23.885  0.00  0.00    +0.000 C 
ATOM     34  C   UNL     1      -7.910  12.748  22.986  0.00  0.00    +0.000 C 
ATOM     35  O   UNL     1      -7.658  12.681  21.581  0.00  0.00    +0.000 OA
ENDBRANCH  24  26
ENDBRANCH  21  23
ENDBRANCH   1  21
TORSDOF 4
ENDMDL
MODEL 5
REMARK VINA RESULT:      -8.3      1.387      2.178
REMARK  Name = 
REMARK  4 active torsions:
REMARK  status: ('A' for Active; 'I' for Inactive)
REMARK    1  A    between atoms: C_2  and  C_3
REMARK    2  A    between atoms: C_3  and  N_4
REMARK    3  A    between atoms: C_9  and  C_10
REMARK    4  A    between atoms: N_24  and  C_25
REMARK                            x       y       z     vdW  Elec       q    Type
REMARK                         _______ _______ _______ _____ _____    ______ ____
ROOT
ATOM      1  N   UNL     1       0.235  11.668  19.237  0.00  0.00    +0.000 N 
ATOM      2  N   UNL     1       0.928  10.777  18.438  0.00  0.00    +0.000 NA
ATOM      3  C   UNL     1       1.122   9.763  19.226  0.00  0.00    +0.000 A 
ATOM      4  C   UNL     1       1.828   8.566  18.930  0.00  0.00    +0.000 A 
ATOM      5  C   UNL     1       2.526   8.134  17.838  0.00  0.00    +0.000 A 
ATOM      6  C   UNL     1       3.030   6.864  18.202  0.00  0.00    +0.000 A 
ATOM      7  N   UNL     1       2.641   6.538  19.449  0.00  0.00    +0.000 NA
ATOM      8  N   UNL     1       1.915   7.579  19.894  0.00  0.00    +0.000 N 
ATOM      9  C   UNL     1       1.313   7.755  21.149  0.00  0.00    +0.000 A 
ATOM     10  C   UNL     1       0.663   8.900  21.438  0.00  0.00    +0.000 A 
ATOM     11  N   UNL     1       0.589   9.879  20.475  0.00  0.00    +0.000 N 
ATOM     12  C   UNL     1       0.023  11.131  20.518  0.00  0.00    +0.000 A 
ATOM     13  O   UNL     1      -0.548  11.667  21.457  0.00  0.00    +0.000 OA
ENDROOT
BRANCH   6  14
ATOM     14  C   UNL     1       3.887   5.997  17.392  0.00  0.00    +0.000 A 
ATOM     15  C   UNL     1       3.801   4.600  17.500  0.00  0.00    +0.000 A 
ATOM     16  C   UNL     1       4.662   3.777  16.768  0.00  0.00    +0.000 A 
ATOM     17  C   UNL     1       5.603   4.350  15.921  0.00  0.00    +0.000 A 
ATOM     18  F   UNL     1       6.434   3.562  15.228  0.00  0.00    +0.000 F 
ATOM     19  C   UNL     1       5.697   5.729  15.786  0.00  0.00    +0.000 A 
ATOM     20  C   UNL     1       4.840   6.551  16.519  0.00  0.00    +0.000 A 
ENDBRANCH   6  14
BRANCH   1  21
ATOM     21  C   UNL     1      -0.114  13.002  18.795  0.00  0.00    +0.000 C 
BRANCH  21  23
ATOM     22  O   UNL     1       0.381  15.181  19.662  0.00  0.00    +0.000 OA
ATOM     23  C   UNL     1       0.828  14.095  19.300  0.00  0.00    +0.000 C 
ATOM     24  N   UNL     1       2.150  13.701  19.386  0.00  0.00    +0.000 N 
ATOM     25  H   UNL     1       2.297  12.700  19.299  0.00  0.00    +0.000 HD
BRANCH  24  26
ATOM     26  C   UNL     1       3.178  14.431  20.002  0.00  0.00    +0.000 A 
ATOM     27  C   UNL     1       3.840  15.511  19.411  0.00  0.00    +0.000 A 
ATOM     28  C   UNL     1       4.758  16.262  20.155  0.00  0.00    +0.000 A 
ATOM     29  C   UNL     1       4.978  15.957  21.497  0.00  0.00    +0.000 A 
ATOM     30  C   UNL     1       4.296  14.894  22.079  0.00  0.00    +0.000 A 
ATOM     31  C   UNL     1       3.464  14.083  21.319  0.00  0.00    +0.000 A 
ATOM     32  O   UNL     1       4.307  14.646  23.420  0.00  0.00    +0.000 OA
ATOM     33  C   UNL     1       5.563  15.000  23.972  0.00  0.00    +0.000 C 
ATOM     34  C   UNL     1       6.079  16.369  23.538  0.00  0.00    +0.000 C 
ATOM     35  O   UNL     1       5.860  16.742  22.177  0.00  0.00    +0.000 OA
ENDBRANCH  24  26
ENDBRANCH  21  23
ENDBRANCH   1  21
TORSDOF 4
ENDMDL
MODEL 6
REMARK VINA RESULT:      -8.3      4.411      6.863
REMARK  Name = 
REMARK  4 active torsions:
REMARK  status: ('A' for Active; 'I' for Inactive)
REMARK    1  A    between atoms: C_2  and  C_3
REMARK    2  A    between atoms: C_3  and  N_4
REMARK    3  A    between atoms: C_9  and  C_10
REMARK    4  A    between atoms: N_24  and  C_25
REMARK                            x       y       z     vdW  Elec       q    Type
REMARK                         _______ _______ _______ _____ _____    ______ ____
ROOT
ATOM      1  N   UNL     1       1.962   8.618  19.204  0.00  0.00    +0.000 N 
ATOM      2  N   UNL     1       2.600   8.223  18.044  0.00  0.00    +0.000 NA
ATOM      3  C   UNL     1       2.970   7.007  18.309  0.00  0.00    +0.000 A 
ATOM      4  C   UNL     1       3.711   6.131  17.470  0.00  0.00    +0.000 A 
ATOM      5  C   UNL     1       4.281   6.272  16.237  0.00  0.00    +0.000 A 
ATOM      6  C   UNL     1       4.917   5.035  15.982  0.00  0.00    +0.000 A 
ATOM      7  N   UNL     1       4.726   4.182  17.007  0.00  0.00    +0.000 NA
ATOM      8  N   UNL     1       3.997   4.854  17.916  0.00  0.00    +0.000 N 
ATOM      9  C   UNL     1       3.561   4.426  19.179  0.00  0.00    +0.000 A 
ATOM     10  C   UNL     1       2.878   5.265  19.984  0.00  0.00    +0.000 A 
ATOM     11  N   UNL     1       2.605   6.536  19.534  0.00  0.00    +0.000 N 
ATOM     12  C   UNL     1       1.965   7.583  20.154  0.00  0.00    +0.000 A 
ATOM     13  O   UNL     1       1.491   7.614  21.281  0.00  0.00    +0.000 OA
ENDROOT
BRANCH   6  14
ATOM     14  C   UNL     1       5.714   4.686  14.805  0.00  0.00    +0.000 A 
ATOM     15  C   UNL     1       6.969   5.278  14.588  0.00  0.00    +0.000 A 
ATOM     16  C   UNL     1       7.700   4.986  13.433  0.00  0.00    +0.000 A 
ATOM     17  C   UNL     1       7.184   4.096  12.500  0.00  0.00    +0.000 A 
ATOM     18  F   UNL     1       7.880   3.824  11.390  0.00  0.00    +0.000 F 
ATOM     19  C   UNL     1       5.952   3.486  12.700  0.00  0.00    +0.000 A 
ATOM     20  C   UNL     1       5.219   3.779  13.852  0.00  0.00    +0.000 A 
ENDBRANCH   6  14
BRANCH   1  21
ATOM     21  C   UNL     1       1.464   9.964  19.402  0.00  0.00    +0.000 C 
BRANCH  21  23
ATOM     22  O   UNL     1      -0.773   9.977  20.261  0.00  0.00    +0.000 OA
ATOM     23  C   UNL     1      -0.053  10.094  19.272  0.00  0.00    +0.000 C 
ATOM     24  N   UNL     1      -0.481  10.437  18.003  0.00  0.00    +0.000 N 
ATOM     25  H   UNL     1       0.257  10.750  17.381  0.00  0.00    +0.000 HD
BRANCH  24  26
ATOM     26  C   UNL     1      -1.789  10.815  17.660  0.00  0.00    +0.000 A 
ATOM     27  C   UNL     1      -2.425  10.455  16.469  0.00  0.00    +0.000 A 
ATOM     28  C   UNL     1      -3.777  10.766  16.275  0.00  0.00    +0.000 A 
ATOM     29  C   UNL     1      -4.497  11.394  17.290  0.00  0.00    +0.000 A 
ATOM     30  C   UNL     1      -3.857  11.725  18.479  0.00  0.00    +0.000 A 
ATOM     31  C   UNL     1      -2.494  11.514  18.635  0.00  0.00    +0.000 A 
ATOM     32  O   UNL     1      -4.522  12.166  19.586  0.00  0.00    +0.000 OA
ATOM     33  C   UNL     1      -5.643  12.944  19.205  0.00  0.00    +0.000 C 
ATOM     34  C   UNL     1      -6.501  12.319  18.109  0.00  0.00    +0.000 C 
ATOM     35  O   UNL     1      -5.815  11.642  17.054  0.00  0.00    +0.000 OA
ENDBRANCH  24  26
ENDBRANCH  21  23
ENDBRANCH   1  21
TORSDOF 4
ENDMDL
MODEL 7
REMARK VINA RESULT:      -8.3      3.851      6.549
REMARK  Name = 
REMARK  4 active torsions:
REMARK  status: ('A' for Active; 'I' for Inactive)
REMARK    1  A    between atoms: C_2  and  C_3
REMARK    2  A    between atoms: C_3  and  N_4
REMARK    3  A    between atoms: C_9  and  C_10
REMARK    4  A    between atoms: N_24  and  C_25
REMARK                            x       y       z     vdW  Elec       q    Type
REMARK                         _______ _______ _______ _____ _____    ______ ____
ROOT
ATOM      1  N   UNL     1       0.274  11.334  19.663  0.00  0.00    +0.000 N 
ATOM      2  N   UNL     1       0.975  10.531  18.783  0.00  0.00    +0.000 NA
ATOM      3  C   UNL     1       1.211   9.461  19.481  0.00  0.00    +0.000 A 
ATOM      4  C   UNL     1       1.943   8.313  19.075  0.00  0.00    +0.000 A 
ATOM      5  C   UNL     1       2.630   7.992  17.939  0.00  0.00    +0.000 A 
ATOM      6  C   UNL     1       3.174   6.710  18.189  0.00  0.00    +0.000 A 
ATOM      7  N   UNL     1       2.819   6.273  19.411  0.00  0.00    +0.000 NA
ATOM      8  N   UNL     1       2.074   7.253  19.953  0.00  0.00    +0.000 N 
ATOM      9  C   UNL     1       1.492   7.309  21.228  0.00  0.00    +0.000 A 
ATOM     10  C   UNL     1       0.817   8.408  21.622  0.00  0.00    +0.000 A 
ATOM     11  N   UNL     1       0.699   9.460  20.744  0.00  0.00    +0.000 N 
ATOM     12  C   UNL     1       0.101  10.688  20.900  0.00  0.00    +0.000 A 
ATOM     13  O   UNL     1      -0.466  11.129  21.889  0.00  0.00    +0.000 OA
ENDROOT
BRANCH   6  14
ATOM     14  C   UNL     1       4.039   5.937  17.296  0.00  0.00    +0.000 A 
ATOM     15  C   UNL     1       4.789   6.575  16.295  0.00  0.00    +0.000 A 
ATOM     16  C   UNL     1       5.567   5.827  15.407  0.00  0.00    +0.000 A 
ATOM     17  C   UNL     1       5.604   4.443  15.525  0.00  0.00    +0.000 A 
ATOM     18  F   UNL     1       6.343   3.726  14.669  0.00  0.00    +0.000 F 
ATOM     19  C   UNL     1       4.882   3.791  16.516  0.00  0.00    +0.000 A 
ATOM     20  C   UNL     1       4.102   4.537  17.402  0.00  0.00    +0.000 A 
ENDBRANCH   6  14
BRANCH   1  21
ATOM     21  C   UNL     1      -0.118  12.690  19.340  0.00  0.00    +0.000 C 
BRANCH  21  23
ATOM     22  O   UNL     1      -2.465  12.431  18.927  0.00  0.00    +0.000 OA
ATOM     23  C   UNL     1      -1.595  12.990  19.591  0.00  0.00    +0.000 C 
ATOM     24  N   UNL     1      -1.822  13.841  20.657  0.00  0.00    +0.000 N 
ATOM     25  H   UNL     1      -1.013  13.995  21.250  0.00  0.00    +0.000 HD
BRANCH  24  26
ATOM     26  C   UNL     1      -3.075  14.118  21.225  0.00  0.00    +0.000 A 
ATOM     27  C   UNL     1      -3.910  15.161  20.819  0.00  0.00    +0.000 A 
ATOM     28  C   UNL     1      -5.199  15.276  21.353  0.00  0.00    +0.000 A 
ATOM     29  C   UNL     1      -5.663  14.322  22.258  0.00  0.00    +0.000 A 
ATOM     30  C   UNL     1      -4.829  13.275  22.636  0.00  0.00    +0.000 A 
ATOM     31  C   UNL     1      -3.516  13.217  22.189  0.00  0.00    +0.000 A 
ATOM     32  O   UNL     1      -5.260  12.204  23.362  0.00  0.00    +0.000 OA
ATOM     33  C   UNL     1      -6.265  12.605  24.276  0.00  0.00    +0.000 C 
ATOM     34  C   UNL     1      -7.352  13.488  23.670  0.00  0.00    +0.000 C 
ATOM     35  O   UNL     1      -6.936  14.469  22.719  0.00  0.00    +0.000 OA
ENDBRANCH  24  26
ENDBRANCH  21  23
ENDBRANCH   1  21
TORSDOF 4
ENDMDL
MODEL 8
REMARK VINA RESULT:      -8.2      1.963      2.326
REMARK  Name = 
REMARK  4 active torsions:
REMARK  status: ('A' for Active; 'I' for Inactive)
REMARK    1  A    between atoms: C_2  and  C_3
REMARK    2  A    between atoms: C_3  and  N_4
REMARK    3  A    between atoms: C_9  and  C_10
REMARK    4  A    between atoms: N_24  and  C_25
REMARK                            x       y       z     vdW  Elec       q    Type
REMARK                         _______ _______ _______ _____ _____    ______ ____
ROOT
ATOM      1  N   UNL     1       1.557  12.131  18.999  0.00  0.00    +0.000 N 
ATOM      2  N   UNL     1       1.902  10.885  18.509  0.00  0.00    +0.000 NA
ATOM      3  C   UNL     1       1.559  10.083  19.471  0.00  0.00    +0.000 A 
ATOM      4  C   UNL     1       1.728   8.673  19.517  0.00  0.00    +0.000 A 
ATOM      5  C   UNL     1       2.304   7.769  18.671  0.00  0.00    +0.000 A 
ATOM      6  C   UNL     1       2.183   6.522  19.326  0.00  0.00    +0.000 A 
ATOM      7  N   UNL     1       1.549   6.664  20.505  0.00  0.00    +0.000 NA
ATOM      8  N   UNL     1       1.278   7.977  20.624  0.00  0.00    +0.000 N 
ATOM      9  C   UNL     1       0.661   8.652  21.687  0.00  0.00    +0.000 A 
ATOM     10  C   UNL     1       0.521   9.992  21.653  0.00  0.00    +0.000 A 
ATOM     11  N   UNL     1       0.979  10.677  20.552  0.00  0.00    +0.000 N 
ATOM     12  C   UNL     1       0.989  12.024  20.280  0.00  0.00    +0.000 A 
ATOM     13  O   UNL     1       0.588  12.938  20.987  0.00  0.00    +0.000 OA
ENDROOT
BRANCH   6  14
ATOM     14  C   UNL     1       2.688   5.232  18.854  0.00  0.00    +0.000 A 
ATOM     15  C   UNL     1       1.992   4.504  17.876  0.00  0.00    +0.000 A 
ATOM     16  C   UNL     1       2.446   3.245  17.471  0.00  0.00    +0.000 A 
ATOM     17  C   UNL     1       3.602   2.718  18.036  0.00  0.00    +0.000 A 
ATOM     18  F   UNL     1       4.031   1.509  17.655  0.00  0.00    +0.000 F 
ATOM     19  C   UNL     1       4.315   3.426  18.994  0.00  0.00    +0.000 A 
ATOM     20  C   UNL     1       3.861   4.682  19.402  0.00  0.00    +0.000 A 
ENDBRANCH   6  14
BRANCH   1  21
ATOM     21  C   UNL     1       1.854  13.358  18.289  0.00  0.00    +0.000 C 
BRANCH  21  23
ATOM     22  O   UNL     1       3.321  14.166  20.003  0.00  0.00    +0.000 OA
ATOM     23  C   UNL     1       3.095  14.090  18.798  0.00  0.00    +0.000 C 
ATOM     24  N   UNL     1       3.932  14.541  17.794  0.00  0.00    +0.000 N 
ATOM     25  H   UNL     1       3.726  14.163  16.874  0.00  0.00    +0.000 HD
BRANCH  24  26
ATOM     26  C   UNL     1       5.223  15.059  17.982  0.00  0.00    +0.000 A 
ATOM     27  C   UNL     1       5.494  16.335  18.482  0.00  0.00    +0.000 A 
ATOM     28  C   UNL     1       6.813  16.713  18.761  0.00  0.00    +0.000 A 
ATOM     29  C   UNL     1       7.849  15.799  18.580  0.00  0.00    +0.000 A 
ATOM     30  C   UNL     1       7.562  14.524  18.104  0.00  0.00    +0.000 A 
ATOM     31  C   UNL     1       6.271  14.180  17.728  0.00  0.00    +0.000 A 
ATOM     32  O   UNL     1       8.480  13.514  18.077  0.00  0.00    +0.000 OA
ATOM     33  C   UNL     1       9.772  14.035  17.821  0.00  0.00    +0.000 C 
ATOM     34  C   UNL     1      10.139  15.253  18.663  0.00  0.00    +0.000 C 
ATOM     35  O   UNL     1       9.107  16.214  18.898  0.00  0.00    +0.000 OA
ENDBRANCH  24  26
ENDBRANCH  21  23
ENDBRANCH   1  21
TORSDOF 4
ENDMDL
MODEL 9
REMARK VINA RESULT:      -8.2      3.459      6.524
REMARK  Name = 
REMARK  4 active torsions:
REMARK  status: ('A' for Active; 'I' for Inactive)
REMARK    1  A    between atoms: C_2  and  C_3
REMARK    2  A    between atoms: C_3  and  N_4
REMARK    3  A    between atoms: C_9  and  C_10
REMARK    4  A    between atoms: N_24  and  C_25
REMARK                            x       y       z     vdW  Elec       q    Type
REMARK                         _______ _______ _______ _____ _____    ______ ____
ROOT
ATOM      1  N   UNL     1       1.081  10.806  20.005  0.00  0.00    +0.000 N 
ATOM      2  N   UNL     1       1.789  10.112  19.042  0.00  0.00    +0.000 NA
ATOM      3  C   UNL     1       1.787   8.894  19.494  0.00  0.00    +0.000 A 
ATOM      4  C   UNL     1       2.416   7.761  18.912  0.00  0.00    +0.000 A 
ATOM      5  C   UNL     1       3.207   7.588  17.812  0.00  0.00    +0.000 A 
ATOM      6  C   UNL     1       3.544   6.214  17.814  0.00  0.00    +0.000 A 
ATOM      7  N   UNL     1       2.969   5.585  18.856  0.00  0.00    +0.000 NA
ATOM      8  N   UNL     1       2.288   6.529  19.529  0.00  0.00    +0.000 N 
ATOM      9  C   UNL     1       1.547   6.400  20.713  0.00  0.00    +0.000 A 
ATOM     10  C   UNL     1       0.970   7.480  21.277  0.00  0.00    +0.000 A 
ATOM     11  N   UNL     1       1.109   8.701  20.660  0.00  0.00    +0.000 N 
ATOM     12  C   UNL     1       0.657   9.945  21.032  0.00  0.00    +0.000 A 
ATOM     13  O   UNL     1       0.019  10.246  22.031  0.00  0.00    +0.000 OA
ENDROOT
BRANCH   6  14
ATOM     14  C   UNL     1       4.418   5.526  16.863  0.00  0.00    +0.000 A 
ATOM     15  C   UNL     1       5.143   6.249  15.902  0.00  0.00    +0.000 A 
ATOM     16  C   UNL     1       5.930   5.583  14.958  0.00  0.00    +0.000 A 
ATOM     17  C   UNL     1       6.002   4.196  14.980  0.00  0.00    +0.000 A 
ATOM     18  F   UNL     1       6.749   3.558  14.070  0.00  0.00    +0.000 F 
ATOM     19  C   UNL     1       5.306   3.460  15.930  0.00  0.00    +0.000 A 
ATOM     20  C   UNL     1       4.517   4.123  16.871  0.00  0.00    +0.000 A 
ENDBRANCH   6  14
BRANCH   1  21
ATOM     21  C   UNL     1       0.913  12.244  19.966  0.00  0.00    +0.000 C 
BRANCH  21  23
ATOM     22  O   UNL     1      -0.528  13.744  18.775  0.00  0.00    +0.000 OA
ATOM     23  C   UNL     1      -0.439  12.701  19.418  0.00  0.00    +0.000 C 
ATOM     24  N   UNL     1      -1.467  11.803  19.638  0.00  0.00    +0.000 N 
ATOM     25  H   UNL     1      -1.163  10.886  19.949  0.00  0.00    +0.000 HD
BRANCH  24  26
ATOM     26  C   UNL     1      -2.749  11.879  19.072  0.00  0.00    +0.000 A 
ATOM     27  C   UNL     1      -3.132  11.220  17.901  0.00  0.00    +0.000 A 
ATOM     28  C   UNL     1      -4.469  11.247  17.486  0.00  0.00    +0.000 A 
ATOM     29  C   UNL     1      -5.424  11.895  18.268  0.00  0.00    +0.000 A 
ATOM     30  C   UNL     1      -5.033  12.526  19.444  0.00  0.00    +0.000 A 
ATOM     31  C   UNL     1      -3.694  12.591  19.803  0.00  0.00    +0.000 A 
ATOM     32  O   UNL     1      -5.920  13.017  20.357  0.00  0.00    +0.000 OA
ATOM     33  C   UNL     1      -7.075  13.509  19.701  0.00  0.00    +0.000 C 
ATOM     34  C   UNL     1      -7.649  12.568  18.646  0.00  0.00    +0.000 C 
ATOM     35  O   UNL     1      -6.713  11.860  17.830  0.00  0.00    +0.000 OA
ENDBRANCH  24  26
ENDBRANCH  21  23
ENDBRANCH   1  21
TORSDOF 4
ENDMDL
