MODEL 1
REMARK VINA RESULT:      -7.7      0.000      0.000
REMARK  Name = 
REMARK  3 active torsions:
REMARK  status: ('A' for Active; 'I' for Inactive)
REMARK    1  A    between atoms: C_2  and  C_9
REMARK    2  A    between atoms: C_14  and  N_15
REMARK    3  A    between atoms: C_16  and  C_18
REMARK                            x       y       z     vdW  Elec       q    Type
REMARK                         _______ _______ _______ _____ _____    ______ ____
ROOT
ATOM      1  C   UNL     1       4.026   5.927  17.534  0.00  0.00    +0.000 A 
ATOM      2  N   UNL     1       4.804   6.768  16.783  0.00  0.00    +0.000 NA
ATOM      3  C   UNL     1       5.550   6.191  15.820  0.00  0.00    +0.000 A 
ATOM      4  C   UNL     1       5.543   4.832  15.557  0.00  0.00    +0.000 A 
ATOM      5  C   UNL     1       4.723   4.000  16.321  0.00  0.00    +0.000 A 
ATOM      6  C   UNL     1       3.934   4.534  17.340  0.00  0.00    +0.000 A 
ENDROOT
BRANCH   1   8
ATOM      7  O   UNL     1       3.134   6.081  19.712  0.00  0.00    +0.000 OA
ATOM      8  C   UNL     1       3.228   6.612  18.609  0.00  0.00    +0.000 C 
ATOM      9  N   UNL     1       2.629   7.779  18.192  0.00  0.00    +0.000 N 
ATOM     10  C   UNL     1       1.816   8.503  19.014  0.00  0.00    +0.000 A 
ATOM     11  N   UNL     1       1.638   8.379  20.304  0.00  0.00    +0.000 NA
ATOM     12  C   UNL     1       0.672   9.270  20.721  0.00  0.00    +0.000 A 
ATOM     13  C   UNL     1       0.115  10.048  19.726  0.00  0.00    +0.000 A 
ATOM     14  S   UNL     1       0.890   9.706  18.232  0.00  0.00    +0.000 S 
ATOM     15  H   UNL     1       2.720   8.052  17.221  0.00  0.00    +0.000 HD
ENDBRANCH   1   8
BRANCH   6  16
ATOM     16  N   UNL     1       3.063   3.745  18.137  0.00  0.00    +0.000 N 
ATOM     17  C   UNL     1       1.682   3.603  18.034  0.00  0.00    +0.000 C 
ATOM     18  O   UNL     1       0.987   4.151  17.176  0.00  0.00    +0.000 OA
ATOM     19  H   UNL     1       3.524   3.209  18.888  0.00  0.00    +0.000 HD
BRANCH  17  20
ATOM     20  C   UNL     1       1.071   2.689  19.117  0.00  0.00    +0.000 C 
ATOM     21  F   UNL     1       2.013   1.945  19.765  0.00  0.00    +0.000 F 
ATOM     22  F   UNL     1       0.417   3.395  20.081  0.00  0.00    +0.000 F 
ATOM     23  F   UNL     1       0.172   1.804  18.605  0.00  0.00    +0.000 F 
ENDBRANCH  17  20
ENDBRANCH   6  16
TORSDOF 3
ENDMDL
MODEL 2
REMARK VINA RESULT:      -7.6      3.638      4.879
REMARK  Name = 
REMARK  3 active torsions:
REMARK  status: ('A' for Active; 'I' for Inactive)
REMARK    1  A    between atoms: C_2  and  C_9
REMARK    2  A    between atoms: C_14  and  N_15
REMARK    3  A    between atoms: C_16  and  C_18
REMARK                            x       y       z     vdW  Elec       q    Type
REMARK                         _______ _______ _______ _____ _____    ______ ____
ROOT
ATOM      1  C   UNL     1       2.957   4.948  19.868  0.00  0.00    +0.000 A 
ATOM      2  N   UNL     1       2.092   4.241  20.662  0.00  0.00    +0.000 NA
ATOM      3  C   UNL     1       2.456   2.978  20.964  0.00  0.00    +0.000 A 
ATOM      4  C   UNL     1       3.637   2.398  20.535  0.00  0.00    +0.000 A 
ATOM      5  C   UNL     1       4.512   3.148  19.748  0.00  0.00    +0.000 A 
ATOM      6  C   UNL     1       4.190   4.458  19.392  0.00  0.00    +0.000 A 
ENDROOT
BRANCH   1   8
ATOM      7  O   UNL     1       2.717   6.792  18.418  0.00  0.00    +0.000 OA
ATOM      8  C   UNL     1       2.502   6.342  19.540  0.00  0.00    +0.000 C 
ATOM      9  N   UNL     1       1.917   6.996  20.602  0.00  0.00    +0.000 N 
ATOM     10  C   UNL     1       1.498   8.291  20.507  0.00  0.00    +0.000 A 
ATOM     11  N   UNL     1       1.367   9.031  19.436  0.00  0.00    +0.000 NA
ATOM     12  C   UNL     1       0.984  10.303  19.804  0.00  0.00    +0.000 A 
ATOM     13  C   UNL     1       0.849  10.513  21.160  0.00  0.00    +0.000 A 
ATOM     14  S   UNL     1       1.133   9.039  21.997  0.00  0.00    +0.000 S 
ATOM     15  H   UNL     1       1.886   6.531  21.501  0.00  0.00    +0.000 HD
ENDBRANCH   1   8
BRANCH   6  16
ATOM     16  N   UNL     1       5.047   5.279  18.612  0.00  0.00    +0.000 N 
ATOM     17  C   UNL     1       6.363   5.651  18.869  0.00  0.00    +0.000 C 
ATOM     18  O   UNL     1       7.014   5.279  19.849  0.00  0.00    +0.000 OA
ATOM     19  H   UNL     1       4.630   5.643  17.741  0.00  0.00    +0.000 HD
BRANCH  17  20
ATOM     20  C   UNL     1       6.957   6.601  17.809  0.00  0.00    +0.000 C 
ATOM     21  F   UNL     1       7.456   5.933  16.729  0.00  0.00    +0.000 F 
ATOM     22  F   UNL     1       6.032   7.474  17.320  0.00  0.00    +0.000 F 
ATOM     23  F   UNL     1       7.981   7.353  18.298  0.00  0.00    +0.000 F 
ENDBRANCH  17  20
ENDBRANCH   6  16
TORSDOF 3
ENDMDL
MODEL 3
REMARK VINA RESULT:      -7.2      1.181      1.269
REMARK  Name = 
REMARK  3 active torsions:
REMARK  status: ('A' for Active; 'I' for Inactive)
REMARK    1  A    between atoms: C_2  and  C_9
REMARK    2  A    between atoms: C_14  and  N_15
REMARK    3  A    between atoms: C_16  and  C_18
REMARK                            x       y       z     vdW  Elec       q    Type
REMARK                         _______ _______ _______ _____ _____    ______ ____
ROOT
ATOM      1  C   UNL     1       3.645   6.217  17.828  0.00  0.00    +0.000 A 
ATOM      2  N   UNL     1       4.463   7.019  17.077  0.00  0.00    +0.000 NA
ATOM      3  C   UNL     1       5.238   6.396  16.167  0.00  0.00    +0.000 A 
ATOM      4  C   UNL     1       5.224   5.028  15.957  0.00  0.00    +0.000 A 
ATOM      5  C   UNL     1       4.363   4.236  16.719  0.00  0.00    +0.000 A 
ATOM      6  C   UNL     1       3.542   4.819  17.684  0.00  0.00    +0.000 A 
ENDROOT
BRANCH   1   8
ATOM      7  O   UNL     1       2.665   6.462  19.959  0.00  0.00    +0.000 OA
ATOM      8  C   UNL     1       2.814   6.952  18.843  0.00  0.00    +0.000 C 
ATOM      9  N   UNL     1       2.253   8.113  18.361  0.00  0.00    +0.000 N 
ATOM     10  C   UNL     1       1.419   8.878  19.121  0.00  0.00    +0.000 A 
ATOM     11  N   UNL     1       1.185   8.803  20.406  0.00  0.00    +0.000 NA
ATOM     12  C   UNL     1       0.217   9.724  20.750  0.00  0.00    +0.000 A 
ATOM     13  C   UNL     1      -0.284  10.473  19.706  0.00  0.00    +0.000 A 
ATOM     14  S   UNL     1       0.547  10.066  18.259  0.00  0.00    +0.000 S 
ATOM     15  H   UNL     1       2.389   8.349  17.385  0.00  0.00    +0.000 HD
ENDBRANCH   1   8
BRANCH   6  16
ATOM     16  N   UNL     1       2.630   4.071  18.475  0.00  0.00    +0.000 N 
ATOM     17  C   UNL     1       2.904   3.207  19.533  0.00  0.00    +0.000 C 
ATOM     18  O   UNL     1       4.033   2.979  19.971  0.00  0.00    +0.000 OA
ATOM     19  H   UNL     1       1.636   4.190  18.226  0.00  0.00    +0.000 HD
BRANCH  17  20
ATOM     20  C   UNL     1       1.648   2.532  20.121  0.00  0.00    +0.000 C 
ATOM     21  F   UNL     1       1.810   2.175  21.428  0.00  0.00    +0.000 F 
ATOM     22  F   UNL     1       0.557   3.346  20.084  0.00  0.00    +0.000 F 
ATOM     23  F   UNL     1       1.308   1.394  19.455  0.00  0.00    +0.000 F 
ENDBRANCH  17  20
ENDBRANCH   6  16
TORSDOF 3
ENDMDL
MODEL 4
REMARK VINA RESULT:      -7.2      2.435      5.088
REMARK  Name = 
REMARK  3 active torsions:
REMARK  status: ('A' for Active; 'I' for Inactive)
REMARK    1  A    between atoms: C_2  and  C_9
REMARK    2  A    between atoms: C_14  and  N_15
REMARK    3  A    between atoms: C_16  and  C_18
REMARK                            x       y       z     vdW  Elec       q    Type
REMARK                         _______ _______ _______ _____ _____    ______ ____
ROOT
ATOM      1  C   UNL     1       2.394   7.110  18.825  0.00  0.00    +0.000 A 
ATOM      2  N   UNL     1       2.183   8.323  18.223  0.00  0.00    +0.000 NA
ATOM      3  C   UNL     1       1.536   9.250  18.958  0.00  0.00    +0.000 A 
ATOM      4  C   UNL     1       1.111   9.036  20.258  0.00  0.00    +0.000 A 
ATOM      5  C   UNL     1       1.360   7.800  20.856  0.00  0.00    +0.000 A 
ATOM      6  C   UNL     1       2.017   6.795  20.145  0.00  0.00    +0.000 A 
ENDROOT
BRANCH   1   8
ATOM      7  O   UNL     1       2.510   5.074  17.641  0.00  0.00    +0.000 OA
ATOM      8  C   UNL     1       3.100   6.102  17.961  0.00  0.00    +0.000 C 
ATOM      9  N   UNL     1       4.400   6.445  17.664  0.00  0.00    +0.000 N 
ATOM     10  C   UNL     1       5.213   5.621  16.942  0.00  0.00    +0.000 A 
ATOM     11  N   UNL     1       4.895   4.552  16.258  0.00  0.00    +0.000 NA
ATOM     12  C   UNL     1       6.039   3.981  15.742  0.00  0.00    +0.000 A 
ATOM     13  C   UNL     1       7.218   4.622  16.063  0.00  0.00    +0.000 A 
ATOM     14  S   UNL     1       6.869   6.036  16.975  0.00  0.00    +0.000 S 
ATOM     15  H   UNL     1       4.787   7.286  18.074  0.00  0.00    +0.000 HD
ENDBRANCH   1   8
BRANCH   6  16
ATOM     16  N   UNL     1       2.319   5.525  20.705  0.00  0.00    +0.000 N 
ATOM     17  C   UNL     1       1.558   4.359  20.674  0.00  0.00    +0.000 C 
ATOM     18  O   UNL     1       0.469   4.253  20.104  0.00  0.00    +0.000 OA
ATOM     19  H   UNL     1       3.224   5.468  21.196  0.00  0.00    +0.000 HD
BRANCH  17  20
ATOM     20  C   UNL     1       2.196   3.183  21.440  0.00  0.00    +0.000 C 
ATOM     21  F   UNL     1       2.496   3.501  22.732  0.00  0.00    +0.000 F 
ATOM     22  F   UNL     1       1.375   2.097  21.498  0.00  0.00    +0.000 F 
ATOM     23  F   UNL     1       3.359   2.761  20.871  0.00  0.00    +0.000 F 
ENDBRANCH  17  20
ENDBRANCH   6  16
TORSDOF 3
ENDMDL
MODEL 5
REMARK VINA RESULT:      -7.1      3.384      4.465
REMARK  Name = 
REMARK  3 active torsions:
REMARK  status: ('A' for Active; 'I' for Inactive)
REMARK    1  A    between atoms: C_2  and  C_9
REMARK    2  A    between atoms: C_14  and  N_15
REMARK    3  A    between atoms: C_16  and  C_18
REMARK                            x       y       z     vdW  Elec       q    Type
REMARK                         _______ _______ _______ _____ _____    ______ ____
ROOT
ATOM      1  C   UNL     1       2.792   5.088  19.949  0.00  0.00    +0.000 A 
ATOM      2  N   UNL     1       2.089   4.435  20.927  0.00  0.00    +0.000 NA
ATOM      3  C   UNL     1       2.487   3.179  21.211  0.00  0.00    +0.000 A 
ATOM      4  C   UNL     1       3.554   2.554  20.589  0.00  0.00    +0.000 A 
ATOM      5  C   UNL     1       4.269   3.251  19.613  0.00  0.00    +0.000 A 
ATOM      6  C   UNL     1       3.902   4.551  19.266  0.00  0.00    +0.000 A 
ENDROOT
BRANCH   1   8
ATOM      7  O   UNL     1       2.421   6.921  18.513  0.00  0.00    +0.000 OA
ATOM      8  C   UNL     1       2.301   6.477  19.651  0.00  0.00    +0.000 C 
ATOM      9  N   UNL     1       1.798   7.132  20.753  0.00  0.00    +0.000 N 
ATOM     10  C   UNL     1       1.364   8.424  20.685  0.00  0.00    +0.000 A 
ATOM     11  N   UNL     1       1.140   9.156  19.624  0.00  0.00    +0.000 NA
ATOM     12  C   UNL     1       0.778  10.428  20.015  0.00  0.00    +0.000 A 
ATOM     13  C   UNL     1       0.752  10.645  21.377  0.00  0.00    +0.000 A 
ATOM     14  S   UNL     1       1.114   9.178  22.196  0.00  0.00    +0.000 S 
ATOM     15  H   UNL     1       1.844   6.673  21.654  0.00  0.00    +0.000 HD
ENDBRANCH   1   8
BRANCH   6  16
ATOM     16  N   UNL     1       4.602   5.319  18.298  0.00  0.00    +0.000 N 
ATOM     17  C   UNL     1       4.823   5.029  16.954  0.00  0.00    +0.000 C 
ATOM     18  O   UNL     1       4.397   4.025  16.379  0.00  0.00    +0.000 OA
ATOM     19  H   UNL     1       4.995   6.207  18.646  0.00  0.00    +0.000 HD
BRANCH  17  20
ATOM     20  C   UNL     1       5.676   6.087  16.225  0.00  0.00    +0.000 C 
ATOM     21  F   UNL     1       6.263   6.968  17.085  0.00  0.00    +0.000 F 
ATOM     22  F   UNL     1       6.689   5.529  15.506  0.00  0.00    +0.000 F 
ATOM     23  F   UNL     1       4.945   6.834  15.353  0.00  0.00    +0.000 F 
ENDBRANCH  17  20
ENDBRANCH   6  16
TORSDOF 3
ENDMDL
MODEL 6
REMARK VINA RESULT:      -7.1      3.653      6.078
REMARK  Name = 
REMARK  3 active torsions:
REMARK  status: ('A' for Active; 'I' for Inactive)
REMARK    1  A    between atoms: C_2  and  C_9
REMARK    2  A    between atoms: C_14  and  N_15
REMARK    3  A    between atoms: C_16  and  C_18
REMARK                            x       y       z     vdW  Elec       q    Type
REMARK                         _______ _______ _______ _____ _____    ______ ____
ROOT
ATOM      1  C   UNL     1       3.542   3.948  19.690  0.00  0.00    +0.000 A 
ATOM      2  N   UNL     1       3.588   2.794  20.427  0.00  0.00    +0.000 NA
ATOM      3  C   UNL     1       2.493   2.509  21.159  0.00  0.00    +0.000 A 
ATOM      4  C   UNL     1       1.357   3.300  21.179  0.00  0.00    +0.000 A 
ATOM      5  C   UNL     1       1.327   4.458  20.401  0.00  0.00    +0.000 A 
ATOM      6  C   UNL     1       2.432   4.814  19.627  0.00  0.00    +0.000 A 
ENDROOT
BRANCH   1   8
ATOM      7  O   UNL     1       5.780   4.664  19.495  0.00  0.00    +0.000 OA
ATOM      8  C   UNL     1       4.792   4.236  18.906  0.00  0.00    +0.000 C 
ATOM      9  N   UNL     1       4.654   4.025  17.552  0.00  0.00    +0.000 N 
ATOM     10  C   UNL     1       5.665   4.293  16.677  0.00  0.00    +0.000 A 
ATOM     11  N   UNL     1       6.920   4.558  16.933  0.00  0.00    +0.000 NA
ATOM     12  C   UNL     1       7.579   4.837  15.755  0.00  0.00    +0.000 A 
ATOM     13  C   UNL     1       6.801   4.798  14.617  0.00  0.00    +0.000 A 
ATOM     14  S   UNL     1       5.206   4.312  15.033  0.00  0.00    +0.000 S 
ATOM     15  H   UNL     1       3.747   3.755  17.193  0.00  0.00    +0.000 HD
ENDBRANCH   1   8
BRANCH   6  16
ATOM     16  N   UNL     1       2.455   5.967  18.799  0.00  0.00    +0.000 N 
ATOM     17  C   UNL     1       2.271   7.300  19.159  0.00  0.00    +0.000 C 
ATOM     18  O   UNL     1       2.079   7.689  20.313  0.00  0.00    +0.000 OA
ATOM     19  H   UNL     1       2.632   5.783  17.799  0.00  0.00    +0.000 HD
BRANCH  17  20
ATOM     20  C   UNL     1       2.317   8.276  17.966  0.00  0.00    +0.000 C 
ATOM     21  F   UNL     1       1.112   8.391  17.338  0.00  0.00    +0.000 F 
ATOM     22  F   UNL     1       2.670   9.537  18.342  0.00  0.00    +0.000 F 
ATOM     23  F   UNL     1       3.209   7.890  17.012  0.00  0.00    +0.000 F 
ENDBRANCH  17  20
ENDBRANCH   6  16
TORSDOF 3
ENDMDL
MODEL 7
REMARK VINA RESULT:      -7.0      3.358      4.737
REMARK  Name = 
REMARK  3 active torsions:
REMARK  status: ('A' for Active; 'I' for Inactive)
REMARK    1  A    between atoms: C_2  and  C_9
REMARK    2  A    between atoms: C_14  and  N_15
REMARK    3  A    between atoms: C_16  and  C_18
REMARK                            x       y       z     vdW  Elec       q    Type
REMARK                         _______ _______ _______ _____ _____    ______ ____
ROOT
ATOM      1  C   UNL     1       2.948   4.762  19.837  0.00  0.00    +0.000 A 
ATOM      2  N   UNL     1       1.986   4.520  20.782  0.00  0.00    +0.000 NA
ATOM      3  C   UNL     1       2.089   3.355  21.453  0.00  0.00    +0.000 A 
ATOM      4  C   UNL     1       3.105   2.438  21.245  0.00  0.00    +0.000 A 
ATOM      5  C   UNL     1       4.086   2.721  20.293  0.00  0.00    +0.000 A 
ATOM      6  C   UNL     1       4.031   3.905  19.558  0.00  0.00    +0.000 A 
ENDROOT
BRANCH   1   8
ATOM      7  O   UNL     1       3.379   6.227  18.040  0.00  0.00    +0.000 OA
ATOM      8  C   UNL     1       2.782   6.062  19.100  0.00  0.00    +0.000 C 
ATOM      9  N   UNL     1       1.984   6.971  19.758  0.00  0.00    +0.000 N 
ATOM     10  C   UNL     1       1.771   8.226  19.268  0.00  0.00    +0.000 A 
ATOM     11  N   UNL     1       2.059   8.702  18.085  0.00  0.00    +0.000 NA
ATOM     12  C   UNL     1       1.736  10.042  18.039  0.00  0.00    +0.000 A 
ATOM     13  C   UNL     1       1.222  10.568  19.206  0.00  0.00    +0.000 A 
ATOM     14  S   UNL     1       1.062   9.317  20.374  0.00  0.00    +0.000 S 
ATOM     15  H   UNL     1       1.627   6.730  20.674  0.00  0.00    +0.000 HD
ENDBRANCH   1   8
BRANCH   6  16
ATOM     16  N   UNL     1       5.010   4.260  18.592  0.00  0.00    +0.000 N 
ATOM     17  C   UNL     1       6.257   4.845  18.794  0.00  0.00    +0.000 C 
ATOM     18  O   UNL     1       6.723   5.128  19.900  0.00  0.00    +0.000 OA
ATOM     19  H   UNL     1       4.754   4.052  17.614  0.00  0.00    +0.000 HD
BRANCH  17  20
ATOM     20  C   UNL     1       7.026   5.129  17.488  0.00  0.00    +0.000 C 
ATOM     21  F   UNL     1       7.607   6.363  17.481  0.00  0.00    +0.000 F 
ATOM     22  F   UNL     1       8.034   4.236  17.276  0.00  0.00    +0.000 F 
ATOM     23  F   UNL     1       6.224   5.078  16.389  0.00  0.00    +0.000 F 
ENDBRANCH  17  20
ENDBRANCH   6  16
TORSDOF 3
ENDMDL
MODEL 8
REMARK VINA RESULT:      -6.9      3.639      4.735
REMARK  Name = 
REMARK  3 active torsions:
REMARK  status: ('A' for Active; 'I' for Inactive)
REMARK    1  A    between atoms: C_2  and  C_9
REMARK    2  A    between atoms: C_14  and  N_15
REMARK    3  A    between atoms: C_16  and  C_18
REMARK                            x       y       z     vdW  Elec       q    Type
REMARK                         _______ _______ _______ _____ _____    ______ ____
ROOT
ATOM      1  C   UNL     1       2.936   4.963  19.807  0.00  0.00    +0.000 A 
ATOM      2  N   UNL     1       1.972   4.179  20.386  0.00  0.00    +0.000 NA
ATOM      3  C   UNL     1       2.319   2.904  20.650  0.00  0.00    +0.000 A 
ATOM      4  C   UNL     1       3.573   2.380  20.388  0.00  0.00    +0.000 A 
ATOM      5  C   UNL     1       4.545   3.207  19.820  0.00  0.00    +0.000 A 
ATOM      6  C   UNL     1       4.246   4.534  19.513  0.00  0.00    +0.000 A 
ENDROOT
BRANCH   1   8
ATOM      7  O   UNL     1       2.754   6.856  18.413  0.00  0.00    +0.000 OA
ATOM      8  C   UNL     1       2.499   6.370  19.511  0.00  0.00    +0.000 C 
ATOM      9  N   UNL     1       1.882   6.991  20.574  0.00  0.00    +0.000 N 
ATOM     10  C   UNL     1       1.474   8.291  20.509  0.00  0.00    +0.000 A 
ATOM     11  N   UNL     1       1.383   9.068  19.460  0.00  0.00    +0.000 NA
ATOM     12  C   UNL     1       0.994  10.330  19.857  0.00  0.00    +0.000 A 
ATOM     13  C   UNL     1       0.816  10.494  21.215  0.00  0.00    +0.000 A 
ATOM     14  S   UNL     1       1.064   8.992  22.011  0.00  0.00    +0.000 S 
ATOM     15  H   UNL     1       1.819   6.497  21.456  0.00  0.00    +0.000 HD
ENDBRANCH   1   8
BRANCH   6  16
ATOM     16  N   UNL     1       5.196   5.430  18.955  0.00  0.00    +0.000 N 
ATOM     17  C   UNL     1       5.883   5.327  17.748  0.00  0.00    +0.000 C 
ATOM     18  O   UNL     1       5.734   4.409  16.939  0.00  0.00    +0.000 OA
ATOM     19  H   UNL     1       5.398   6.265  19.527  0.00  0.00    +0.000 HD
BRANCH  17  20
ATOM     20  C   UNL     1       6.878   6.479  17.502  0.00  0.00    +0.000 C 
ATOM     21  F   UNL     1       6.260   7.689  17.386  0.00  0.00    +0.000 F 
ATOM     22  F   UNL     1       7.779   6.610  18.516  0.00  0.00    +0.000 F 
ATOM     23  F   UNL     1       7.600   6.308  16.361  0.00  0.00    +0.000 F 
ENDBRANCH  17  20
ENDBRANCH   6  16
TORSDOF 3
ENDMDL
MODEL 9
REMARK VINA RESULT:      -6.9      3.585      5.955
REMARK  Name = 
REMARK  3 active torsions:
REMARK  status: ('A' for Active; 'I' for Inactive)
REMARK    1  A    between atoms: C_2  and  C_9
REMARK    2  A    between atoms: C_14  and  N_15
REMARK    3  A    between atoms: C_16  and  C_18
REMARK                            x       y       z     vdW  Elec       q    Type
REMARK                         _______ _______ _______ _____ _____    ______ ____
ROOT
ATOM      1  C   UNL     1       4.003   3.735  20.034  0.00  0.00    +0.000 A 
ATOM      2  N   UNL     1       4.163   2.444  20.466  0.00  0.00    +0.000 NA
ATOM      3  C   UNL     1       3.206   1.965  21.286  0.00  0.00    +0.000 A 
ATOM      4  C   UNL     1       2.097   2.696  21.677  0.00  0.00    +0.000 A 
ATOM      5  C   UNL     1       1.946   4.000  21.204  0.00  0.00    +0.000 A 
ATOM      6  C   UNL     1       2.906   4.558  20.360  0.00  0.00    +0.000 A 
ENDROOT
BRANCH   1   8
ATOM      7  O   UNL     1       5.978   4.953  19.613  0.00  0.00    +0.000 OA
ATOM      8  C   UNL     1       5.104   4.233  19.140  0.00  0.00    +0.000 C 
ATOM      9  N   UNL     1       4.964   3.846  17.826  0.00  0.00    +0.000 N 
ATOM     10  C   UNL     1       5.835   4.256  16.859  0.00  0.00    +0.000 A 
ATOM     11  N   UNL     1       6.993   4.849  17.000  0.00  0.00    +0.000 NA
ATOM     12  C   UNL     1       7.507   5.149  15.757  0.00  0.00    +0.000 A 
ATOM     13  C   UNL     1       6.714   4.793  14.686  0.00  0.00    +0.000 A 
ATOM     14  S   UNL     1       5.313   3.979  15.257  0.00  0.00    +0.000 S 
ATOM     15  H   UNL     1       4.139   3.323  17.558  0.00  0.00    +0.000 HD
ENDBRANCH   1   8
BRANCH   6  16
ATOM     16  N   UNL     1       2.798   5.870  19.828  0.00  0.00    +0.000 N 
ATOM     17  C   UNL     1       2.407   6.259  18.550  0.00  0.00    +0.000 C 
ATOM     18  O   UNL     1       2.055   5.480  17.661  0.00  0.00    +0.000 OA
ATOM     19  H   UNL     1       3.044   6.628  20.483  0.00  0.00    +0.000 HD
BRANCH  17  20
ATOM     20  C   UNL     1       2.460   7.784  18.323  0.00  0.00    +0.000 C 
ATOM     21  F   UNL     1       1.524   8.213  17.429  0.00  0.00    +0.000 F 
ATOM     22  F   UNL     1       2.237   8.486  19.470  0.00  0.00    +0.000 F 
ATOM     23  F   UNL     1       3.664   8.197  17.842  0.00  0.00    +0.000 F 
ENDBRANCH  17  20
ENDBRANCH   6  16
TORSDOF 3
ENDMDL
