MODEL 1
REMARK VINA RESULT:      -8.1      0.000      0.000
REMARK  Name = 
REMARK  4 active torsions:
REMARK  status: ('A' for Active; 'I' for Inactive)
REMARK    1  A    between atoms: C_1  and  N_2
REMARK    2  A    between atoms: C_5  and  C_6
REMARK    3  A    between atoms: C_10  and  O_11
REMARK    4  A    between atoms: C_17  and  C_18
REMARK                            x       y       z     vdW  Elec       q    Type
REMARK                         _______ _______ _______ _____ _____    ______ ____
ROOT
ATOM      1  C   UNL     1       6.242   7.646  18.013  0.00  0.00    +0.000 C 
ATOM      2  N   UNL     1       5.837   6.244  17.987  0.00  0.00    +0.000 NA
ATOM      3  C   UNL     1       6.945   5.308  17.806  0.00  0.00    +0.000 C 
ATOM      4  C   UNL     1       7.195   4.769  16.391  0.00  0.00    +0.000 C 
ATOM      5  C   UNL     1       5.928   4.528  15.529  0.00  0.00    +0.000 C 
ATOM      6  C   UNL     1       5.115   3.303  16.012  0.00  0.00    +0.000 C 
ATOM      7  C   UNL     1       4.181   3.496  17.193  0.00  0.00    +0.000 C 
ATOM      8  O   UNL     1       3.658   2.511  17.719  0.00  0.00    +0.000 OA
ATOM      9  C   UNL     1       3.839   4.877  17.651  0.00  0.00    +0.000 C 
ATOM     10  C   UNL     1       2.791   5.008  18.490  0.00  0.00    +0.000 C 
ATOM     11  C   UNL     1       4.676   6.013  17.125  0.00  0.00    +0.000 C 
ATOM     12  C   UNL     1       5.052   5.782  15.665  0.00  0.00    +0.000 C 
ENDROOT
BRANCH  10  13
ATOM     13  C   UNL     1       2.396   6.290  19.078  0.00  0.00    +0.000 A 
ATOM     14  C   UNL     1       1.999   6.374  20.415  0.00  0.00    +0.000 A 
ATOM     15  C   UNL     1       1.546   7.590  20.934  0.00  0.00    +0.000 A 
ATOM     16  C   UNL     1       1.495   8.728  20.123  0.00  0.00    +0.000 A 
ATOM     17 CL   UNL     1       0.901  10.190  20.827  0.00  0.00    +0.000 Cl
ATOM     18  C   UNL     1       1.903   8.649  18.788  0.00  0.00    +0.000 A 
ATOM     19 CL   UNL     1       1.863  10.011  17.724  0.00  0.00    +0.000 Cl
ATOM     20  C   UNL     1       2.350   7.431  18.268  0.00  0.00    +0.000 A 
ENDBRANCH  10  13
BRANCH   5  21
ATOM     21  C   UNL     1       6.358   4.265  14.064  0.00  0.00    +0.000 A 
ATOM     22  C   UNL     1       7.272   5.120  13.417  0.00  0.00    +0.000 A 
ATOM     23  C   UNL     1       7.697   4.871  12.106  0.00  0.00    +0.000 A 
ATOM     24  C   UNL     1       7.225   3.764  11.409  0.00  0.00    +0.000 A 
ATOM     25  C   UNL     1       6.320   2.917  12.034  0.00  0.00    +0.000 A 
ATOM     26  C   UNL     1       5.891   3.157  13.334  0.00  0.00    +0.000 A 
BRANCH  25  27
ATOM     27  O   UNL     1       5.827   1.814  11.404  0.00  0.00    +0.000 OA
ATOM     28  H   UNL     1       4.991   2.047  10.970  0.00  0.00    +0.000 HD
ENDBRANCH  25  27
ENDBRANCH   5  21
TORSDOF 3
ENDMDL
MODEL 2
REMARK VINA RESULT:      -7.8      0.829      1.458
REMARK  Name = 
REMARK  4 active torsions:
REMARK  status: ('A' for Active; 'I' for Inactive)
REMARK    1  A    between atoms: C_1  and  N_2
REMARK    2  A    between atoms: C_5  and  C_6
REMARK    3  A    between atoms: C_10  and  O_11
REMARK    4  A    between atoms: C_17  and  C_18
REMARK                            x       y       z     vdW  Elec       q    Type
REMARK                         _______ _______ _______ _____ _____    ______ ____
ROOT
ATOM      1  C   UNL     1       6.050   8.380  17.541  0.00  0.00    +0.000 C 
ATOM      2  N   UNL     1       5.697   6.972  17.698  0.00  0.00    +0.000 NA
ATOM      3  C   UNL     1       6.841   6.065  17.661  0.00  0.00    +0.000 C 
ATOM      4  C   UNL     1       7.140   5.350  16.336  0.00  0.00    +0.000 C 
ATOM      5  C   UNL     1       5.900   4.948  15.494  0.00  0.00    +0.000 C 
ATOM      6  C   UNL     1       5.122   3.768  16.125  0.00  0.00    +0.000 C 
ATOM      7  C   UNL     1       4.158   4.081  17.255  0.00  0.00    +0.000 C 
ATOM      8  O   UNL     1       3.660   3.156  17.901  0.00  0.00    +0.000 OA
ATOM      9  C   UNL     1       3.757   5.497  17.517  0.00  0.00    +0.000 C 
ATOM     10  C   UNL     1       2.688   5.699  18.314  0.00  0.00    +0.000 C 
ATOM     11  C   UNL     1       4.563   6.584  16.856  0.00  0.00    +0.000 C 
ATOM     12  C   UNL     1       4.977   6.174  15.447  0.00  0.00    +0.000 C 
ENDROOT
BRANCH  10  13
ATOM     13  C   UNL     1       2.235   7.032  18.719  0.00  0.00    +0.000 A 
ATOM     14  C   UNL     1       2.134   8.068  17.787  0.00  0.00    +0.000 A 
ATOM     15  C   UNL     1       1.782   9.353  18.207  0.00  0.00    +0.000 A 
ATOM     16  C   UNL     1       1.522   9.607  19.558  0.00  0.00    +0.000 A 
ATOM     17 CL   UNL     1       1.116  11.225  20.007  0.00  0.00    +0.000 Cl
ATOM     18  C   UNL     1       1.612   8.569  20.490  0.00  0.00    +0.000 A 
ATOM     19 CL   UNL     1       1.310   8.808  22.176  0.00  0.00    +0.000 Cl
ATOM     20  C   UNL     1       1.970   7.286  20.070  0.00  0.00    +0.000 A 
ENDBRANCH  10  13
BRANCH   5  21
ATOM     21  C   UNL     1       6.370   4.507  14.085  0.00  0.00    +0.000 A 
ATOM     22  C   UNL     1       7.408   5.194  13.425  0.00  0.00    +0.000 A 
ATOM     23  C   UNL     1       7.867   4.783  12.167  0.00  0.00    +0.000 A 
ATOM     24  C   UNL     1       7.304   3.677  11.538  0.00  0.00    +0.000 A 
ATOM     25  C   UNL     1       6.277   2.995  12.176  0.00  0.00    +0.000 A 
ATOM     26  C   UNL     1       5.814   3.397  13.423  0.00  0.00    +0.000 A 
BRANCH  25  27
ATOM     27  O   UNL     1       5.691   1.903  11.612  0.00  0.00    +0.000 OA
ATOM     28  H   UNL     1       6.304   1.152  11.667  0.00  0.00    +0.000 HD
ENDBRANCH  25  27
ENDBRANCH   5  21
TORSDOF 3
ENDMDL
MODEL 3
REMARK VINA RESULT:      -7.6      6.381     10.052
REMARK  Name = 
REMARK  4 active torsions:
REMARK  status: ('A' for Active; 'I' for Inactive)
REMARK    1  A    between atoms: C_1  and  N_2
REMARK    2  A    between atoms: C_5  and  C_6
REMARK    3  A    between atoms: C_10  and  O_11
REMARK    4  A    between atoms: C_17  and  C_18
REMARK                            x       y       z     vdW  Elec       q    Type
REMARK                         _______ _______ _______ _____ _____    ______ ____
ROOT
ATOM      1  C   UNL     1      -3.598  12.102  19.362  0.00  0.00    +0.000 C 
ATOM      2  N   UNL     1      -2.303  12.612  19.800  0.00  0.00    +0.000 NA
ATOM      3  C   UNL     1      -1.344  12.810  18.717  0.00  0.00    +0.000 C 
ATOM      4  C   UNL     1      -0.298  11.712  18.483  0.00  0.00    +0.000 C 
ATOM      5  C   UNL     1       0.225  10.999  19.760  0.00  0.00    +0.000 C 
ATOM      6  C   UNL     1       1.152  11.909  20.601  0.00  0.00    +0.000 C 
ATOM      7  C   UNL     1       0.499  12.921  21.526  0.00  0.00    +0.000 C 
ATOM      8  O   UNL     1       1.194  13.781  22.071  0.00  0.00    +0.000 OA
ATOM      9  C   UNL     1      -0.960  12.812  21.832  0.00  0.00    +0.000 C 
ATOM     10  C   UNL     1      -1.427  13.530  22.874  0.00  0.00    +0.000 C 
ATOM     11  C   UNL     1      -1.788  11.896  20.970  0.00  0.00    +0.000 C 
ATOM     12  C   UNL     1      -1.006  10.639  20.603  0.00  0.00    +0.000 C 
ENDROOT
BRANCH  10  13
ATOM     13  C   UNL     1      -2.846  13.580  23.236  0.00  0.00    +0.000 A 
ATOM     14  C   UNL     1      -3.410  12.606  24.064  0.00  0.00    +0.000 A 
ATOM     15  C   UNL     1      -4.782  12.622  24.328  0.00  0.00    +0.000 A 
ATOM     16  C   UNL     1      -5.595  13.616  23.773  0.00  0.00    +0.000 A 
ATOM     17 CL   UNL     1      -7.285  13.559  24.125  0.00  0.00    +0.000 Cl
ATOM     18  C   UNL     1      -5.031  14.599  22.954  0.00  0.00    +0.000 A 
ATOM     19 CL   UNL     1      -5.972  15.854  22.229  0.00  0.00    +0.000 Cl
ATOM     20  C   UNL     1      -3.660  14.577  22.685  0.00  0.00    +0.000 A 
ENDBRANCH  10  13
BRANCH   5  21
ATOM     21  C   UNL     1       1.039   9.750  19.340  0.00  0.00    +0.000 A 
ATOM     22  C   UNL     1       1.608   9.660  18.053  0.00  0.00    +0.000 A 
ATOM     23  C   UNL     1       2.377   8.552  17.675  0.00  0.00    +0.000 A 
ATOM     24  C   UNL     1       2.601   7.510  18.569  0.00  0.00    +0.000 A 
ATOM     25  C   UNL     1       2.042   7.586  19.838  0.00  0.00    +0.000 A 
ATOM     26  C   UNL     1       1.276   8.679  20.221  0.00  0.00    +0.000 A 
BRANCH  25  27
ATOM     27  O   UNL     1       2.232   6.599  20.757  0.00  0.00    +0.000 OA
ATOM     28  H   UNL     1       1.531   6.653  21.427  0.00  0.00    +0.000 HD
ENDBRANCH  25  27
ENDBRANCH   5  21
TORSDOF 3
ENDMDL
MODEL 4
REMARK VINA RESULT:      -7.4      6.092      9.579
REMARK  Name = 
REMARK  4 active torsions:
REMARK  status: ('A' for Active; 'I' for Inactive)
REMARK    1  A    between atoms: C_1  and  N_2
REMARK    2  A    between atoms: C_5  and  C_6
REMARK    3  A    between atoms: C_10  and  O_11
REMARK    4  A    between atoms: C_17  and  C_18
REMARK                            x       y       z     vdW  Elec       q    Type
REMARK                         _______ _______ _______ _____ _____    ______ ____
ROOT
ATOM      1  C   UNL     1      -0.615  13.962  18.577  0.00  0.00    +0.000 C 
ATOM      2  N   UNL     1      -0.426  13.288  19.858  0.00  0.00    +0.000 NA
ATOM      3  C   UNL     1       0.973  13.094  20.227  0.00  0.00    +0.000 C 
ATOM      4  C   UNL     1       1.598  11.719  19.952  0.00  0.00    +0.000 C 
ATOM      5  C   UNL     1       0.651  10.502  20.133  0.00  0.00    +0.000 C 
ATOM      6  C   UNL     1       0.333  10.225  21.622  0.00  0.00    +0.000 C 
ATOM      7  C   UNL     1      -0.746  11.064  22.282  0.00  0.00    +0.000 C 
ATOM      8  O   UNL     1      -0.900  11.000  23.504  0.00  0.00    +0.000 OA
ATOM      9  C   UNL     1      -1.661  11.893  21.440  0.00  0.00    +0.000 C 
ATOM     10  C   UNL     1      -2.775  12.375  22.028  0.00  0.00    +0.000 C 
ATOM     11  C   UNL     1      -1.280  12.106  19.998  0.00  0.00    +0.000 C 
ATOM     12  C   UNL     1      -0.658  10.845  19.407  0.00  0.00    +0.000 C 
ENDROOT
BRANCH  10  13
ATOM     13  C   UNL     1      -3.716  13.265  21.345  0.00  0.00    +0.000 A 
ATOM     14  C   UNL     1      -3.518  14.648  21.336  0.00  0.00    +0.000 A 
ATOM     15  C   UNL     1      -4.471  15.486  20.751  0.00  0.00    +0.000 A 
ATOM     16  C   UNL     1      -5.621  14.947  20.167  0.00  0.00    +0.000 A 
ATOM     17 CL   UNL     1      -6.766  16.046  19.485  0.00  0.00    +0.000 Cl
ATOM     18  C   UNL     1      -5.816  13.562  20.164  0.00  0.00    +0.000 A 
ATOM     19 CL   UNL     1      -7.214  12.824  19.465  0.00  0.00    +0.000 Cl
ATOM     20  C   UNL     1      -4.865  12.725  20.755  0.00  0.00    +0.000 A 
ENDBRANCH  10  13
BRANCH   5  21
ATOM     21  C   UNL     1       1.337   9.241  19.550  0.00  0.00    +0.000 A 
ATOM     22  C   UNL     1       1.770   9.211  18.210  0.00  0.00    +0.000 A 
ATOM     23  C   UNL     1       2.424   8.090  17.682  0.00  0.00    +0.000 A 
ATOM     24  C   UNL     1       2.664   6.975  18.477  0.00  0.00    +0.000 A 
ATOM     25  C   UNL     1       2.237   6.991  19.798  0.00  0.00    +0.000 A 
ATOM     26  C   UNL     1       1.586   8.097  20.330  0.00  0.00    +0.000 A 
BRANCH  25  27
ATOM     27  O   UNL     1       2.449   5.930  20.626  0.00  0.00    +0.000 OA
ATOM     28  H   UNL     1       3.296   6.051  21.085  0.00  0.00    +0.000 HD
ENDBRANCH  25  27
ENDBRANCH   5  21
TORSDOF 3
ENDMDL
MODEL 5
REMARK VINA RESULT:      -7.3      6.160      9.872
REMARK  Name = 
REMARK  4 active torsions:
REMARK  status: ('A' for Active; 'I' for Inactive)
REMARK    1  A    between atoms: C_1  and  N_2
REMARK    2  A    between atoms: C_5  and  C_6
REMARK    3  A    between atoms: C_10  and  O_11
REMARK    4  A    between atoms: C_17  and  C_18
REMARK                            x       y       z     vdW  Elec       q    Type
REMARK                         _______ _______ _______ _____ _____    ______ ____
ROOT
ATOM      1  C   UNL     1      -3.238  12.118  18.999  0.00  0.00    +0.000 C 
ATOM      2  N   UNL     1      -1.912  12.586  19.390  0.00  0.00    +0.000 NA
ATOM      3  C   UNL     1      -0.938  12.591  18.302  0.00  0.00    +0.000 C 
ATOM      4  C   UNL     1       0.031  11.404  18.210  0.00  0.00    +0.000 C 
ATOM      5  C   UNL     1       0.499  10.810  19.566  0.00  0.00    +0.000 C 
ATOM      6  C   UNL     1       1.483  11.747  20.306  0.00  0.00    +0.000 C 
ATOM      7  C   UNL     1       0.898  12.901  21.101  0.00  0.00    +0.000 C 
ATOM      8  O   UNL     1       1.650  13.769  21.551  0.00  0.00    +0.000 OA
ATOM      9  C   UNL     1      -0.566  12.929  21.401  0.00  0.00    +0.000 C 
ATOM     10  C   UNL     1      -0.986  13.793  22.348  0.00  0.00    +0.000 C 
ATOM     11  C   UNL     1      -1.451  11.977  20.641  0.00  0.00    +0.000 C 
ATOM     12  C   UNL     1      -0.757  10.636  20.431  0.00  0.00    +0.000 C 
ENDROOT
BRANCH  10  13
ATOM     13  C   UNL     1      -2.399  13.981  22.684  0.00  0.00    +0.000 A 
ATOM     14  C   UNL     1      -3.113  15.078  22.196  0.00  0.00    +0.000 A 
ATOM     15  C   UNL     1      -4.435  15.285  22.597  0.00  0.00    +0.000 A 
ATOM     16  C   UNL     1      -5.053  14.394  23.481  0.00  0.00    +0.000 A 
ATOM     17 CL   UNL     1      -6.681  14.727  23.950  0.00  0.00    +0.000 Cl
ATOM     18  C   UNL     1      -4.344  13.289  23.961  0.00  0.00    +0.000 A 
ATOM     19 CL   UNL     1      -5.038  12.148  25.059  0.00  0.00    +0.000 Cl
ATOM     20  C   UNL     1      -3.019  13.086  23.565  0.00  0.00    +0.000 A 
ENDBRANCH  10  13
BRANCH   5  21
ATOM     21  C   UNL     1       1.227   9.469  19.303  0.00  0.00    +0.000 A 
ATOM     22  C   UNL     1       1.835   9.211  18.058  0.00  0.00    +0.000 A 
ATOM     23  C   UNL     1       2.527   8.017  17.821  0.00  0.00    +0.000 A 
ATOM     24  C   UNL     1       2.633   7.053  18.818  0.00  0.00    +0.000 A 
ATOM     25  C   UNL     1       2.034   7.293  20.047  0.00  0.00    +0.000 A 
ATOM     26  C   UNL     1       1.343   8.473  20.290  0.00  0.00    +0.000 A 
BRANCH  25  27
ATOM     27  O   UNL     1       2.108   6.388  21.062  0.00  0.00    +0.000 OA
ATOM     28  H   UNL     1       2.668   6.751  21.768  0.00  0.00    +0.000 HD
ENDBRANCH  25  27
ENDBRANCH   5  21
TORSDOF 3
ENDMDL
MODEL 6
REMARK VINA RESULT:      -7.3      6.099      9.620
REMARK  Name = 
REMARK  4 active torsions:
REMARK  status: ('A' for Active; 'I' for Inactive)
REMARK    1  A    between atoms: C_1  and  N_2
REMARK    2  A    between atoms: C_5  and  C_6
REMARK    3  A    between atoms: C_10  and  O_11
REMARK    4  A    between atoms: C_17  and  C_18
REMARK                            x       y       z     vdW  Elec       q    Type
REMARK                         _______ _______ _______ _____ _____    ______ ____
ROOT
ATOM      1  C   UNL     1      -0.664  14.081  18.829  0.00  0.00    +0.000 C 
ATOM      2  N   UNL     1      -0.469  13.348  20.076  0.00  0.00    +0.000 NA
ATOM      3  C   UNL     1       0.933  13.134  20.427  0.00  0.00    +0.000 C 
ATOM      4  C   UNL     1       1.552  11.772  20.085  0.00  0.00    +0.000 C 
ATOM      5  C   UNL     1       0.603  10.550  20.214  0.00  0.00    +0.000 C 
ATOM      6  C   UNL     1       0.293  10.204  21.690  0.00  0.00    +0.000 C 
ATOM      7  C   UNL     1      -0.780  11.015  22.396  0.00  0.00    +0.000 C 
ATOM      8  O   UNL     1      -0.927  10.894  23.614  0.00  0.00    +0.000 OA
ATOM      9  C   UNL     1      -1.698  11.884  21.598  0.00  0.00    +0.000 C 
ATOM     10  C   UNL     1      -2.807  12.341  22.215  0.00  0.00    +0.000 C 
ATOM     11  C   UNL     1      -1.325  12.163  20.166  0.00  0.00    +0.000 C 
ATOM     12  C   UNL     1      -0.709  10.930  19.513  0.00  0.00    +0.000 C 
ENDROOT
BRANCH  10  13
ATOM     13  C   UNL     1      -3.750  13.264  21.579  0.00  0.00    +0.000 A 
ATOM     14  C   UNL     1      -4.848  12.785  20.861  0.00  0.00    +0.000 A 
ATOM     15  C   UNL     1      -5.688  13.678  20.192  0.00  0.00    +0.000 A 
ATOM     16  C   UNL     1      -5.439  15.054  20.242  0.00  0.00    +0.000 A 
ATOM     17 CL   UNL     1      -6.506  16.095  19.370  0.00  0.00    +0.000 Cl
ATOM     18  C   UNL     1      -4.347  15.536  20.969  0.00  0.00    +0.000 A 
ATOM     19 CL   UNL     1      -3.973  17.220  21.073  0.00  0.00    +0.000 Cl
ATOM     20  C   UNL     1      -3.504  14.641  21.634  0.00  0.00    +0.000 A 
ENDBRANCH  10  13
BRANCH   5  21
ATOM     21  C   UNL     1       1.282   9.316  19.570  0.00  0.00    +0.000 A 
ATOM     22  C   UNL     1       1.635   9.319  18.205  0.00  0.00    +0.000 A 
ATOM     23  C   UNL     1       2.282   8.223  17.620  0.00  0.00    +0.000 A 
ATOM     24  C   UNL     1       2.596   7.101  18.379  0.00  0.00    +0.000 A 
ATOM     25  C   UNL     1       2.248   7.084  19.723  0.00  0.00    +0.000 A 
ATOM     26  C   UNL     1       1.604   8.165  20.312  0.00  0.00    +0.000 A 
BRANCH  25  27
ATOM     27  O   UNL     1       2.534   6.015  20.518  0.00  0.00    +0.000 OA
ATOM     28  H   UNL     1       2.863   6.336  21.373  0.00  0.00    +0.000 HD
ENDBRANCH  25  27
ENDBRANCH   5  21
TORSDOF 3
ENDMDL
MODEL 7
REMARK VINA RESULT:      -7.2      1.081      1.420
REMARK  Name = 
REMARK  4 active torsions:
REMARK  status: ('A' for Active; 'I' for Inactive)
REMARK    1  A    between atoms: C_1  and  N_2
REMARK    2  A    between atoms: C_5  and  C_6
REMARK    3  A    between atoms: C_10  and  O_11
REMARK    4  A    between atoms: C_17  and  C_18
REMARK                            x       y       z     vdW  Elec       q    Type
REMARK                         _______ _______ _______ _____ _____    ______ ____
ROOT
ATOM      1  C   UNL     1       6.242   7.282  18.594  0.00  0.00    +0.000 C 
ATOM      2  N   UNL     1       5.701   5.951  18.337  0.00  0.00    +0.000 NA
ATOM      3  C   UNL     1       6.720   4.926  18.123  0.00  0.00    +0.000 C 
ATOM      4  C   UNL     1       7.057   4.549  16.674  0.00  0.00    +0.000 C 
ATOM      5  C   UNL     1       5.865   4.569  15.679  0.00  0.00    +0.000 C 
ATOM      6  C   UNL     1       4.887   3.393  15.914  0.00  0.00    +0.000 C 
ATOM      7  C   UNL     1       3.863   3.538  17.026  0.00  0.00    +0.000 C 
ATOM      8  O   UNL     1       3.191   2.559  17.361  0.00  0.00    +0.000 OA
ATOM      9  C   UNL     1       3.619   4.878  17.641  0.00  0.00    +0.000 C 
ATOM     10  C   UNL     1       2.510   5.018  18.396  0.00  0.00    +0.000 C 
ATOM     11  C   UNL     1       4.616   5.969  17.353  0.00  0.00    +0.000 C 
ATOM     12  C   UNL     1       5.113   5.887  15.914  0.00  0.00    +0.000 C 
ENDROOT
BRANCH  10  13
ATOM     13  C   UNL     1       2.190   6.250  19.121  0.00  0.00    +0.000 A 
ATOM     14  C   UNL     1       1.842   6.216  20.474  0.00  0.00    +0.000 A 
ATOM     15  C   UNL     1       1.459   7.391  21.126  0.00  0.00    +0.000 A 
ATOM     16  C   UNL     1       1.429   8.605  20.432  0.00  0.00    +0.000 A 
ATOM     17 CL   UNL     1       0.922  10.012  21.298  0.00  0.00    +0.000 Cl
ATOM     18  C   UNL     1       1.788   8.644  19.082  0.00  0.00    +0.000 A 
ATOM     19 CL   UNL     1       1.770  10.105  18.159  0.00  0.00    +0.000 Cl
ATOM     20  C   UNL     1       2.165   7.467  18.429  0.00  0.00    +0.000 A 
ENDBRANCH  10  13
BRANCH   5  21
ATOM     21  C   UNL     1       6.413   4.450  14.236  0.00  0.00    +0.000 A 
ATOM     22  C   UNL     1       6.019   3.384  13.401  0.00  0.00    +0.000 A 
ATOM     23  C   UNL     1       6.479   3.287  12.082  0.00  0.00    +0.000 A 
ATOM     24  C   UNL     1       7.339   4.248  11.561  0.00  0.00    +0.000 A 
ATOM     25  C   UNL     1       7.738   5.299  12.375  0.00  0.00    +0.000 A 
ATOM     26  C   UNL     1       7.289   5.404  13.686  0.00  0.00    +0.000 A 
BRANCH  25  27
ATOM     27  O   UNL     1       8.574   6.273  11.919  0.00  0.00    +0.000 OA
ATOM     28  H   UNL     1       9.349   5.857  11.507  0.00  0.00    +0.000 HD
ENDBRANCH  25  27
ENDBRANCH   5  21
TORSDOF 3
ENDMDL
MODEL 8
REMARK VINA RESULT:      -7.1      5.955      9.916
REMARK  Name = 
REMARK  4 active torsions:
REMARK  status: ('A' for Active; 'I' for Inactive)
REMARK    1  A    between atoms: C_1  and  N_2
REMARK    2  A    between atoms: C_5  and  C_6
REMARK    3  A    between atoms: C_10  and  O_11
REMARK    4  A    between atoms: C_17  and  C_18
REMARK                            x       y       z     vdW  Elec       q    Type
REMARK                         _______ _______ _______ _____ _____    ______ ____
ROOT
ATOM      1  C   UNL     1      -0.429   9.336  17.261  0.00  0.00    +0.000 C 
ATOM      2  N   UNL     1      -0.500   9.744  18.661  0.00  0.00    +0.000 NA
ATOM      3  C   UNL     1      -1.569  10.696  18.949  0.00  0.00    +0.000 C 
ATOM      4  C   UNL     1      -1.195  12.183  19.029  0.00  0.00    +0.000 C 
ATOM      5  C   UNL     1       0.201  12.493  19.634  0.00  0.00    +0.000 C 
ATOM      6  C   UNL     1       0.246  12.247  21.161  0.00  0.00    +0.000 C 
ATOM      7  C   UNL     1       0.439  10.820  21.641  0.00  0.00    +0.000 C 
ATOM      8  O   UNL     1       0.298  10.559  22.838  0.00  0.00    +0.000 OA
ATOM      9  C   UNL     1       0.880   9.766  20.677  0.00  0.00    +0.000 C 
ATOM     10  C   UNL     1       1.325   8.602  21.195  0.00  0.00    +0.000 C 
ATOM     11  C   UNL     1       0.813  10.092  19.209  0.00  0.00    +0.000 C 
ATOM     12  C   UNL     1       1.200  11.545  18.955  0.00  0.00    +0.000 C 
ENDROOT
BRANCH  10  13
ATOM     13  C   UNL     1       1.712   7.458  20.367  0.00  0.00    +0.000 A 
ATOM     14  C   UNL     1       2.371   7.643  19.150  0.00  0.00    +0.000 A 
ATOM     15  C   UNL     1       2.656   6.544  18.335  0.00  0.00    +0.000 A 
ATOM     16  C   UNL     1       2.290   5.255  18.736  0.00  0.00    +0.000 A 
ATOM     17 CL   UNL     1       2.654   3.948  17.666  0.00  0.00    +0.000 Cl
ATOM     18  C   UNL     1       1.640   5.066  19.959  0.00  0.00    +0.000 A 
ATOM     19 CL   UNL     1       1.154   3.504  20.519  0.00  0.00    +0.000 Cl
ATOM     20  C   UNL     1       1.350   6.166  20.771  0.00  0.00    +0.000 A 
ENDBRANCH  10  13
BRANCH   5  21
ATOM     21  C   UNL     1       0.538  13.984  19.383  0.00  0.00    +0.000 A 
ATOM     22  C   UNL     1       1.851  14.465  19.560  0.00  0.00    +0.000 A 
ATOM     23  C   UNL     1       2.175  15.803  19.301  0.00  0.00    +0.000 A 
ATOM     24  C   UNL     1       1.202  16.692  18.857  0.00  0.00    +0.000 A 
ATOM     25  C   UNL     1      -0.096  16.230  18.683  0.00  0.00    +0.000 A 
ATOM     26  C   UNL     1      -0.428  14.906  18.940  0.00  0.00    +0.000 A 
BRANCH  25  27
ATOM     27  O   UNL     1      -1.090  17.053  18.246  0.00  0.00    +0.000 OA
ATOM     28  H   UNL     1      -1.589  16.601  17.546  0.00  0.00    +0.000 HD
ENDBRANCH  25  27
ENDBRANCH   5  21
TORSDOF 3
ENDMDL
MODEL 9
REMARK VINA RESULT:      -7.0     10.638     14.020
REMARK  Name = 
REMARK  4 active torsions:
REMARK  status: ('A' for Active; 'I' for Inactive)
REMARK    1  A    between atoms: C_1  and  N_2
REMARK    2  A    between atoms: C_5  and  C_6
REMARK    3  A    between atoms: C_10  and  O_11
REMARK    4  A    between atoms: C_17  and  C_18
REMARK                            x       y       z     vdW  Elec       q    Type
REMARK                         _______ _______ _______ _____ _____    ______ ____
ROOT
ATOM      1  C   UNL     1      -0.995  11.898  20.576  0.00  0.00    +0.000 C 
ATOM      2  N   UNL     1      -0.914  12.576  21.866  0.00  0.00    +0.000 NA
ATOM      3  C   UNL     1      -1.438  11.794  22.983  0.00  0.00    +0.000 C 
ATOM      4  C   UNL     1      -2.869  12.094  23.452  0.00  0.00    +0.000 C 
ATOM      5  C   UNL     1      -3.305  13.581  23.373  0.00  0.00    +0.000 C 
ATOM      6  C   UNL     1      -2.612  14.452  24.448  0.00  0.00    +0.000 C 
ATOM      7  C   UNL     1      -1.199  14.931  24.167  0.00  0.00    +0.000 C 
ATOM      8  O   UNL     1      -0.551  15.469  25.068  0.00  0.00    +0.000 OA
ATOM      9  C   UNL     1      -0.641  14.824  22.785  0.00  0.00    +0.000 C 
ATOM     10  C   UNL     1       0.480  15.524  22.515  0.00  0.00    +0.000 C 
ATOM     11  C   UNL     1      -1.383  13.963  21.797  0.00  0.00    +0.000 C 
ATOM     12  C   UNL     1      -2.891  14.093  21.985  0.00  0.00    +0.000 C 
ENDROOT
BRANCH  10  13
ATOM     13  C   UNL     1       1.178  15.448  21.230  0.00  0.00    +0.000 A 
ATOM     14  C   UNL     1       2.156  14.477  21.000  0.00  0.00    +0.000 A 
ATOM     15  C   UNL     1       2.869  14.474  19.799  0.00  0.00    +0.000 A 
ATOM     16  C   UNL     1       2.604  15.436  18.819  0.00  0.00    +0.000 A 
ATOM     17 CL   UNL     1       3.542  15.384  17.369  0.00  0.00    +0.000 Cl
ATOM     18  C   UNL     1       1.618  16.402  19.041  0.00  0.00    +0.000 A 
ATOM     19 CL   UNL     1       1.239  17.625  17.880  0.00  0.00    +0.000 Cl
ATOM     20  C   UNL     1       0.909  16.408  20.246  0.00  0.00    +0.000 A 
ENDBRANCH  10  13
BRANCH   5  21
ATOM     21  C   UNL     1      -4.834  13.670  23.603  0.00  0.00    +0.000 A 
ATOM     22  C   UNL     1      -5.477  14.921  23.695  0.00  0.00    +0.000 A 
ATOM     23  C   UNL     1      -6.865  15.013  23.866  0.00  0.00    +0.000 A 
ATOM     24  C   UNL     1      -7.644  13.864  23.946  0.00  0.00    +0.000 A 
ATOM     25  C   UNL     1      -7.021  12.626  23.861  0.00  0.00    +0.000 A 
ATOM     26  C   UNL     1      -5.646  12.524  23.694  0.00  0.00    +0.000 A 
BRANCH  25  27
ATOM     27  O   UNL     1      -7.733  11.467  23.928  0.00  0.00    +0.000 OA
ATOM     28  H   UNL     1      -7.662  11.104  24.825  0.00  0.00    +0.000 HD
ENDBRANCH  25  27
ENDBRANCH   5  21
TORSDOF 3
ENDMDL
