MODEL 1
REMARK VINA RESULT:      -7.6      0.000      0.000
REMARK  Name = 
REMARK  10 active torsions:
REMARK  status: ('A' for Active; 'I' for Inactive)
REMARK    1  A    between atoms: C_1  and  O_2
REMARK    2  A    between atoms: O_2  and  C_3
REMARK    3  A    between atoms: C_5  and  C_6
REMARK    4  A    between atoms: N_7  and  N_8
REMARK    5  A    between atoms: C_11  and  C_12
REMARK    6  A    between atoms: N_20  and  C_21
REMARK    7  A    between atoms: C_25  and  O_26
REMARK    8  A    between atoms: O_26  and  C_27
REMARK    9  A    between atoms: C_28  and  O_29
REMARK   10  A    between atoms: O_29  and  C_30
REMARK                            x       y       z     vdW  Elec       q    Type
REMARK                         _______ _______ _______ _____ _____    ______ ____
ROOT
ATOM      1  N   UNL     1       2.942   5.892  17.620  0.00  0.00    +0.000 N 
ATOM      2  C   UNL     1       2.436   6.907  18.379  0.00  0.00    +0.000 A 
ATOM      3  N   UNL     1       2.281   8.130  17.911  0.00  0.00    +0.000 NA
ATOM      4  C   UNL     1       1.784   8.957  18.904  0.00  0.00    +0.000 A 
ATOM      5  C   UNL     1       1.577   8.359  20.126  0.00  0.00    +0.000 A 
ATOM      6  S   UNL     1       2.012   6.708  20.042  0.00  0.00    +0.000 S 
ATOM      7  H   UNL     1       2.995   6.091  16.623  0.00  0.00    +0.000 HD
ENDROOT
BRANCH   4   8
ATOM      8  C   UNL     1       1.426  10.399  18.669  0.00  0.00    +0.000 A 
ATOM      9  N   UNL     1       2.339  11.336  18.481  0.00  0.00    +0.000 NA
ATOM     10  C   UNL     1       1.657  12.523  18.504  0.00  0.00    +0.000 A 
ATOM     11  C   UNL     1       2.148  13.830  18.385  0.00  0.00    +0.000 A 
ATOM     12  C   UNL     1       1.259  14.898  18.539  0.00  0.00    +0.000 A 
ATOM     13  C   UNL     1      -0.094  14.667  18.799  0.00  0.00    +0.000 A 
ATOM     14  C   UNL     1      -0.611  13.368  18.863  0.00  0.00    +0.000 A 
ATOM     15  C   UNL     1       0.295  12.313  18.694  0.00  0.00    +0.000 A 
ATOM     16  N   UNL     1       0.165  10.940  18.648  0.00  0.00    +0.000 N 
ATOM     17  C   UNL     1      -1.067  10.209  18.502  0.00  0.00    +0.000 C 
ENDBRANCH   4   8
BRANCH   1  19
ATOM     18  C   UNL     1       3.934   3.832  17.483  0.00  0.00    +0.000 C 
ATOM     19  N   UNL     1       3.020   4.594  18.009  0.00  0.00    +0.000 NA
BRANCH  18  22
ATOM     20  C   UNL     1       6.216   4.045  14.448  0.00  0.00    +0.000 A 
ATOM     21  C   UNL     1       5.243   3.570  15.342  0.00  0.00    +0.000 A 
ATOM     22  C   UNL     1       5.070   4.159  16.589  0.00  0.00    +0.000 A 
ATOM     23  C   UNL     1       5.910   5.205  16.965  0.00  0.00    +0.000 A 
ATOM     24  C   UNL     1       6.923   5.669  16.108  0.00  0.00    +0.000 A 
ATOM     25  C   UNL     1       7.092   5.087  14.832  0.00  0.00    +0.000 A 
BRANCH  20  27
ATOM     26  C   UNL     1       5.170   3.458  12.392  0.00  0.00    +0.000 C 
ATOM     27  O   UNL     1       6.344   3.473  13.207  0.00  0.00    +0.000 OA
ENDBRANCH  20  27
BRANCH  24  28
ATOM     28  O   UNL     1       7.618   6.702  16.686  0.00  0.00    +0.000 OA
ATOM     29  C   UNL     1       7.653   6.824  18.099  0.00  0.00    +0.000 C 
ENDBRANCH  24  28
BRANCH  25  30
ATOM     30  O   UNL     1       8.125   5.569  14.074  0.00  0.00    +0.000 OA
ATOM     31  C   UNL     1       7.990   5.662  12.664  0.00  0.00    +0.000 C 
ENDBRANCH  25  30
ENDBRANCH  18  22
ENDBRANCH   1  19
TORSDOF 6
ENDMDL
MODEL 2
REMARK VINA RESULT:      -7.6      5.052     10.373
REMARK  Name = 
REMARK  10 active torsions:
REMARK  status: ('A' for Active; 'I' for Inactive)
REMARK    1  A    between atoms: C_1  and  O_2
REMARK    2  A    between atoms: O_2  and  C_3
REMARK    3  A    between atoms: C_5  and  C_6
REMARK    4  A    between atoms: N_7  and  N_8
REMARK    5  A    between atoms: C_11  and  C_12
REMARK    6  A    between atoms: N_20  and  C_21
REMARK    7  A    between atoms: C_25  and  O_26
REMARK    8  A    between atoms: O_26  and  C_27
REMARK    9  A    between atoms: C_28  and  O_29
REMARK   10  A    between atoms: O_29  and  C_30
REMARK                            x       y       z     vdW  Elec       q    Type
REMARK                         _______ _______ _______ _____ _____    ______ ____
ROOT
ATOM      1  N   UNL     1       1.027  11.404  18.374  0.00  0.00    +0.000 N 
ATOM      2  C   UNL     1       1.181  10.420  19.305  0.00  0.00    +0.000 A 
ATOM      3  N   UNL     1       1.435   9.169  18.976  0.00  0.00    +0.000 NA
ATOM      4  C   UNL     1       1.506   8.384  20.115  0.00  0.00    +0.000 A 
ATOM      5  C   UNL     1       1.292   9.044  21.303  0.00  0.00    +0.000 A 
ATOM      6  S   UNL     1       0.993  10.699  21.000  0.00  0.00    +0.000 S 
ATOM      7  H   UNL     1       1.323  11.152  17.433  0.00  0.00    +0.000 HD
ENDROOT
BRANCH   4   8
ATOM      8  C   UNL     1       1.857   6.922  20.084  0.00  0.00    +0.000 A 
ATOM      9  N   UNL     1       1.335   6.049  20.929  0.00  0.00    +0.000 NA
ATOM     10  C   UNL     1       2.030   4.886  20.731  0.00  0.00    +0.000 A 
ATOM     11  C   UNL     1       1.904   3.654  21.387  0.00  0.00    +0.000 A 
ATOM     12  C   UNL     1       2.803   2.630  21.073  0.00  0.00    +0.000 A 
ATOM     13  C   UNL     1       3.804   2.828  20.118  0.00  0.00    +0.000 A 
ATOM     14  C   UNL     1       3.908   4.033  19.413  0.00  0.00    +0.000 A 
ATOM     15  C   UNL     1       2.989   5.041  19.734  0.00  0.00    +0.000 A 
ATOM     16  N   UNL     1       2.751   6.308  19.244  0.00  0.00    +0.000 N 
ATOM     17  C   UNL     1       3.268   6.853  18.015  0.00  0.00    +0.000 C 
ENDBRANCH   4   8
BRANCH   1  19
ATOM     18  C   UNL     1      -0.325  13.217  18.741  0.00  0.00    +0.000 C 
ATOM     19  N   UNL     1       0.876  12.724  18.654  0.00  0.00    +0.000 NA
BRANCH  18  22
ATOM     20  C   UNL     1      -3.857  12.157  19.669  0.00  0.00    +0.000 A 
ATOM     21  C   UNL     1      -2.544  12.638  19.793  0.00  0.00    +0.000 A 
ATOM     22  C   UNL     1      -1.648  12.549  18.733  0.00  0.00    +0.000 A 
ATOM     23  C   UNL     1      -2.055  11.932  17.553  0.00  0.00    +0.000 A 
ATOM     24  C   UNL     1      -3.349  11.401  17.420  0.00  0.00    +0.000 A 
ATOM     25  C   UNL     1      -4.271  11.504  18.486  0.00  0.00    +0.000 A 
BRANCH  20  27
ATOM     26  C   UNL     1      -4.188  12.758  21.949  0.00  0.00    +0.000 C 
ATOM     27  O   UNL     1      -4.736  12.290  20.715  0.00  0.00    +0.000 OA
ENDBRANCH  20  27
BRANCH  24  28
ATOM     28  O   UNL     1      -3.526  10.847  16.176  0.00  0.00    +0.000 OA
ATOM     29  C   UNL     1      -2.817   9.670  15.822  0.00  0.00    +0.000 C 
ENDBRANCH  24  28
BRANCH  25  30
ATOM     30  O   UNL     1      -5.497  10.927  18.290  0.00  0.00    +0.000 OA
ATOM     31  C   UNL     1      -6.594  11.718  17.857  0.00  0.00    +0.000 C 
ENDBRANCH  25  30
ENDBRANCH  18  22
ENDBRANCH   1  19
TORSDOF 6
ENDMDL
MODEL 3
REMARK VINA RESULT:      -7.4      4.928     10.096
REMARK  Name = 
REMARK  10 active torsions:
REMARK  status: ('A' for Active; 'I' for Inactive)
REMARK    1  A    between atoms: C_1  and  O_2
REMARK    2  A    between atoms: O_2  and  C_3
REMARK    3  A    between atoms: C_5  and  C_6
REMARK    4  A    between atoms: N_7  and  N_8
REMARK    5  A    between atoms: C_11  and  C_12
REMARK    6  A    between atoms: N_20  and  C_21
REMARK    7  A    between atoms: C_25  and  O_26
REMARK    8  A    between atoms: O_26  and  C_27
REMARK    9  A    between atoms: C_28  and  O_29
REMARK   10  A    between atoms: O_29  and  C_30
REMARK                            x       y       z     vdW  Elec       q    Type
REMARK                         _______ _______ _______ _____ _____    ______ ____
ROOT
ATOM      1  N   UNL     1       1.039  11.342  18.464  0.00  0.00    +0.000 N 
ATOM      2  C   UNL     1       1.179  10.345  19.384  0.00  0.00    +0.000 A 
ATOM      3  N   UNL     1       1.453   9.102  19.043  0.00  0.00    +0.000 NA
ATOM      4  C   UNL     1       1.501   8.300  20.172  0.00  0.00    +0.000 A 
ATOM      5  C   UNL     1       1.249   8.939  21.363  0.00  0.00    +0.000 A 
ATOM      6  S   UNL     1       0.942  10.596  21.078  0.00  0.00    +0.000 S 
ATOM      7  H   UNL     1       1.363  11.107  17.528  0.00  0.00    +0.000 HD
ENDROOT
BRANCH   4   8
ATOM      8  C   UNL     1       1.867   6.842  20.128  0.00  0.00    +0.000 A 
ATOM      9  N   UNL     1       1.346   5.954  20.958  0.00  0.00    +0.000 NA
ATOM     10  C   UNL     1       2.055   4.801  20.753  0.00  0.00    +0.000 A 
ATOM     11  C   UNL     1       1.935   3.561  21.394  0.00  0.00    +0.000 A 
ATOM     12  C   UNL     1       2.847   2.549  21.078  0.00  0.00    +0.000 A 
ATOM     13  C   UNL     1       3.854   2.768  20.134  0.00  0.00    +0.000 A 
ATOM     14  C   UNL     1       3.953   3.982  19.443  0.00  0.00    +0.000 A 
ATOM     15  C   UNL     1       3.021   4.976  19.767  0.00  0.00    +0.000 A 
ATOM     16  N   UNL     1       2.774   6.246  19.289  0.00  0.00    +0.000 N 
ATOM     17  C   UNL     1       3.297   6.810  18.071  0.00  0.00    +0.000 C 
ENDBRANCH   4   8
BRANCH   1  19
ATOM     18  C   UNL     1      -0.325  13.169  18.687  0.00  0.00    +0.000 C 
ATOM     19  N   UNL     1       0.868  12.656  18.760  0.00  0.00    +0.000 NA
BRANCH  18  22
ATOM     20  C   UNL     1      -3.083  10.916  17.352  0.00  0.00    +0.000 A 
ATOM     21  C   UNL     1      -1.888  11.650  17.415  0.00  0.00    +0.000 A 
ATOM     22  C   UNL     1      -1.643  12.527  18.466  0.00  0.00    +0.000 A 
ATOM     23  C   UNL     1      -2.622  12.707  19.440  0.00  0.00    +0.000 A 
ATOM     24  C   UNL     1      -3.846  12.020  19.375  0.00  0.00    +0.000 A 
ATOM     25  C   UNL     1      -4.094  11.113  18.321  0.00  0.00    +0.000 A 
BRANCH  20  27
ATOM     26  C   UNL     1      -3.335  10.579  15.010  0.00  0.00    +0.000 C 
ATOM     27  O   UNL     1      -3.288  10.028  16.327  0.00  0.00    +0.000 OA
ENDBRANCH  20  27
BRANCH  24  28
ATOM     28  O   UNL     1      -4.650  12.350  20.438  0.00  0.00    +0.000 OA
ATOM     29  C   UNL     1      -4.562  13.645  21.011  0.00  0.00    +0.000 C 
ENDBRANCH  24  28
BRANCH  25  30
ATOM     30  O   UNL     1      -5.326  10.514  18.309  0.00  0.00    +0.000 OA
ATOM     31  C   UNL     1      -6.480  11.268  17.969  0.00  0.00    +0.000 C 
ENDBRANCH  25  30
ENDBRANCH  18  22
ENDBRANCH   1  19
TORSDOF 6
ENDMDL
MODEL 4
REMARK VINA RESULT:      -7.3      3.981      9.106
REMARK  Name = 
REMARK  10 active torsions:
REMARK  status: ('A' for Active; 'I' for Inactive)
REMARK    1  A    between atoms: C_1  and  O_2
REMARK    2  A    between atoms: O_2  and  C_3
REMARK    3  A    between atoms: C_5  and  C_6
REMARK    4  A    between atoms: N_7  and  N_8
REMARK    5  A    between atoms: C_11  and  C_12
REMARK    6  A    between atoms: N_20  and  C_21
REMARK    7  A    between atoms: C_25  and  O_26
REMARK    8  A    between atoms: O_26  and  C_27
REMARK    9  A    between atoms: C_28  and  O_29
REMARK   10  A    between atoms: O_29  and  C_30
REMARK                            x       y       z     vdW  Elec       q    Type
REMARK                         _______ _______ _______ _____ _____    ______ ____
ROOT
ATOM      1  N   UNL     1      -0.077  11.353  18.439  0.00  0.00    +0.000 N 
ATOM      2  C   UNL     1       0.585  10.267  18.931  0.00  0.00    +0.000 A 
ATOM      3  N   UNL     1       1.317   9.480  18.167  0.00  0.00    +0.000 NA
ATOM      4  C   UNL     1       1.840   8.442  18.920  0.00  0.00    +0.000 A 
ATOM      5  C   UNL     1       1.489   8.439  20.250  0.00  0.00    +0.000 A 
ATOM      6  S   UNL     1       0.475   9.774  20.584  0.00  0.00    +0.000 S 
ATOM      7  H   UNL     1       0.198  11.631  17.499  0.00  0.00    +0.000 HD
ENDROOT
BRANCH   4   8
ATOM      8  C   UNL     1       2.782   7.413  18.358  0.00  0.00    +0.000 A 
ATOM      9  N   UNL     1       3.724   7.717  17.481  0.00  0.00    +0.000 NA
ATOM     10  C   UNL     1       4.232   6.518  17.058  0.00  0.00    +0.000 A 
ATOM     11  C   UNL     1       5.230   6.263  16.108  0.00  0.00    +0.000 A 
ATOM     12  C   UNL     1       5.514   4.937  15.770  0.00  0.00    +0.000 A 
ATOM     13  C   UNL     1       4.821   3.884  16.374  0.00  0.00    +0.000 A 
ATOM     14  C   UNL     1       3.862   4.119  17.366  0.00  0.00    +0.000 A 
ATOM     15  C   UNL     1       3.602   5.455  17.698  0.00  0.00    +0.000 A 
ATOM     16  N   UNL     1       2.786   6.068  18.626  0.00  0.00    +0.000 N 
ATOM     17  C   UNL     1       2.135   5.425  19.739  0.00  0.00    +0.000 C 
ENDBRANCH   4   8
BRANCH   1  19
ATOM     18  C   UNL     1      -0.094  13.238  19.741  0.00  0.00    +0.000 C 
ATOM     19  N   UNL     1      -0.752  12.259  19.191  0.00  0.00    +0.000 NA
BRANCH  18  22
ATOM     20  C   UNL     1       3.071  14.871  18.406  0.00  0.00    +0.000 A 
ATOM     21  C   UNL     1       1.784  14.310  18.441  0.00  0.00    +0.000 A 
ATOM     22  C   UNL     1       1.316  13.667  19.581  0.00  0.00    +0.000 A 
ATOM     23  C   UNL     1       2.160  13.542  20.682  0.00  0.00    +0.000 A 
ATOM     24  C   UNL     1       3.468  14.053  20.657  0.00  0.00    +0.000 A 
ATOM     25  C   UNL     1       3.944  14.725  19.509  0.00  0.00    +0.000 A 
BRANCH  20  27
ATOM     26  C   UNL     1       2.945  16.834  17.066  0.00  0.00    +0.000 C 
ATOM     27  O   UNL     1       3.498  15.535  17.285  0.00  0.00    +0.000 OA
ENDBRANCH  20  27
BRANCH  24  28
ATOM     28  O   UNL     1       4.109  13.818  21.849  0.00  0.00    +0.000 OA
ATOM     29  C   UNL     1       4.273  14.876  22.780  0.00  0.00    +0.000 C 
ENDBRANCH  24  28
BRANCH  25  30
ATOM     30  O   UNL     1       5.242  15.158  19.551  0.00  0.00    +0.000 OA
ATOM     31  C   UNL     1       5.526  16.533  19.768  0.00  0.00    +0.000 C 
ENDBRANCH  25  30
ENDBRANCH  18  22
ENDBRANCH   1  19
TORSDOF 6
ENDMDL
MODEL 5
REMARK VINA RESULT:      -7.2      6.111     11.146
REMARK  Name = 
REMARK  10 active torsions:
REMARK  status: ('A' for Active; 'I' for Inactive)
REMARK    1  A    between atoms: C_1  and  O_2
REMARK    2  A    between atoms: O_2  and  C_3
REMARK    3  A    between atoms: C_5  and  C_6
REMARK    4  A    between atoms: N_7  and  N_8
REMARK    5  A    between atoms: C_11  and  C_12
REMARK    6  A    between atoms: N_20  and  C_21
REMARK    7  A    between atoms: C_25  and  O_26
REMARK    8  A    between atoms: O_26  and  C_27
REMARK    9  A    between atoms: C_28  and  O_29
REMARK   10  A    between atoms: O_29  and  C_30
REMARK                            x       y       z     vdW  Elec       q    Type
REMARK                         _______ _______ _______ _____ _____    ______ ____
ROOT
ATOM      1  N   UNL     1      -1.774  11.960  22.940  0.00  0.00    +0.000 N 
ATOM      2  C   UNL     1      -0.756  11.623  22.097  0.00  0.00    +0.000 A 
ATOM      3  N   UNL     1      -0.496  10.373  21.767  0.00  0.00    +0.000 NA
ATOM      4  C   UNL     1       0.607  10.324  20.930  0.00  0.00    +0.000 A 
ATOM      5  C   UNL     1       1.186  11.538  20.641  0.00  0.00    +0.000 A 
ATOM      6  S   UNL     1       0.332  12.789  21.432  0.00  0.00    +0.000 S 
ATOM      7  H   UNL     1      -2.437  11.212  23.129  0.00  0.00    +0.000 HD
ENDROOT
BRANCH   4   8
ATOM      8  C   UNL     1       1.114   9.048  20.316  0.00  0.00    +0.000 A 
ATOM      9  N   UNL     1       1.181   7.913  20.991  0.00  0.00    +0.000 NA
ATOM     10  C   UNL     1       1.867   7.046  20.183  0.00  0.00    +0.000 A 
ATOM     11  C   UNL     1       2.244   5.719  20.425  0.00  0.00    +0.000 A 
ATOM     12  C   UNL     1       3.034   5.060  19.477  0.00  0.00    +0.000 A 
ATOM     13  C   UNL     1       3.433   5.712  18.307  0.00  0.00    +0.000 A 
ATOM     14  C   UNL     1       3.017   7.018  18.023  0.00  0.00    +0.000 A 
ATOM     15  C   UNL     1       2.217   7.654  18.981  0.00  0.00    +0.000 A 
ATOM     16  N   UNL     1       1.593   8.883  19.041  0.00  0.00    +0.000 N 
ATOM     17  C   UNL     1       1.392   9.787  17.938  0.00  0.00    +0.000 C 
ENDBRANCH   4   8
BRANCH   1  19
ATOM     18  C   UNL     1      -3.141  13.758  22.558  0.00  0.00    +0.000 C 
ATOM     19  N   UNL     1      -2.158  13.230  23.227  0.00  0.00    +0.000 NA
BRANCH  18  22
ATOM     20  C   UNL     1      -4.544  11.979  19.503  0.00  0.00    +0.000 A 
ATOM     21  C   UNL     1      -3.673  12.714  20.323  0.00  0.00    +0.000 A 
ATOM     22  C   UNL     1      -4.077  13.157  21.577  0.00  0.00    +0.000 A 
ATOM     23  C   UNL     1      -5.380  12.903  21.998  0.00  0.00    +0.000 A 
ATOM     24  C   UNL     1      -6.286  12.210  21.177  0.00  0.00    +0.000 A 
ATOM     25  C   UNL     1      -5.877  11.739  19.910  0.00  0.00    +0.000 A 
BRANCH  20  27
ATOM     26  C   UNL     1      -2.734  11.734  17.977  0.00  0.00    +0.000 C 
ATOM     27  O   UNL     1      -4.112  11.517  18.286  0.00  0.00    +0.000 OA
ENDBRANCH  20  27
BRANCH  24  28
ATOM     28  O   UNL     1      -7.504  12.073  21.798  0.00  0.00    +0.000 OA
ATOM     29  C   UNL     1      -7.915  13.033  22.759  0.00  0.00    +0.000 C 
ENDBRANCH  24  28
BRANCH  25  30
ATOM     30  O   UNL     1      -6.831  11.108  19.157  0.00  0.00    +0.000 OA
ATOM     31  C   UNL     1      -7.045   9.712  19.306  0.00  0.00    +0.000 C 
ENDBRANCH  25  30
ENDBRANCH  18  22
ENDBRANCH   1  19
TORSDOF 6
ENDMDL
MODEL 6
REMARK VINA RESULT:      -7.2      3.860      5.898
REMARK  Name = 
REMARK  10 active torsions:
REMARK  status: ('A' for Active; 'I' for Inactive)
REMARK    1  A    between atoms: C_1  and  O_2
REMARK    2  A    between atoms: O_2  and  C_3
REMARK    3  A    between atoms: C_5  and  C_6
REMARK    4  A    between atoms: N_7  and  N_8
REMARK    5  A    between atoms: C_11  and  C_12
REMARK    6  A    between atoms: N_20  and  C_21
REMARK    7  A    between atoms: C_25  and  O_26
REMARK    8  A    between atoms: O_26  and  C_27
REMARK    9  A    between atoms: C_28  and  O_29
REMARK   10  A    between atoms: O_29  and  C_30
REMARK                            x       y       z     vdW  Elec       q    Type
REMARK                         _______ _______ _______ _____ _____    ______ ____
ROOT
ATOM      1  N   UNL     1       1.289   9.384  17.775  0.00  0.00    +0.000 N 
ATOM      2  C   UNL     1       0.860  10.448  18.513  0.00  0.00    +0.000 A 
ATOM      3  N   UNL     1      -0.287  10.441  19.163  0.00  0.00    +0.000 NA
ATOM      4  C   UNL     1      -0.482  11.659  19.793  0.00  0.00    +0.000 A 
ATOM      5  C   UNL     1       0.514  12.589  19.605  0.00  0.00    +0.000 A 
ATOM      6  S   UNL     1       1.740  11.932  18.613  0.00  0.00    +0.000 S 
ATOM      7  H   UNL     1       0.771   8.521  17.929  0.00  0.00    +0.000 HD
ENDROOT
BRANCH   4   8
ATOM      8  C   UNL     1      -1.663  11.944  20.680  0.00  0.00    +0.000 A 
ATOM      9  N   UNL     1      -2.782  12.479  20.222  0.00  0.00    +0.000 NA
ATOM     10  C   UNL     1      -3.530  12.770  21.331  0.00  0.00    +0.000 A 
ATOM     11  C   UNL     1      -4.789  13.378  21.417  0.00  0.00    +0.000 A 
ATOM     12  C   UNL     1      -5.314  13.662  22.682  0.00  0.00    +0.000 A 
ATOM     13  C   UNL     1      -4.599  13.339  23.838  0.00  0.00    +0.000 A 
ATOM     14  C   UNL     1      -3.366  12.680  23.772  0.00  0.00    +0.000 A 
ATOM     15  C   UNL     1      -2.865  12.394  22.495  0.00  0.00    +0.000 A 
ATOM     16  N   UNL     1      -1.743  11.738  22.034  0.00  0.00    +0.000 N 
ATOM     17  C   UNL     1      -0.868  10.902  22.815  0.00  0.00    +0.000 C 
ENDBRANCH   4   8
BRANCH   1  19
ATOM     18  C   UNL     1       3.270   8.276  17.461  0.00  0.00    +0.000 C 
ATOM     19  N   UNL     1       2.505   9.290  17.178  0.00  0.00    +0.000 NA
BRANCH  18  22
ATOM     20  C   UNL     1       3.442   4.730  18.823  0.00  0.00    +0.000 A 
ATOM     21  C   UNL     1       3.566   5.818  17.944  0.00  0.00    +0.000 A 
ATOM     22  C   UNL     1       3.000   7.050  18.249  0.00  0.00    +0.000 A 
ATOM     23  C   UNL     1       2.263   7.184  19.423  0.00  0.00    +0.000 A 
ATOM     24  C   UNL     1       2.084   6.099  20.297  0.00  0.00    +0.000 A 
ATOM     25  C   UNL     1       2.672   4.848  20.003  0.00  0.00    +0.000 A 
BRANCH  20  27
ATOM     26  C   UNL     1       3.275   2.621  17.732  0.00  0.00    +0.000 C 
ATOM     27  O   UNL     1       4.041   3.533  18.520  0.00  0.00    +0.000 OA
ENDBRANCH  20  27
BRANCH  24  28
ATOM     28  O   UNL     1       1.330   6.464  21.385  0.00  0.00    +0.000 OA
ATOM     29  C   UNL     1       0.887   7.806  21.515  0.00  0.00    +0.000 C 
ENDBRANCH  24  28
BRANCH  25  30
ATOM     30  O   UNL     1       2.418   3.832  20.885  0.00  0.00    +0.000 OA
ATOM     31  C   UNL     1       1.208   3.096  20.792  0.00  0.00    +0.000 C 
ENDBRANCH  25  30
ENDBRANCH  18  22
ENDBRANCH   1  19
TORSDOF 6
ENDMDL
MODEL 7
REMARK VINA RESULT:      -7.2      1.182      2.921
REMARK  Name = 
REMARK  10 active torsions:
REMARK  status: ('A' for Active; 'I' for Inactive)
REMARK    1  A    between atoms: C_1  and  O_2
REMARK    2  A    between atoms: O_2  and  C_3
REMARK    3  A    between atoms: C_5  and  C_6
REMARK    4  A    between atoms: N_7  and  N_8
REMARK    5  A    between atoms: C_11  and  C_12
REMARK    6  A    between atoms: N_20  and  C_21
REMARK    7  A    between atoms: C_25  and  O_26
REMARK    8  A    between atoms: O_26  and  C_27
REMARK    9  A    between atoms: C_28  and  O_29
REMARK   10  A    between atoms: O_29  and  C_30
REMARK                            x       y       z     vdW  Elec       q    Type
REMARK                         _______ _______ _______ _____ _____    ______ ____
ROOT
ATOM      1  N   UNL     1       2.920   5.443  17.923  0.00  0.00    +0.000 N 
ATOM      2  C   UNL     1       2.374   6.204  18.914  0.00  0.00    +0.000 A 
ATOM      3  N   UNL     1       2.121   7.489  18.762  0.00  0.00    +0.000 NA
ATOM      4  C   UNL     1       1.605   8.013  19.935  0.00  0.00    +0.000 A 
ATOM      5  C   UNL     1       1.481   7.123  20.977  0.00  0.00    +0.000 A 
ATOM      6  S   UNL     1       2.023   5.579  20.487  0.00  0.00    +0.000 S 
ATOM      7  H   UNL     1       2.925   5.880  17.003  0.00  0.00    +0.000 HD
ENDROOT
BRANCH   4   8
ATOM      8  C   UNL     1       1.142   9.438  20.064  0.00  0.00    +0.000 A 
ATOM      9  N   UNL     1       0.579   9.905  21.165  0.00  0.00    +0.000 NA
ATOM     10  C   UNL     1       0.119  11.153  20.841  0.00  0.00    +0.000 A 
ATOM     11  C   UNL     1      -0.585  12.072  21.631  0.00  0.00    +0.000 A 
ATOM     12  C   UNL     1      -1.038  13.257  21.043  0.00  0.00    +0.000 A 
ATOM     13  C   UNL     1      -0.786  13.524  19.694  0.00  0.00    +0.000 A 
ATOM     14  C   UNL     1      -0.036  12.643  18.906  0.00  0.00    +0.000 A 
ATOM     15  C   UNL     1       0.418  11.468  19.519  0.00  0.00    +0.000 A 
ATOM     16  N   UNL     1       1.199  10.412  19.099  0.00  0.00    +0.000 N 
ATOM     17  C   UNL     1       2.010  10.377  17.909  0.00  0.00    +0.000 C 
ENDBRANCH   4   8
BRANCH   1  19
ATOM     18  C   UNL     1       3.999   3.548  17.222  0.00  0.00    +0.000 C 
ATOM     19  N   UNL     1       3.099   4.099  17.982  0.00  0.00    +0.000 NA
BRANCH  18  22
ATOM     20  C   UNL     1       6.944   5.612  15.985  0.00  0.00    +0.000 A 
ATOM     21  C   UNL     1       5.854   5.197  16.766  0.00  0.00    +0.000 A 
ATOM     22  C   UNL     1       5.033   4.155  16.350  0.00  0.00    +0.000 A 
ATOM     23  C   UNL     1       5.276   3.552  15.118  0.00  0.00    +0.000 A 
ATOM     24  C   UNL     1       6.333   3.980  14.296  0.00  0.00    +0.000 A 
ATOM     25  C   UNL     1       7.183   5.025  14.721  0.00  0.00    +0.000 A 
BRANCH  20  27
ATOM     26  C   UNL     1       7.311   7.345  17.575  0.00  0.00    +0.000 C 
ATOM     27  O   UNL     1       7.764   6.617  16.433  0.00  0.00    +0.000 OA
ENDBRANCH  20  27
BRANCH  24  28
ATOM     28  O   UNL     1       6.382   3.242  13.139  0.00  0.00    +0.000 OA
ATOM     29  C   UNL     1       5.310   3.313  12.212  0.00  0.00    +0.000 C 
ENDBRANCH  24  28
BRANCH  25  30
ATOM     30  O   UNL     1       8.163   5.408  13.844  0.00  0.00    +0.000 OA
ATOM     31  C   UNL     1       7.824   5.784  12.518  0.00  0.00    +0.000 C 
ENDBRANCH  25  30
ENDBRANCH  18  22
ENDBRANCH   1  19
TORSDOF 6
ENDMDL
MODEL 8
REMARK VINA RESULT:      -7.2      1.038      2.674
REMARK  Name = 
REMARK  10 active torsions:
REMARK  status: ('A' for Active; 'I' for Inactive)
REMARK    1  A    between atoms: C_1  and  O_2
REMARK    2  A    between atoms: O_2  and  C_3
REMARK    3  A    between atoms: C_5  and  C_6
REMARK    4  A    between atoms: N_7  and  N_8
REMARK    5  A    between atoms: C_11  and  C_12
REMARK    6  A    between atoms: N_20  and  C_21
REMARK    7  A    between atoms: C_25  and  O_26
REMARK    8  A    between atoms: O_26  and  C_27
REMARK    9  A    between atoms: C_28  and  O_29
REMARK   10  A    between atoms: O_29  and  C_30
REMARK                            x       y       z     vdW  Elec       q    Type
REMARK                         _______ _______ _______ _____ _____    ______ ____
ROOT
ATOM      1  N   UNL     1       2.692   7.208  17.897  0.00  0.00    +0.000 N 
ATOM      2  C   UNL     1       2.146   8.265  18.565  0.00  0.00    +0.000 A 
ATOM      3  N   UNL     1       2.188   9.496  18.094  0.00  0.00    +0.000 NA
ATOM      4  C   UNL     1       1.591  10.367  18.991  0.00  0.00    +0.000 A 
ATOM      5  C   UNL     1       1.112   9.792  20.145  0.00  0.00    +0.000 A 
ATOM      6  S   UNL     1       1.408   8.109  20.120  0.00  0.00    +0.000 S 
ATOM      7  H   UNL     1       2.944   7.399  16.930  0.00  0.00    +0.000 HD
ENDROOT
BRANCH   4   8
ATOM      8  C   UNL     1       1.410  11.834  18.714  0.00  0.00    +0.000 A 
ATOM      9  N   UNL     1       2.432  12.650  18.518  0.00  0.00    +0.000 NA
ATOM     10  C   UNL     1       1.896  13.910  18.501  0.00  0.00    +0.000 A 
ATOM     11  C   UNL     1       2.540  15.146  18.358  0.00  0.00    +0.000 A 
ATOM     12  C   UNL     1       1.783  16.316  18.471  0.00  0.00    +0.000 A 
ATOM     13  C   UNL     1       0.409  16.255  18.715  0.00  0.00    +0.000 A 
ATOM     14  C   UNL     1      -0.260  15.028  18.803  0.00  0.00    +0.000 A 
ATOM     15  C   UNL     1       0.516  13.869  18.675  0.00  0.00    +0.000 A 
ATOM     16  N   UNL     1       0.224  12.521  18.660  0.00  0.00    +0.000 N 
ATOM     17  C   UNL     1      -1.085  11.938  18.513  0.00  0.00    +0.000 C 
ENDBRANCH   4   8
BRANCH   1  19
ATOM     18  C   UNL     1       3.385   5.030  17.750  0.00  0.00    +0.000 C 
ATOM     19  N   UNL     1       2.583   5.909  18.275  0.00  0.00    +0.000 NA
BRANCH  18  22
ATOM     20  C   UNL     1       6.743   6.153  16.361  0.00  0.00    +0.000 A 
ATOM     21  C   UNL     1       5.551   6.151  17.103  0.00  0.00    +0.000 A 
ATOM     22  C   UNL     1       4.565   5.201  16.868  0.00  0.00    +0.000 A 
ATOM     23  C   UNL     1       4.751   4.269  15.849  0.00  0.00    +0.000 A 
ATOM     24  C   UNL     1       5.914   4.278  15.061  0.00  0.00    +0.000 A 
ATOM     25  C   UNL     1       6.929   5.229  15.306  0.00  0.00    +0.000 A 
BRANCH  20  27
ATOM     26  C   UNL     1       7.806   7.525  17.989  0.00  0.00    +0.000 C 
ATOM     27  O   UNL     1       7.719   7.076  16.636  0.00  0.00    +0.000 OA
ENDBRANCH  20  27
BRANCH  24  28
ATOM     28  O   UNL     1       5.881   3.272  14.127  0.00  0.00    +0.000 OA
ATOM     29  C   UNL     1       5.321   3.519  12.846  0.00  0.00    +0.000 C 
ENDBRANCH  24  28
BRANCH  25  30
ATOM     30  O   UNL     1       8.012   5.195  14.469  0.00  0.00    +0.000 OA
ATOM     31  C   UNL     1       7.905   5.698  13.146  0.00  0.00    +0.000 C 
ENDBRANCH  25  30
ENDBRANCH  18  22
ENDBRANCH   1  19
TORSDOF 6
ENDMDL
MODEL 9
REMARK VINA RESULT:      -7.1      3.878      9.543
REMARK  Name = 
REMARK  10 active torsions:
REMARK  status: ('A' for Active; 'I' for Inactive)
REMARK    1  A    between atoms: C_1  and  O_2
REMARK    2  A    between atoms: O_2  and  C_3
REMARK    3  A    between atoms: C_5  and  C_6
REMARK    4  A    between atoms: N_7  and  N_8
REMARK    5  A    between atoms: C_11  and  C_12
REMARK    6  A    between atoms: N_20  and  C_21
REMARK    7  A    between atoms: C_25  and  O_26
REMARK    8  A    between atoms: O_26  and  C_27
REMARK    9  A    between atoms: C_28  and  O_29
REMARK   10  A    between atoms: O_29  and  C_30
REMARK                            x       y       z     vdW  Elec       q    Type
REMARK                         _______ _______ _______ _____ _____    ______ ____
ROOT
ATOM      1  N   UNL     1       1.441   8.325  20.546  0.00  0.00    +0.000 N 
ATOM      2  C   UNL     1       1.989   7.135  20.167  0.00  0.00    +0.000 A 
ATOM      3  N   UNL     1       2.806   7.030  19.137  0.00  0.00    +0.000 NA
ATOM      4  C   UNL     1       3.178   5.707  18.962  0.00  0.00    +0.000 A 
ATOM      5  C   UNL     1       2.629   4.814  19.852  0.00  0.00    +0.000 A 
ATOM      6  S   UNL     1       1.615   5.641  20.950  0.00  0.00    +0.000 S 
ATOM      7  H   UNL     1       1.864   9.146  20.117  0.00  0.00    +0.000 HD
ENDROOT
BRANCH   4   8
ATOM      8  C   UNL     1       4.165   5.264  17.917  0.00  0.00    +0.000 A 
ATOM      9  N   UNL     1       5.358   5.819  17.786  0.00  0.00    +0.000 NA
ATOM     10  C   UNL     1       5.877   5.304  16.629  0.00  0.00    +0.000 A 
ATOM     11  C   UNL     1       7.102   5.580  16.007  0.00  0.00    +0.000 A 
ATOM     12  C   UNL     1       7.372   4.997  14.764  0.00  0.00    +0.000 A 
ATOM     13  C   UNL     1       6.442   4.149  14.159  0.00  0.00    +0.000 A 
ATOM     14  C   UNL     1       5.238   3.818  14.793  0.00  0.00    +0.000 A 
ATOM     15  C   UNL     1       4.994   4.404  16.042  0.00  0.00    +0.000 A 
ATOM     16  N   UNL     1       3.977   4.293  16.966  0.00  0.00    +0.000 N 
ATOM     17  C   UNL     1       2.956   3.276  16.987  0.00  0.00    +0.000 C 
ENDBRANCH   4   8
BRANCH   1  19
ATOM     18  C   UNL     1       0.195   9.696  21.893  0.00  0.00    +0.000 C 
ATOM     19  N   UNL     1       0.686   8.515  21.658  0.00  0.00    +0.000 NA
BRANCH  18  22
ATOM     20  C   UNL     1       1.301  12.736  19.893  0.00  0.00    +0.000 A 
ATOM     21  C   UNL     1       1.310  11.699  20.840  0.00  0.00    +0.000 A 
ATOM     22  C   UNL     1       0.179  10.922  21.059  0.00  0.00    +0.000 A 
ATOM     23  C   UNL     1      -0.988  11.213  20.358  0.00  0.00    +0.000 A 
ATOM     24  C   UNL     1      -1.039  12.274  19.438  0.00  0.00    +0.000 A 
ATOM     25  C   UNL     1       0.113  13.057  19.196  0.00  0.00    +0.000 A 
BRANCH  20  27
ATOM     26  C   UNL     1       2.927  14.241  20.761  0.00  0.00    +0.000 C 
ATOM     27  O   UNL     1       2.440  13.466  19.665  0.00  0.00    +0.000 OA
ENDBRANCH  20  27
BRANCH  24  28
ATOM     28  O   UNL     1      -2.284  12.369  18.868  0.00  0.00    +0.000 OA
ATOM     29  C   UNL     1      -2.845  11.244  18.210  0.00  0.00    +0.000 C 
ENDBRANCH  24  28
BRANCH  25  30
ATOM     30  O   UNL     1      -0.031  14.095  18.316  0.00  0.00    +0.000 OA
ATOM     31  C   UNL     1      -0.263  15.410  18.799  0.00  0.00    +0.000 C 
ENDBRANCH  25  30
ENDBRANCH  18  22
ENDBRANCH   1  19
TORSDOF 6
ENDMDL
