MODEL 1
REMARK VINA RESULT:      -8.0      0.000      0.000
REMARK  Name = 
REMARK  6 active torsions:
REMARK  status: ('A' for Active; 'I' for Inactive)
REMARK    1  A    between atoms: C_2  and  C_25
REMARK    2  A    between atoms: N_3  and  C_4
REMARK    3  A    between atoms: N_7  and  C_8
REMARK    4  A    between atoms: C_8  and  C_9
REMARK    5  A    between atoms: C_12  and  O_13
REMARK    6  A    between atoms: O_13  and  C_14
REMARK                            x       y       z     vdW  Elec       q    Type
REMARK                         _______ _______ _______ _____ _____    ______ ____
ROOT
ATOM      1  C   UNL     1       5.606   4.027  18.711  0.00  0.00    +0.000 C 
ATOM      2  C   UNL     1       4.252   3.438  19.078  0.00  0.00    +0.000 C 
ATOM      3  C   UNL     1       3.117   4.241  18.453  0.00  0.00    +0.000 C 
ATOM      4  N   UNL     1       3.168   5.681  18.765  0.00  0.00    +0.000 NA
ATOM      5  C   UNL     1       4.488   6.289  18.551  0.00  0.00    +0.000 C 
ATOM      6  C   UNL     1       5.639   5.486  19.166  0.00  0.00    +0.000 C 
ENDROOT
BRANCH   1   9
ATOM      7  O   UNL     1       7.966   4.845  17.292  0.00  0.00    +0.000 OA
ATOM      8  C   UNL     1       6.992   4.428  16.680  0.00  0.00    +0.000 C 
ATOM      9  N   UNL     1       5.867   3.909  17.279  0.00  0.00    +0.000 N 
ATOM     10  H   UNL     1       5.099   3.705  16.643  0.00  0.00    +0.000 HD
BRANCH   8  11
ATOM     11  C   UNL     1       6.938   4.480  15.192  0.00  0.00    +0.000 A 
ATOM     12  C   UNL     1       6.026   3.691  14.508  0.00  0.00    +0.000 A 
ATOM     13  N   UNL     1       5.958   3.661  13.154  0.00  0.00    +0.000 NA
ATOM     14  C   UNL     1       6.847   4.456  12.514  0.00  0.00    +0.000 A 
ATOM     15  C   UNL     1       7.755   5.250  13.199  0.00  0.00    +0.000 A 
ATOM     16  N   UNL     1       7.834   5.292  14.552  0.00  0.00    +0.000 NA
ENDBRANCH   8  11
ENDBRANCH   1   9
BRANCH   4  17
ATOM     17  C   UNL     1       2.126   6.424  18.007  0.00  0.00    +0.000 C 
BRANCH  17  18
ATOM     18  C   UNL     1       1.959   7.840  18.529  0.00  0.00    +0.000 A 
ATOM     19  C   UNL     1       2.025   8.965  17.697  0.00  0.00    +0.000 A 
ATOM     20  C   UNL     1       1.639  10.225  18.187  0.00  0.00    +0.000 A 
ATOM     21  C   UNL     1       1.128  10.373  19.486  0.00  0.00    +0.000 A 
ATOM     22  C   UNL     1       1.020   9.228  20.286  0.00  0.00    +0.000 A 
ATOM     23 BR   UNL     1      -0.075   9.077  21.826  0.00  0.00    +0.000 Br
ATOM     24  C   UNL     1       1.537   8.007  19.851  0.00  0.00    +0.000 A 
BRANCH  21  25
ATOM     25  O   UNL     1       0.637  11.621  19.801  0.00  0.00    +0.000 OA
BRANCH  25  26
ATOM     26  C   UNL     1      -0.080  12.290  18.742  0.00  0.00    +0.000 C 
ATOM     27  C   UNL     1      -0.021  13.812  18.931  0.00  0.00    +0.000 C 
ATOM     28  C   UNL     1      -0.822  14.297  20.131  0.00  0.00    +0.000 C 
ATOM     29  N   UNL     1      -2.220  13.886  20.061  0.00  0.00    +0.000 NA
ATOM     30  C   UNL     1      -2.335  12.434  19.942  0.00  0.00    +0.000 C 
ATOM     31  C   UNL     1      -1.558  11.862  18.753  0.00  0.00    +0.000 C 
ATOM     32  H   UNL     1      -2.670  14.340  19.267  0.00  0.00    +0.000 HD
ENDBRANCH  25  26
ENDBRANCH  21  25
ENDBRANCH  17  18
ENDBRANCH   4  17
TORSDOF 6
ENDMDL
MODEL 2
REMARK VINA RESULT:      -7.7      2.881     11.097
REMARK  Name = 
REMARK  6 active torsions:
REMARK  status: ('A' for Active; 'I' for Inactive)
REMARK    1  A    between atoms: C_2  and  C_25
REMARK    2  A    between atoms: N_3  and  C_4
REMARK    3  A    between atoms: N_7  and  C_8
REMARK    4  A    between atoms: C_8  and  C_9
REMARK    5  A    between atoms: C_12  and  O_13
REMARK    6  A    between atoms: O_13  and  C_14
REMARK                            x       y       z     vdW  Elec       q    Type
REMARK                         _______ _______ _______ _____ _____    ______ ____
ROOT
ATOM      1  C   UNL     1      -1.144  12.588  19.612  0.00  0.00    +0.000 C 
ATOM      2  C   UNL     1      -1.164  11.480  18.569  0.00  0.00    +0.000 C 
ATOM      3  C   UNL     1      -0.630  10.175  19.147  0.00  0.00    +0.000 C 
ATOM      4  N   UNL     1       0.705  10.299  19.760  0.00  0.00    +0.000 NA
ATOM      5  C   UNL     1       0.829  11.431  20.688  0.00  0.00    +0.000 C 
ATOM      6  C   UNL     1       0.288  12.748  20.122  0.00  0.00    +0.000 C 
ENDROOT
BRANCH   1   9
ATOM      7  O   UNL     1      -3.880  13.433  19.842  0.00  0.00    +0.000 OA
ATOM      8  C   UNL     1      -3.336  12.847  20.767  0.00  0.00    +0.000 C 
ATOM      9  N   UNL     1      -2.071  12.306  20.704  0.00  0.00    +0.000 N 
ATOM     10  H   UNL     1      -1.715  11.946  21.586  0.00  0.00    +0.000 HD
BRANCH   8  11
ATOM     11  C   UNL     1      -4.012  12.694  22.086  0.00  0.00    +0.000 A 
ATOM     12  C   UNL     1      -5.397  12.704  22.155  0.00  0.00    +0.000 A 
ATOM     13  N   UNL     1      -6.070  12.614  23.329  0.00  0.00    +0.000 NA
ATOM     14  C   UNL     1      -5.293  12.516  24.433  0.00  0.00    +0.000 A 
ATOM     15  C   UNL     1      -3.908  12.499  24.363  0.00  0.00    +0.000 A 
ATOM     16  N   UNL     1      -3.221  12.587  23.197  0.00  0.00    +0.000 NA
ENDBRANCH   8  11
ENDBRANCH   1   9
BRANCH   4  17
ATOM     17  C   UNL     1       1.099   9.032  20.433  0.00  0.00    +0.000 C 
BRANCH  17  18
ATOM     18  C   UNL     1       1.754   8.065  19.462  0.00  0.00    +0.000 A 
ATOM     19  C   UNL     1       2.393   8.488  18.290  0.00  0.00    +0.000 A 
ATOM     20  C   UNL     1       3.176   7.584  17.550  0.00  0.00    +0.000 A 
ATOM     21  C   UNL     1       3.380   6.268  17.996  0.00  0.00    +0.000 A 
ATOM     22  C   UNL     1       2.776   5.879  19.198  0.00  0.00    +0.000 A 
ATOM     23 BR   UNL     1       3.296   4.383  20.242  0.00  0.00    +0.000 Br
ATOM     24  C   UNL     1       1.885   6.730  19.853  0.00  0.00    +0.000 A 
BRANCH  21  25
ATOM     25  O   UNL     1       4.288   5.523  17.276  0.00  0.00    +0.000 OA
BRANCH  25  26
ATOM     26  C   UNL     1       5.291   6.283  16.569  0.00  0.00    +0.000 C 
ATOM     27  C   UNL     1       5.736   5.539  15.303  0.00  0.00    +0.000 C 
ATOM     28  C   UNL     1       6.533   4.276  15.602  0.00  0.00    +0.000 C 
ATOM     29  N   UNL     1       7.707   4.548  16.424  0.00  0.00    +0.000 NA
ATOM     30  C   UNL     1       7.330   5.204  17.675  0.00  0.00    +0.000 C 
ATOM     31  C   UNL     1       6.525   6.490  17.464  0.00  0.00    +0.000 C 
ATOM     32  H   UNL     1       8.360   5.133  15.904  0.00  0.00    +0.000 HD
ENDBRANCH  25  26
ENDBRANCH  21  25
ENDBRANCH  17  18
ENDBRANCH   4  17
TORSDOF 6
ENDMDL
MODEL 3
REMARK VINA RESULT:      -7.4      2.860     11.212
REMARK  Name = 
REMARK  6 active torsions:
REMARK  status: ('A' for Active; 'I' for Inactive)
REMARK    1  A    between atoms: C_2  and  C_25
REMARK    2  A    between atoms: N_3  and  C_4
REMARK    3  A    between atoms: N_7  and  C_8
REMARK    4  A    between atoms: C_8  and  C_9
REMARK    5  A    between atoms: C_12  and  O_13
REMARK    6  A    between atoms: O_13  and  C_14
REMARK                            x       y       z     vdW  Elec       q    Type
REMARK                         _______ _______ _______ _____ _____    ______ ____
ROOT
ATOM      1  C   UNL     1      -2.148  12.377  18.839  0.00  0.00    +0.000 C 
ATOM      2  C   UNL     1      -2.040  11.047  18.108  0.00  0.00    +0.000 C 
ATOM      3  C   UNL     1      -1.171  10.063  18.883  0.00  0.00    +0.000 C 
ATOM      4  N   UNL     1       0.164  10.590  19.221  0.00  0.00    +0.000 NA
ATOM      5  C   UNL     1       0.139  11.931  19.820  0.00  0.00    +0.000 C 
ATOM      6  C   UNL     1      -0.738  12.927  19.054  0.00  0.00    +0.000 C 
ENDROOT
BRANCH   1   9
ATOM      7  O   UNL     1      -4.972  12.642  19.291  0.00  0.00    +0.000 OA
ATOM      8  C   UNL     1      -4.210  12.481  20.233  0.00  0.00    +0.000 C 
ATOM      9  N   UNL     1      -2.862  12.230  20.104  0.00  0.00    +0.000 N 
ATOM     10  H   UNL     1      -2.342  12.226  20.978  0.00  0.00    +0.000 HD
BRANCH   8  11
ATOM     11  C   UNL     1      -4.693  12.575  21.639  0.00  0.00    +0.000 A 
ATOM     12  C   UNL     1      -3.783  12.548  22.685  0.00  0.00    +0.000 A 
ATOM     13  N   UNL     1      -4.164  12.585  23.985  0.00  0.00    +0.000 NA
ATOM     14  C   UNL     1      -5.500  12.648  24.194  0.00  0.00    +0.000 A 
ATOM     15  C   UNL     1      -6.410  12.682  23.147  0.00  0.00    +0.000 A 
ATOM     16  N   UNL     1      -6.045  12.646  21.842  0.00  0.00    +0.000 NA
ENDBRANCH   8  11
ENDBRANCH   1   9
BRANCH   4  17
ATOM     17  C   UNL     1       0.899   9.642  20.101  0.00  0.00    +0.000 C 
BRANCH  17  18
ATOM     18  C   UNL     1       1.624   8.579  19.295  0.00  0.00    +0.000 A 
ATOM     19  C   UNL     1       2.368   8.878  18.146  0.00  0.00    +0.000 A 
ATOM     20  C   UNL     1       3.200   7.900  17.574  0.00  0.00    +0.000 A 
ATOM     21  C   UNL     1       3.349   6.637  18.167  0.00  0.00    +0.000 A 
ATOM     22  C   UNL     1       2.638   6.374  19.345  0.00  0.00    +0.000 A 
ATOM     23 BR   UNL     1       3.047   4.992  20.577  0.00  0.00    +0.000 Br
ATOM     24  C   UNL     1       1.704   7.291  19.830  0.00  0.00    +0.000 A 
BRANCH  21  25
ATOM     25  O   UNL     1       4.307   5.819  17.609  0.00  0.00    +0.000 OA
BRANCH  25  26
ATOM     26  C   UNL     1       5.361   6.498  16.894  0.00  0.00    +0.000 C 
ATOM     27  C   UNL     1       5.554   5.878  15.503  0.00  0.00    +0.000 C 
ATOM     28  C   UNL     1       6.139   4.473  15.552  0.00  0.00    +0.000 C 
ATOM     29  N   UNL     1       7.411   4.431  16.265  0.00  0.00    +0.000 NA
ATOM     30  C   UNL     1       7.269   4.957  17.622  0.00  0.00    +0.000 C 
ATOM     31  C   UNL     1       6.687   6.373  17.663  0.00  0.00    +0.000 C 
ATOM     32  H   UNL     1       8.108   4.970  15.752  0.00  0.00    +0.000 HD
ENDBRANCH  25  26
ENDBRANCH  21  25
ENDBRANCH  17  18
ENDBRANCH   4  17
TORSDOF 6
ENDMDL
MODEL 4
REMARK VINA RESULT:      -7.3      0.691      1.158
REMARK  Name = 
REMARK  6 active torsions:
REMARK  status: ('A' for Active; 'I' for Inactive)
REMARK    1  A    between atoms: C_2  and  C_25
REMARK    2  A    between atoms: N_3  and  C_4
REMARK    3  A    between atoms: N_7  and  C_8
REMARK    4  A    between atoms: C_8  and  C_9
REMARK    5  A    between atoms: C_12  and  O_13
REMARK    6  A    between atoms: O_13  and  C_14
REMARK                            x       y       z     vdW  Elec       q    Type
REMARK                         _______ _______ _______ _____ _____    ______ ____
ROOT
ATOM      1  C   UNL     1       5.495   3.980  18.800  0.00  0.00    +0.000 C 
ATOM      2  C   UNL     1       4.121   3.435  19.161  0.00  0.00    +0.000 C 
ATOM      3  C   UNL     1       3.016   4.270  18.525  0.00  0.00    +0.000 C 
ATOM      4  N   UNL     1       3.110   5.710  18.828  0.00  0.00    +0.000 NA
ATOM      5  C   UNL     1       4.450   6.274  18.619  0.00  0.00    +0.000 C 
ATOM      6  C   UNL     1       5.571   5.439  19.246  0.00  0.00    +0.000 C 
ENDROOT
BRANCH   1   9
ATOM      7  O   UNL     1       7.930   4.602  17.409  0.00  0.00    +0.000 OA
ATOM      8  C   UNL     1       6.932   4.270  16.786  0.00  0.00    +0.000 C 
ATOM      9  N   UNL     1       5.760   3.845  17.370  0.00  0.00    +0.000 N 
ATOM     10  H   UNL     1       4.985   3.707  16.725  0.00  0.00    +0.000 HD
BRANCH   8  11
ATOM     11  C   UNL     1       6.898   4.330  15.297  0.00  0.00    +0.000 A 
ATOM     12  C   UNL     1       7.731   5.211  14.624  0.00  0.00    +0.000 A 
ATOM     13  N   UNL     1       7.715   5.344  13.275  0.00  0.00    +0.000 NA
ATOM     14  C   UNL     1       6.825   4.555  12.628  0.00  0.00    +0.000 A 
ATOM     15  C   UNL     1       5.998   3.669  13.301  0.00  0.00    +0.000 A 
ATOM     16  N   UNL     1       6.002   3.524  14.649  0.00  0.00    +0.000 NA
ENDBRANCH   8  11
ENDBRANCH   1   9
BRANCH   4  17
ATOM     17  C   UNL     1       2.096   6.480  18.059  0.00  0.00    +0.000 C 
BRANCH  17  18
ATOM     18  C   UNL     1       1.929   7.886  18.608  0.00  0.00    +0.000 A 
ATOM     19  C   UNL     1       1.985   9.026  17.797  0.00  0.00    +0.000 A 
ATOM     20  C   UNL     1       1.598  10.276  18.312  0.00  0.00    +0.000 A 
ATOM     21  C   UNL     1       1.099  10.399  19.618  0.00  0.00    +0.000 A 
ATOM     22  C   UNL     1       1.001   9.239  20.398  0.00  0.00    +0.000 A 
ATOM     23 BR   UNL     1      -0.081   9.056  21.944  0.00  0.00    +0.000 Br
ATOM     24  C   UNL     1       1.518   8.028  19.936  0.00  0.00    +0.000 A 
BRANCH  21  25
ATOM     25  O   UNL     1       0.607  11.639  19.960  0.00  0.00    +0.000 OA
BRANCH  25  26
ATOM     26  C   UNL     1      -0.751  11.902  19.547  0.00  0.00    +0.000 C 
ATOM     27  C   UNL     1      -0.773  12.873  18.359  0.00  0.00    +0.000 C 
ATOM     28  C   UNL     1      -0.339  14.285  18.732  0.00  0.00    +0.000 C 
ATOM     29  N   UNL     1      -1.150  14.842  19.810  0.00  0.00    +0.000 NA
ATOM     30  C   UNL     1      -1.114  13.982  20.992  0.00  0.00    +0.000 C 
ATOM     31  C   UNL     1      -1.540  12.540  20.703  0.00  0.00    +0.000 C 
ATOM     32  H   UNL     1      -2.110  14.957  19.489  0.00  0.00    +0.000 HD
ENDBRANCH  25  26
ENDBRANCH  21  25
ENDBRANCH  17  18
ENDBRANCH   4  17
TORSDOF 6
ENDMDL
MODEL 5
REMARK VINA RESULT:      -7.3      1.229      1.572
REMARK  Name = 
REMARK  6 active torsions:
REMARK  status: ('A' for Active; 'I' for Inactive)
REMARK    1  A    between atoms: C_2  and  C_25
REMARK    2  A    between atoms: N_3  and  C_4
REMARK    3  A    between atoms: N_7  and  C_8
REMARK    4  A    between atoms: C_8  and  C_9
REMARK    5  A    between atoms: C_12  and  O_13
REMARK    6  A    between atoms: O_13  and  C_14
REMARK                            x       y       z     vdW  Elec       q    Type
REMARK                         _______ _______ _______ _____ _____    ______ ____
ROOT
ATOM      1  C   UNL     1       5.199   4.318  18.326  0.00  0.00    +0.000 C 
ATOM      2  C   UNL     1       3.702   4.142  18.532  0.00  0.00    +0.000 C 
ATOM      3  C   UNL     1       2.920   5.261  17.854  0.00  0.00    +0.000 C 
ATOM      4  N   UNL     1       3.352   6.612  18.252  0.00  0.00    +0.000 NA
ATOM      5  C   UNL     1       4.807   6.812  18.194  0.00  0.00    +0.000 C 
ATOM      6  C   UNL     1       5.605   5.689  18.865  0.00  0.00    +0.000 C 
ENDROOT
BRANCH   1   9
ATOM      7  O   UNL     1       7.822   4.500  17.169  0.00  0.00    +0.000 OA
ATOM      8  C   UNL     1       6.840   4.378  16.452  0.00  0.00    +0.000 C 
ATOM      9  N   UNL     1       5.562   4.169  16.919  0.00  0.00    +0.000 N 
ATOM     10  H   UNL     1       4.836   4.197  16.207  0.00  0.00    +0.000 HD
BRANCH   8  11
ATOM     11  C   UNL     1       6.952   4.480  14.970  0.00  0.00    +0.000 A 
ATOM     12  C   UNL     1       6.166   3.671  14.162  0.00  0.00    +0.000 A 
ATOM     13  N   UNL     1       6.254   3.686  12.809  0.00  0.00    +0.000 NA
ATOM     14  C   UNL     1       7.167   4.545  12.299  0.00  0.00    +0.000 A 
ATOM     15  C   UNL     1       7.947   5.359  13.107  0.00  0.00    +0.000 A 
ATOM     16  N   UNL     1       7.871   5.356  14.461  0.00  0.00    +0.000 NA
ENDBRANCH   8  11
ENDBRANCH   1   9
BRANCH   4  17
ATOM     17  C   UNL     1       2.654   7.650  17.446  0.00  0.00    +0.000 C 
BRANCH  17  18
ATOM     18  C   UNL     1       2.028   8.715  18.329  0.00  0.00    +0.000 A 
ATOM     19  C   UNL     1       1.617   9.960  17.836  0.00  0.00    +0.000 A 
ATOM     20  C   UNL     1       0.841  10.813  18.639  0.00  0.00    +0.000 A 
ATOM     21  C   UNL     1       0.414  10.417  19.917  0.00  0.00    +0.000 A 
ATOM     22  C   UNL     1       0.790   9.147  20.372  0.00  0.00    +0.000 A 
ATOM     23 BR   UNL     1      -0.052   8.205  21.786  0.00  0.00    +0.000 Br
ATOM     24  C   UNL     1       1.679   8.362  19.635  0.00  0.00    +0.000 A 
BRANCH  21  25
ATOM     25  O   UNL     1      -0.469  11.266  20.547  0.00  0.00    +0.000 OA
BRANCH  25  26
ATOM     26  C   UNL     1       0.065  11.987  21.677  0.00  0.00    +0.000 C 
ATOM     27  C   UNL     1      -1.019  12.194  22.743  0.00  0.00    +0.000 C 
ATOM     28  C   UNL     1      -2.108  13.166  22.309  0.00  0.00    +0.000 C 
ATOM     29  N   UNL     1      -1.566  14.467  21.932  0.00  0.00    +0.000 NA
ATOM     30  C   UNL     1      -0.568  14.332  20.871  0.00  0.00    +0.000 C 
ATOM     31  C   UNL     1       0.568  13.371  21.231  0.00  0.00    +0.000 C 
ATOM     32  H   UNL     1      -1.151  14.913  22.749  0.00  0.00    +0.000 HD
ENDBRANCH  25  26
ENDBRANCH  21  25
ENDBRANCH  17  18
ENDBRANCH   4  17
TORSDOF 6
ENDMDL
MODEL 6
REMARK VINA RESULT:      -7.3      1.446      2.040
REMARK  Name = 
REMARK  6 active torsions:
REMARK  status: ('A' for Active; 'I' for Inactive)
REMARK    1  A    between atoms: C_2  and  C_25
REMARK    2  A    between atoms: N_3  and  C_4
REMARK    3  A    between atoms: N_7  and  C_8
REMARK    4  A    between atoms: C_8  and  C_9
REMARK    5  A    between atoms: C_12  and  O_13
REMARK    6  A    between atoms: O_13  and  C_14
REMARK                            x       y       z     vdW  Elec       q    Type
REMARK                         _______ _______ _______ _____ _____    ______ ____
ROOT
ATOM      1  C   UNL     1       7.168   5.433  17.111  0.00  0.00    +0.000 C 
ATOM      2  C   UNL     1       6.700   4.828  18.426  0.00  0.00    +0.000 C 
ATOM      3  C   UNL     1       5.179   4.856  18.531  0.00  0.00    +0.000 C 
ATOM      4  N   UNL     1       4.595   6.193  18.327  0.00  0.00    +0.000 NA
ATOM      5  C   UNL     1       5.101   6.888  17.136  0.00  0.00    +0.000 C 
ATOM      6  C   UNL     1       6.628   6.859  17.014  0.00  0.00    +0.000 C 
ENDROOT
BRANCH   1   9
ATOM      7  O   UNL     1       8.085   5.621  14.395  0.00  0.00    +0.000 OA
ATOM      8  C   UNL     1       7.170   4.863  14.686  0.00  0.00    +0.000 C 
ATOM      9  N   UNL     1       6.744   4.623  15.973  0.00  0.00    +0.000 N 
ATOM     10  H   UNL     1       5.904   4.053  16.046  0.00  0.00    +0.000 HD
BRANCH   8  11
ATOM     11  C   UNL     1       6.405   4.140  13.632  0.00  0.00    +0.000 A 
ATOM     12  C   UNL     1       7.077   3.557  12.569  0.00  0.00    +0.000 A 
ATOM     13  N   UNL     1       6.434   2.925  11.557  0.00  0.00    +0.000 NA
ATOM     14  C   UNL     1       5.084   2.904  11.655  0.00  0.00    +0.000 A 
ATOM     15  C   UNL     1       4.412   3.482  12.722  0.00  0.00    +0.000 A 
ATOM     16  N   UNL     1       5.041   4.116  13.741  0.00  0.00    +0.000 NA
ENDBRANCH   8  11
ENDBRANCH   1   9
BRANCH   4  17
ATOM     17  C   UNL     1       3.109   6.122  18.294  0.00  0.00    +0.000 C 
BRANCH  17  18
ATOM     18  C   UNL     1       2.479   7.468  18.607  0.00  0.00    +0.000 A 
ATOM     19  C   UNL     1       2.181   8.412  17.616  0.00  0.00    +0.000 A 
ATOM     20  C   UNL     1       1.395   9.535  17.928  0.00  0.00    +0.000 A 
ATOM     21  C   UNL     1       0.848   9.704  19.210  0.00  0.00    +0.000 A 
ATOM     22  C   UNL     1       1.113   8.723  20.174  0.00  0.00    +0.000 A 
ATOM     23 BR   UNL     1       0.109   8.458  21.760  0.00  0.00    +0.000 Br
ATOM     24  C   UNL     1       2.009   7.687  19.904  0.00  0.00    +0.000 A 
BRANCH  21  25
ATOM     25  O   UNL     1      -0.030  10.755  19.355  0.00  0.00    +0.000 OA
BRANCH  25  26
ATOM     26  C   UNL     1       0.454  11.861  20.146  0.00  0.00    +0.000 C 
ATOM     27  C   UNL     1      -0.661  12.403  21.051  0.00  0.00    +0.000 C 
ATOM     28  C   UNL     1      -1.771  13.103  20.280  0.00  0.00    +0.000 C 
ATOM     29  N   UNL     1      -1.263  14.195  19.456  0.00  0.00    +0.000 NA
ATOM     30  C   UNL     1      -0.238  13.719  18.528  0.00  0.00    +0.000 C 
ATOM     31  C   UNL     1       0.921  13.003  19.226  0.00  0.00    +0.000 C 
ATOM     32  H   UNL     1      -0.882  14.926  20.055  0.00  0.00    +0.000 HD
ENDBRANCH  25  26
ENDBRANCH  21  25
ENDBRANCH  17  18
ENDBRANCH   4  17
TORSDOF 6
ENDMDL
MODEL 7
REMARK VINA RESULT:      -7.2      1.059      1.424
REMARK  Name = 
REMARK  6 active torsions:
REMARK  status: ('A' for Active; 'I' for Inactive)
REMARK    1  A    between atoms: C_2  and  C_25
REMARK    2  A    between atoms: N_3  and  C_4
REMARK    3  A    between atoms: N_7  and  C_8
REMARK    4  A    between atoms: C_8  and  C_9
REMARK    5  A    between atoms: C_12  and  O_13
REMARK    6  A    between atoms: O_13  and  C_14
REMARK                            x       y       z     vdW  Elec       q    Type
REMARK                         _______ _______ _______ _____ _____    ______ ____
ROOT
ATOM      1  C   UNL     1       6.786   4.832  17.815  0.00  0.00    +0.000 C 
ATOM      2  C   UNL     1       5.878   4.242  18.884  0.00  0.00    +0.000 C 
ATOM      3  C   UNL     1       4.419   4.596  18.620  0.00  0.00    +0.000 C 
ATOM      4  N   UNL     1       4.179   6.042  18.462  0.00  0.00    +0.000 NA
ATOM      5  C   UNL     1       5.107   6.700  17.533  0.00  0.00    +0.000 C 
ATOM      6  C   UNL     1       6.576   6.345  17.782  0.00  0.00    +0.000 C 
ENDROOT
BRANCH   1   9
ATOM      7  O   UNL     1       7.869   5.635  15.278  0.00  0.00    +0.000 OA
ATOM      8  C   UNL     1       7.020   4.756  15.336  0.00  0.00    +0.000 C 
ATOM      9  N   UNL     1       6.531   4.229  16.510  0.00  0.00    +0.000 N 
ATOM     10  H   UNL     1       5.752   3.584  16.397  0.00  0.00    +0.000 HD
BRANCH   8  11
ATOM     11  C   UNL     1       6.411   4.192  14.099  0.00  0.00    +0.000 A 
ATOM     12  C   UNL     1       7.206   3.948  12.989  0.00  0.00    +0.000 A 
ATOM     13  N   UNL     1       6.703   3.477  11.821  0.00  0.00    +0.000 NA
ATOM     14  C   UNL     1       5.366   3.263  11.812  0.00  0.00    +0.000 A 
ATOM     15  C   UNL     1       4.573   3.501  12.925  0.00  0.00    +0.000 A 
ATOM     16  N   UNL     1       5.061   3.971  14.100  0.00  0.00    +0.000 NA
ENDBRANCH   8  11
ENDBRANCH   1   9
BRANCH   4  17
ATOM     17  C   UNL     1       2.770   6.303  18.060  0.00  0.00    +0.000 C 
BRANCH  17  18
ATOM     18  C   UNL     1       2.294   7.661  18.545  0.00  0.00    +0.000 A 
ATOM     19  C   UNL     1       2.064   8.736  17.677  0.00  0.00    +0.000 A 
ATOM     20  C   UNL     1       1.410   9.890  18.144  0.00  0.00    +0.000 A 
ATOM     21  C   UNL     1       0.927   9.967  19.460  0.00  0.00    +0.000 A 
ATOM     22  C   UNL     1       1.120   8.862  20.299  0.00  0.00    +0.000 A 
ATOM     23 BR   UNL     1       0.149   8.522  21.891  0.00  0.00    +0.000 Br
ATOM     24  C   UNL     1       1.894   7.779  19.879  0.00  0.00    +0.000 A 
BRANCH  21  25
ATOM     25  O   UNL     1       0.169  11.078  19.758  0.00  0.00    +0.000 OA
BRANCH  25  26
ATOM     26  C   UNL     1      -0.474  11.709  18.631  0.00  0.00    +0.000 C 
ATOM     27  C   UNL     1      -0.202  13.220  18.634  0.00  0.00    +0.000 C 
ATOM     28  C   UNL     1      -0.901  13.951  19.772  0.00  0.00    +0.000 C 
ATOM     29  N   UNL     1      -2.344  13.733  19.762  0.00  0.00    +0.000 NA
ATOM     30  C   UNL     1      -2.659  12.307  19.820  0.00  0.00    +0.000 C 
ATOM     31  C   UNL     1      -1.996  11.496  18.704  0.00  0.00    +0.000 C 
ATOM     32  H   UNL     1      -2.745  14.147  18.921  0.00  0.00    +0.000 HD
ENDBRANCH  25  26
ENDBRANCH  21  25
ENDBRANCH  17  18
ENDBRANCH   4  17
TORSDOF 6
ENDMDL
MODEL 8
REMARK VINA RESULT:      -7.2      3.733     11.003
REMARK  Name = 
REMARK  6 active torsions:
REMARK  status: ('A' for Active; 'I' for Inactive)
REMARK    1  A    between atoms: C_2  and  C_25
REMARK    2  A    between atoms: N_3  and  C_4
REMARK    3  A    between atoms: N_7  and  C_8
REMARK    4  A    between atoms: C_8  and  C_9
REMARK    5  A    between atoms: C_12  and  O_13
REMARK    6  A    between atoms: O_13  and  C_14
REMARK                            x       y       z     vdW  Elec       q    Type
REMARK                         _______ _______ _______ _____ _____    ______ ____
ROOT
ATOM      1  C   UNL     1      -2.138  11.794  17.717  0.00  0.00    +0.000 C 
ATOM      2  C   UNL     1      -1.700  10.373  17.392  0.00  0.00    +0.000 C 
ATOM      3  C   UNL     1      -1.240   9.641  18.646  0.00  0.00    +0.000 C 
ATOM      4  N   UNL     1      -0.194  10.356  19.401  0.00  0.00    +0.000 NA
ATOM      5  C   UNL     1      -0.499  11.773  19.642  0.00  0.00    +0.000 C 
ATOM      6  C   UNL     1      -0.973  12.518  18.389  0.00  0.00    +0.000 C 
ENDROOT
BRANCH   1   9
ATOM      7  O   UNL     1      -4.880  11.675  16.869  0.00  0.00    +0.000 OA
ATOM      8  C   UNL     1      -4.606  11.846  18.048  0.00  0.00    +0.000 C 
ATOM      9  N   UNL     1      -3.330  11.802  18.561  0.00  0.00    +0.000 N 
ATOM     10  H   UNL     1      -3.252  12.070  19.539  0.00  0.00    +0.000 HD
BRANCH   8  11
ATOM     11  C   UNL     1      -5.668  12.154  19.047  0.00  0.00    +0.000 A 
ATOM     12  C   UNL     1      -5.872  13.464  19.455  0.00  0.00    +0.000 A 
ATOM     13  N   UNL     1      -6.792  13.801  20.393  0.00  0.00    +0.000 NA
ATOM     14  C   UNL     1      -7.497  12.767  20.907  0.00  0.00    +0.000 A 
ATOM     15  C   UNL     1      -7.297  11.458  20.495  0.00  0.00    +0.000 A 
ATOM     16  N   UNL     1      -6.383  11.105  19.558  0.00  0.00    +0.000 NA
ENDBRANCH   8  11
ENDBRANCH   1   9
BRANCH   4  17
ATOM     17  C   UNL     1       0.100   9.663  20.684  0.00  0.00    +0.000 C 
BRANCH  17  18
ATOM     18  C   UNL     1       1.042   8.489  20.481  0.00  0.00    +0.000 A 
ATOM     19  C   UNL     1       0.877   7.265  21.143  0.00  0.00    +0.000 A 
ATOM     20  C   UNL     1       1.633   6.147  20.751  0.00  0.00    +0.000 A 
ATOM     21  C   UNL     1       2.517   6.214  19.662  0.00  0.00    +0.000 A 
ATOM     22  C   UNL     1       2.629   7.432  18.979  0.00  0.00    +0.000 A 
ATOM     23 BR   UNL     1       3.329   7.637  17.229  0.00  0.00    +0.000 Br
ATOM     24  C   UNL     1       1.989   8.576  19.458  0.00  0.00    +0.000 A 
BRANCH  21  25
ATOM     25  O   UNL     1       3.083   5.021  19.272  0.00  0.00    +0.000 OA
BRANCH  25  26
ATOM     26  C   UNL     1       2.727   4.569  17.948  0.00  0.00    +0.000 C 
ATOM     27  C   UNL     1       1.321   3.954  17.950  0.00  0.00    +0.000 C 
ATOM     28  C   UNL     1       1.249   2.631  18.702  0.00  0.00    +0.000 C 
ATOM     29  N   UNL     1       2.191   1.648  18.177  0.00  0.00    +0.000 NA
ATOM     30  C   UNL     1       3.559   2.164  18.210  0.00  0.00    +0.000 C 
ATOM     31  C   UNL     1       3.720   3.495  17.472  0.00  0.00    +0.000 C 
ATOM     32  H   UNL     1       1.932   1.403  17.223  0.00  0.00    +0.000 HD
ENDBRANCH  25  26
ENDBRANCH  21  25
ENDBRANCH  17  18
ENDBRANCH   4  17
TORSDOF 6
ENDMDL
MODEL 9
REMARK VINA RESULT:      -7.2      2.788     11.138
REMARK  Name = 
REMARK  6 active torsions:
REMARK  status: ('A' for Active; 'I' for Inactive)
REMARK    1  A    between atoms: C_2  and  C_25
REMARK    2  A    between atoms: N_3  and  C_4
REMARK    3  A    between atoms: N_7  and  C_8
REMARK    4  A    between atoms: C_8  and  C_9
REMARK    5  A    between atoms: C_12  and  O_13
REMARK    6  A    between atoms: O_13  and  C_14
REMARK                            x       y       z     vdW  Elec       q    Type
REMARK                         _______ _______ _______ _____ _____    ______ ____
ROOT
ATOM      1  C   UNL     1      -0.980  12.877  19.309  0.00  0.00    +0.000 C 
ATOM      2  C   UNL     1      -1.565  11.563  18.812  0.00  0.00    +0.000 C 
ATOM      3  C   UNL     1      -0.883  10.373  19.476  0.00  0.00    +0.000 C 
ATOM      4  N   UNL     1       0.585  10.381  19.342  0.00  0.00    +0.000 NA
ATOM      5  C   UNL     1       1.206  11.666  19.689  0.00  0.00    +0.000 C 
ATOM      6  C   UNL     1       0.523  12.872  19.035  0.00  0.00    +0.000 C 
ENDROOT
BRANCH   1   9
ATOM      7  O   UNL     1      -3.434  13.797  20.485  0.00  0.00    +0.000 OA
ATOM      8  C   UNL     1      -2.443  13.626  21.181  0.00  0.00    +0.000 C 
ATOM      9  N   UNL     1      -1.263  13.081  20.727  0.00  0.00    +0.000 N 
ATOM     10  H   UNL     1      -0.496  13.103  21.395  0.00  0.00    +0.000 HD
BRANCH   8  11
ATOM     11  C   UNL     1      -2.428  14.036  22.613  0.00  0.00    +0.000 A 
ATOM     12  C   UNL     1      -3.565  13.869  23.390  0.00  0.00    +0.000 A 
ATOM     13  N   UNL     1      -3.628  14.263  24.686  0.00  0.00    +0.000 NA
ATOM     14  C   UNL     1      -2.501  14.835  25.170  0.00  0.00    +0.000 A 
ATOM     15  C   UNL     1      -1.362  14.996  24.395  0.00  0.00    +0.000 A 
ATOM     16  N   UNL     1      -1.283  14.607  23.099  0.00  0.00    +0.000 NA
ENDBRANCH   8  11
ENDBRANCH   1   9
BRANCH   4  17
ATOM     17  C   UNL     1       1.195   9.280  20.136  0.00  0.00    +0.000 C 
BRANCH  17  18
ATOM     18  C   UNL     1       1.844   8.240  19.240  0.00  0.00    +0.000 A 
ATOM     19  C   UNL     1       2.537   8.576  18.070  0.00  0.00    +0.000 A 
ATOM     20  C   UNL     1       3.308   7.606  17.406  0.00  0.00    +0.000 A 
ATOM     21  C   UNL     1       3.448   6.309  17.926  0.00  0.00    +0.000 A 
ATOM     22  C   UNL     1       2.790   6.006  19.125  0.00  0.00    +0.000 A 
ATOM     23 BR   UNL     1       3.218   4.551  20.263  0.00  0.00    +0.000 Br
ATOM     24  C   UNL     1       1.911   6.923  19.704  0.00  0.00    +0.000 A 
BRANCH  21  25
ATOM     25  O   UNL     1       4.350   5.495  17.278  0.00  0.00    +0.000 OA
BRANCH  25  26
ATOM     26  C   UNL     1       5.478   6.170  16.684  0.00  0.00    +0.000 C 
ATOM     27  C   UNL     1       5.950   5.426  15.427  0.00  0.00    +0.000 C 
ATOM     28  C   UNL     1       6.588   4.078  15.734  0.00  0.00    +0.000 C 
ATOM     29  N   UNL     1       7.712   4.199  16.658  0.00  0.00    +0.000 NA
ATOM     30  C   UNL     1       7.301   4.850  17.901  0.00  0.00    +0.000 C 
ATOM     31  C   UNL     1       6.649   6.217  17.680  0.00  0.00    +0.000 C 
ATOM     32  H   UNL     1       8.461   4.731  16.215  0.00  0.00    +0.000 HD
ENDBRANCH  25  26
ENDBRANCH  21  25
ENDBRANCH  17  18
ENDBRANCH   4  17
TORSDOF 6
ENDMDL
