MODEL 1
REMARK VINA RESULT:      -8.6      0.000      0.000
REMARK  Name = 
REMARK  3 active torsions:
REMARK  status: ('A' for Active; 'I' for Inactive)
REMARK    1  A    between atoms: C_1  and  C_2
REMARK    2  A    between atoms: C_2  and  C_3
REMARK    3  A    between atoms: C_3  and  O_4
REMARK                            x       y       z     vdW  Elec       q    Type
REMARK                         _______ _______ _______ _____ _____    ______ ____
ROOT
ATOM      1  C   UNL     1       5.241   5.922  16.624  0.00  0.00    +0.000 C 
ATOM      2  C   UNL     1       4.820   4.456  16.312  0.00  0.00    +0.000 C 
ATOM      3  O   UNL     1       4.753   3.992  15.178  0.00  0.00    +0.000 OA
ATOM      4  O   UNL     1       4.776   3.655  17.406  0.00  0.00    +0.000 OA
ATOM      5  C   UNL     1       3.879   4.081  18.422  0.00  0.00    +0.000 C 
ATOM      6  C   UNL     1       3.757   5.562  18.568  0.00  0.00    +0.000 A 
ATOM      7  C   UNL     1       4.257   6.488  17.724  0.00  0.00    +0.000 A 
ATOM      8  C   UNL     1       3.496   7.848  17.741  0.00  0.00    +0.000 A 
ATOM      9  C   UNL     1       2.545   8.148  18.690  0.00  0.00    +0.000 A 
ATOM     10  N   UNL     1       2.368   7.178  19.681  0.00  0.00    +0.000 N 
ATOM     11  C   UNL     1       2.898   5.927  19.701  0.00  0.00    +0.000 A 
ATOM     12  O   UNL     1       2.660   5.122  20.596  0.00  0.00    +0.000 OA
ATOM     13  C   UNL     1       1.484   7.555  20.756  0.00  0.00    +0.000 C 
ATOM     14  C   UNL     1       1.006   8.880  20.340  0.00  0.00    +0.000 A 
ATOM     15  C   UNL     1       0.095   9.640  21.054  0.00  0.00    +0.000 A 
ATOM     16  C   UNL     1      -0.382  10.822  20.519  0.00  0.00    +0.000 A 
ATOM     17  C   UNL     1      -1.304  11.638  21.248  0.00  0.00    +0.000 A 
ATOM     18 CL   UNL     1      -1.793  11.269  22.877  0.00  0.00    +0.000 Cl
ATOM     19  C   UNL     1      -1.868  12.774  20.691  0.00  0.00    +0.000 A 
ATOM     20  C   UNL     1      -1.517  13.101  19.396  0.00  0.00    +0.000 A 
ATOM     21  C   UNL     1      -0.565  12.311  18.691  0.00  0.00    +0.000 A 
ATOM     22  C   UNL     1       0.061  11.152  19.205  0.00  0.00    +0.000 A 
ATOM     23  N   UNL     1       1.047  10.390  18.507  0.00  0.00    +0.000 NA
ATOM     24  C   UNL     1       1.521   9.275  19.107  0.00  0.00    +0.000 A 
ENDROOT
BRANCH   1  26
ATOM     25  C   UNL     1       7.638   6.304  17.955  0.00  0.00    +0.000 C 
ATOM     26  C   UNL     1       6.834   5.770  16.751  0.00  0.00    +0.000 C 
ENDBRANCH   1  26
BRANCH   1  27
ATOM     27  O   UNL     1       5.056   6.728  15.448  0.00  0.00    +0.000 OA
ATOM     28  H   UNL     1       5.147   7.658  15.739  0.00  0.00    +0.000 HD
ENDBRANCH   1  27
TORSDOF 2
ENDMDL
MODEL 2
REMARK VINA RESULT:      -8.5      1.932      3.688
REMARK  Name = 
REMARK  3 active torsions:
REMARK  status: ('A' for Active; 'I' for Inactive)
REMARK    1  A    between atoms: C_1  and  C_2
REMARK    2  A    between atoms: C_2  and  C_3
REMARK    3  A    between atoms: C_3  and  O_4
REMARK                            x       y       z     vdW  Elec       q    Type
REMARK                         _______ _______ _______ _____ _____    ______ ____
ROOT
ATOM      1  C   UNL     1       2.910   3.398  19.895  0.00  0.00    +0.000 C 
ATOM      2  C   UNL     1       4.446   3.225  19.704  0.00  0.00    +0.000 C 
ATOM      3  O   UNL     1       5.163   2.598  20.477  0.00  0.00    +0.000 OA
ATOM      4  O   UNL     1       4.892   3.607  18.481  0.00  0.00    +0.000 OA
ATOM      5  C   UNL     1       4.636   4.965  18.151  0.00  0.00    +0.000 C 
ATOM      6  C   UNL     1       3.354   5.509  18.690  0.00  0.00    +0.000 A 
ATOM      7  C   UNL     1       2.548   4.905  19.586  0.00  0.00    +0.000 A 
ATOM      8  C   UNL     1       1.670   5.885  20.421  0.00  0.00    +0.000 A 
ATOM      9  C   UNL     1       1.564   7.223  20.114  0.00  0.00    +0.000 A 
ATOM     10  N   UNL     1       2.238   7.621  18.956  0.00  0.00    +0.000 N 
ATOM     11  C   UNL     1       3.107   6.880  18.223  0.00  0.00    +0.000 A 
ATOM     12  O   UNL     1       3.687   7.322  17.236  0.00  0.00    +0.000 OA
ATOM     13  C   UNL     1       2.006   8.986  18.552  0.00  0.00    +0.000 C 
ATOM     14  C   UNL     1       1.148   9.506  19.625  0.00  0.00    +0.000 A 
ATOM     15  C   UNL     1       0.682  10.809  19.689  0.00  0.00    +0.000 A 
ATOM     16  C   UNL     1      -0.020  11.233  20.802  0.00  0.00    +0.000 A 
ATOM     17  C   UNL     1      -0.534  12.566  20.881  0.00  0.00    +0.000 A 
ATOM     18 CL   UNL     1      -0.416  13.693  19.560  0.00  0.00    +0.000 Cl
ATOM     19  C   UNL     1      -1.154  13.040  22.025  0.00  0.00    +0.000 A 
ATOM     20  C   UNL     1      -1.263  12.184  23.103  0.00  0.00    +0.000 A 
ATOM     21  C   UNL     1      -0.790  10.845  23.004  0.00  0.00    +0.000 A 
ATOM     22  C   UNL     1      -0.163  10.291  21.862  0.00  0.00    +0.000 A 
ATOM     23  N   UNL     1       0.269   8.935  21.756  0.00  0.00    +0.000 NA
ATOM     24  C   UNL     1       0.898   8.563  20.619  0.00  0.00    +0.000 A 
ENDROOT
BRANCH   1  26
ATOM     25  C   UNL     1       0.917   2.008  18.569  0.00  0.00    +0.000 C 
ATOM     26  C   UNL     1       2.351   2.102  19.131  0.00  0.00    +0.000 C 
ENDBRANCH   1  26
BRANCH   1  27
ATOM     27  O   UNL     1       2.576   3.166  21.274  0.00  0.00    +0.000 OA
ATOM     28  H   UNL     1       2.010   3.917  21.546  0.00  0.00    +0.000 HD
ENDBRANCH   1  27
TORSDOF 2
ENDMDL
MODEL 3
REMARK VINA RESULT:      -8.2      4.208      8.832
REMARK  Name = 
REMARK  3 active torsions:
REMARK  status: ('A' for Active; 'I' for Inactive)
REMARK    1  A    between atoms: C_1  and  C_2
REMARK    2  A    between atoms: C_2  and  C_3
REMARK    3  A    between atoms: C_3  and  O_4
REMARK                            x       y       z     vdW  Elec       q    Type
REMARK                         _______ _______ _______ _____ _____    ______ ____
ROOT
ATOM      1  C   UNL     1      -1.670  12.112  22.518  0.00  0.00    +0.000 C 
ATOM      2  C   UNL     1      -3.018  12.519  21.852  0.00  0.00    +0.000 C 
ATOM      3  O   UNL     1      -4.118  12.302  22.350  0.00  0.00    +0.000 OA
ATOM      4  O   UNL     1      -2.874  13.358  20.795  0.00  0.00    +0.000 OA
ATOM      5  C   UNL     1      -2.083  12.848  19.731  0.00  0.00    +0.000 C 
ATOM      6  C   UNL     1      -0.951  11.973  20.157  0.00  0.00    +0.000 A 
ATOM      7  C   UNL     1      -0.742  11.490  21.399  0.00  0.00    +0.000 A 
ATOM      8  C   UNL     1       0.082  10.169  21.443  0.00  0.00    +0.000 A 
ATOM      9  C   UNL     1       0.727   9.666  20.336  0.00  0.00    +0.000 A 
ATOM     10  N   UNL     1       0.652  10.465  19.191  0.00  0.00    +0.000 N 
ATOM     11  C   UNL     1      -0.118  11.570  19.017  0.00  0.00    +0.000 A 
ATOM     12  O   UNL     1      -0.151  12.194  17.961  0.00  0.00    +0.000 OA
ATOM     13  C   UNL     1       1.450  10.014  18.077  0.00  0.00    +0.000 C 
ATOM     14  C   UNL     1       2.022   8.755  18.570  0.00  0.00    +0.000 A 
ATOM     15  C   UNL     1       2.848   7.929  17.825  0.00  0.00    +0.000 A 
ATOM     16  C   UNL     1       3.239   6.706  18.338  0.00  0.00    +0.000 A 
ATOM     17  C   UNL     1       4.113   5.847  17.599  0.00  0.00    +0.000 A 
ATOM     18 CL   UNL     1       4.827   6.319  16.084  0.00  0.00    +0.000 Cl
ATOM     19  C   UNL     1       4.437   4.578  18.050  0.00  0.00    +0.000 A 
ATOM     20  C   UNL     1       3.886   4.156  19.243  0.00  0.00    +0.000 A 
ATOM     21  C   UNL     1       3.053   5.031  19.996  0.00  0.00    +0.000 A 
ATOM     22  C   UNL     1       2.696   6.343  19.604  0.00  0.00    +0.000 A 
ATOM     23  N   UNL     1       1.895   7.229  20.386  0.00  0.00    +0.000 NA
ATOM     24  C   UNL     1       1.594   8.437  19.857  0.00  0.00    +0.000 A 
ENDROOT
BRANCH   1  26
ATOM     25  C   UNL     1      -0.511  14.596  22.905  0.00  0.00    +0.000 C 
ATOM     26  C   UNL     1      -1.358  13.409  23.410  0.00  0.00    +0.000 C 
ENDBRANCH   1  26
BRANCH   1  27
ATOM     27  O   UNL     1      -1.914  11.071  23.479  0.00  0.00    +0.000 OA
ATOM     28  H   UNL     1      -2.374  10.357  22.995  0.00  0.00    +0.000 HD
ENDBRANCH   1  27
TORSDOF 2
ENDMDL
MODEL 4
REMARK VINA RESULT:      -8.1      3.959      8.187
REMARK  Name = 
REMARK  3 active torsions:
REMARK  status: ('A' for Active; 'I' for Inactive)
REMARK    1  A    between atoms: C_1  and  C_2
REMARK    2  A    between atoms: C_2  and  C_3
REMARK    3  A    between atoms: C_3  and  O_4
REMARK                            x       y       z     vdW  Elec       q    Type
REMARK                         _______ _______ _______ _____ _____    ______ ____
ROOT
ATOM      1  C   UNL     1      -1.218  12.164  19.026  0.00  0.00    +0.000 C 
ATOM      2  C   UNL     1      -1.020  13.138  20.224  0.00  0.00    +0.000 C 
ATOM      3  O   UNL     1      -0.771  14.333  20.099  0.00  0.00    +0.000 OA
ATOM      4  O   UNL     1      -1.395  12.617  21.420  0.00  0.00    +0.000 OA
ATOM      5  C   UNL     1      -0.706  11.434  21.797  0.00  0.00    +0.000 C 
ATOM      6  C   UNL     1      -0.343  10.533  20.663  0.00  0.00    +0.000 A 
ATOM      7  C   UNL     1      -0.439  10.828  19.351  0.00  0.00    +0.000 A 
ATOM      8  C   UNL     1       0.540  10.027  18.440  0.00  0.00    +0.000 A 
ATOM      9  C   UNL     1       1.271   8.958  18.907  0.00  0.00    +0.000 A 
ATOM     10  N   UNL     1       1.016   8.598  20.233  0.00  0.00    +0.000 N 
ATOM     11  C   UNL     1       0.270   9.285  21.136  0.00  0.00    +0.000 A 
ATOM     12  O   UNL     1       0.127   8.914  22.297  0.00  0.00    +0.000 OA
ATOM     13  C   UNL     1       1.670   7.391  20.676  0.00  0.00    +0.000 C 
ATOM     14  C   UNL     1       2.477   7.007  19.510  0.00  0.00    +0.000 A 
ATOM     15  C   UNL     1       3.317   5.906  19.471  0.00  0.00    +0.000 A 
ATOM     16  C   UNL     1       4.125   5.697  18.369  0.00  0.00    +0.000 A 
ATOM     17  C   UNL     1       4.981   4.553  18.293  0.00  0.00    +0.000 A 
ATOM     18 CL   UNL     1       4.983   3.305  19.506  0.00  0.00    +0.000 Cl
ATOM     19  C   UNL     1       5.868   4.378  17.244  0.00  0.00    +0.000 A 
ATOM     20  C   UNL     1       5.909   5.347  16.262  0.00  0.00    +0.000 A 
ATOM     21  C   UNL     1       5.023   6.461  16.319  0.00  0.00    +0.000 A 
ATOM     22  C   UNL     1       4.082   6.693  17.350  0.00  0.00    +0.000 A 
ATOM     23  N   UNL     1       3.168   7.789  17.377  0.00  0.00    +0.000 NA
ATOM     24  C   UNL     1       2.360   7.908  18.455  0.00  0.00    +0.000 A 
ENDROOT
BRANCH   1  26
ATOM     25  C   UNL     1      -3.585  11.365  17.833  0.00  0.00    +0.000 C 
ATOM     26  C   UNL     1      -2.794  12.314  18.757  0.00  0.00    +0.000 C 
ENDBRANCH   1  26
BRANCH   1  27
ATOM     27  O   UNL     1      -0.605  12.726  17.854  0.00  0.00    +0.000 OA
ATOM     28  H   UNL     1      -0.812  13.682  17.871  0.00  0.00    +0.000 HD
ENDBRANCH   1  27
TORSDOF 2
ENDMDL
MODEL 5
REMARK VINA RESULT:      -7.9      1.711      3.314
REMARK  Name = 
REMARK  3 active torsions:
REMARK  status: ('A' for Active; 'I' for Inactive)
REMARK    1  A    between atoms: C_1  and  C_2
REMARK    2  A    between atoms: C_2  and  C_3
REMARK    3  A    between atoms: C_3  and  O_4
REMARK                            x       y       z     vdW  Elec       q    Type
REMARK                         _______ _______ _______ _____ _____    ______ ____
ROOT
ATOM      1  C   UNL     1       3.532   4.265  18.996  0.00  0.00    +0.000 C 
ATOM      2  C   UNL     1       5.046   4.387  18.653  0.00  0.00    +0.000 C 
ATOM      3  O   UNL     1       5.937   3.837  19.292  0.00  0.00    +0.000 OA
ATOM      4  O   UNL     1       5.289   4.944  17.439  0.00  0.00    +0.000 OA
ATOM      5  C   UNL     1       4.772   6.257  17.272  0.00  0.00    +0.000 C 
ATOM      6  C   UNL     1       3.480   6.515  17.974  0.00  0.00    +0.000 A 
ATOM      7  C   UNL     1       2.888   5.703  18.874  0.00  0.00    +0.000 A 
ATOM      8  C   UNL     1       1.948   6.436  19.878  0.00  0.00    +0.000 A 
ATOM      9  C   UNL     1       1.583   7.754  19.717  0.00  0.00    +0.000 A 
ATOM     10  N   UNL     1       2.054   8.362  18.550  0.00  0.00    +0.000 N 
ATOM     11  C   UNL     1       2.956   7.853  17.671  0.00  0.00    +0.000 A 
ATOM     12  O   UNL     1       3.345   8.473  16.687  0.00  0.00    +0.000 OA
ATOM     13  C   UNL     1       1.551   9.692  18.308  0.00  0.00    +0.000 C 
ATOM     14  C   UNL     1       0.735   9.958  19.500  0.00  0.00    +0.000 A 
ATOM     15  C   UNL     1       0.064  11.146  19.736  0.00  0.00    +0.000 A 
ATOM     16  C   UNL     1      -0.580  11.343  20.943  0.00  0.00    +0.000 A 
ATOM     17  C   UNL     1      -1.303  12.551  21.201  0.00  0.00    +0.000 A 
ATOM     18 CL   UNL     1      -1.518  13.787  19.995  0.00  0.00    +0.000 Cl
ATOM     19  C   UNL     1      -1.871  12.808  22.438  0.00  0.00    +0.000 A 
ATOM     20  C   UNL     1      -1.718  11.860  23.429  0.00  0.00    +0.000 A 
ATOM     21  C   UNL     1      -1.037  10.640  23.154  0.00  0.00    +0.000 A 
ATOM     22  C   UNL     1      -0.448  10.306  21.912  0.00  0.00    +0.000 A 
ATOM     23  N   UNL     1       0.195   9.063  21.631  0.00  0.00    +0.000 NA
ATOM     24  C   UNL     1       0.756   8.906  20.411  0.00  0.00    +0.000 A 
ENDROOT
BRANCH   1  26
ATOM     25  C   UNL     1       3.479   1.525  18.604  0.00  0.00    +0.000 C 
ATOM     26  C   UNL     1       3.125   2.958  18.157  0.00  0.00    +0.000 C 
ENDBRANCH   1  26
BRANCH   1  27
ATOM     27  O   UNL     1       3.389   3.862  20.368  0.00  0.00    +0.000 OA
ATOM     28  H   UNL     1       4.012   3.119  20.499  0.00  0.00    +0.000 HD
ENDBRANCH   1  27
TORSDOF 2
ENDMDL
MODEL 6
REMARK VINA RESULT:      -7.8      3.844      8.079
REMARK  Name = 
REMARK  3 active torsions:
REMARK  status: ('A' for Active; 'I' for Inactive)
REMARK    1  A    between atoms: C_1  and  C_2
REMARK    2  A    between atoms: C_2  and  C_3
REMARK    3  A    between atoms: C_3  and  O_4
REMARK                            x       y       z     vdW  Elec       q    Type
REMARK                         _______ _______ _______ _____ _____    ______ ____
ROOT
ATOM      1  C   UNL     1       0.648  12.371  18.932  0.00  0.00    +0.000 C 
ATOM      2  C   UNL     1       0.920  13.013  20.324  0.00  0.00    +0.000 C 
ATOM      3  O   UNL     1       1.474  14.097  20.480  0.00  0.00    +0.000 OA
ATOM      4  O   UNL     1       0.271  12.400  21.346  0.00  0.00    +0.000 OA
ATOM      5  C   UNL     1       0.586  11.024  21.512  0.00  0.00    +0.000 C 
ATOM      6  C   UNL     1       0.861  10.287  20.244  0.00  0.00    +0.000 A 
ATOM      7  C   UNL     1       1.018  10.837  19.022  0.00  0.00    +0.000 A 
ATOM      8  C   UNL     1       1.879   9.986  18.041  0.00  0.00    +0.000 A 
ATOM      9  C   UNL     1       2.252   8.691  18.324  0.00  0.00    +0.000 A 
ATOM     10  N   UNL     1       1.740   8.172  19.516  0.00  0.00    +0.000 N 
ATOM     11  C   UNL     1       1.075   8.854  20.483  0.00  0.00    +0.000 A 
ATOM     12  O   UNL     1       0.690   8.326  21.522  0.00  0.00    +0.000 OA
ATOM     13  C   UNL     1       2.008   6.772  19.738  0.00  0.00    +0.000 C 
ATOM     14  C   UNL     1       2.841   6.408  18.586  0.00  0.00    +0.000 A 
ATOM     15  C   UNL     1       3.377   5.148  18.377  0.00  0.00    +0.000 A 
ATOM     16  C   UNL     1       4.248   4.938  17.324  0.00  0.00    +0.000 A 
ATOM     17  C   UNL     1       4.794   3.640  17.072  0.00  0.00    +0.000 A 
ATOM     18 CL   UNL     1       4.323   2.234  17.983  0.00  0.00    +0.000 Cl
ATOM     19  C   UNL     1       5.742   3.429  16.084  0.00  0.00    +0.000 A 
ATOM     20  C   UNL     1       6.154   4.517  15.341  0.00  0.00    +0.000 A 
ATOM     21  C   UNL     1       5.574   5.798  15.566  0.00  0.00    +0.000 A 
ATOM     22  C   UNL     1       4.592   6.080  16.544  0.00  0.00    +0.000 A 
ATOM     23  N   UNL     1       3.985   7.358  16.734  0.00  0.00    +0.000 NA
ATOM     24  C   UNL     1       3.096   7.488  17.744  0.00  0.00    +0.000 A 
ENDROOT
BRANCH   1  26
ATOM     25  C   UNL     1      -2.054  12.128  18.383  0.00  0.00    +0.000 C 
ATOM     26  C   UNL     1      -0.790  12.991  18.577  0.00  0.00    +0.000 C 
ENDBRANCH   1  26
BRANCH   1  27
ATOM     27  O   UNL     1       1.534  12.955  17.961  0.00  0.00    +0.000 OA
ATOM     28  H   UNL     1       2.422  12.592  18.152  0.00  0.00    +0.000 HD
ENDBRANCH   1  27
TORSDOF 2
ENDMDL
MODEL 7
REMARK VINA RESULT:      -7.7      1.666      3.211
REMARK  Name = 
REMARK  3 active torsions:
REMARK  status: ('A' for Active; 'I' for Inactive)
REMARK    1  A    between atoms: C_1  and  C_2
REMARK    2  A    between atoms: C_2  and  C_3
REMARK    3  A    between atoms: C_3  and  O_4
REMARK                            x       y       z     vdW  Elec       q    Type
REMARK                         _______ _______ _______ _____ _____    ______ ____
ROOT
ATOM      1  C   UNL     1       4.897   4.184  18.644  0.00  0.00    +0.000 C 
ATOM      2  C   UNL     1       6.296   4.568  18.079  0.00  0.00    +0.000 C 
ATOM      3  O   UNL     1       7.357   4.261  18.613  0.00  0.00    +0.000 OA
ATOM      4  O   UNL     1       6.259   5.053  16.812  0.00  0.00    +0.000 OA
ATOM      5  C   UNL     1       5.466   6.220  16.643  0.00  0.00    +0.000 C 
ATOM      6  C   UNL     1       4.252   6.282  17.509  0.00  0.00    +0.000 A 
ATOM      7  C   UNL     1       3.961   5.452  18.532  0.00  0.00    +0.000 A 
ATOM      8  C   UNL     1       3.030   6.073  19.616  0.00  0.00    +0.000 A 
ATOM      9  C   UNL     1       2.385   7.275  19.432  0.00  0.00    +0.000 A 
ATOM     10  N   UNL     1       2.564   7.859  18.175  0.00  0.00    +0.000 N 
ATOM     11  C   UNL     1       3.429   7.460  17.206  0.00  0.00    +0.000 A 
ATOM     12  O   UNL     1       3.550   8.056  16.141  0.00  0.00    +0.000 OA
ATOM     13  C   UNL     1       1.772   9.039  17.930  0.00  0.00    +0.000 C 
ATOM     14  C   UNL     1       1.081   9.244  19.210  0.00  0.00    +0.000 A 
ATOM     15  C   UNL     1       0.216  10.294  19.469  0.00  0.00    +0.000 A 
ATOM     16  C   UNL     1      -0.291  10.466  20.744  0.00  0.00    +0.000 A 
ATOM     17  C   UNL     1      -1.207  11.528  21.032  0.00  0.00    +0.000 A 
ATOM     18 CL   UNL     1      -1.826  12.587  19.798  0.00  0.00    +0.000 Cl
ATOM     19  C   UNL     1      -1.649  11.777  22.320  0.00  0.00    +0.000 A 
ATOM     20  C   UNL     1      -1.177  10.967  23.334  0.00  0.00    +0.000 A 
ATOM     21  C   UNL     1      -0.301   9.885  23.036  0.00  0.00    +0.000 A 
ATOM     22  C   UNL     1       0.176   9.563  21.743  0.00  0.00    +0.000 A 
ATOM     23  N   UNL     1       1.019   8.450  21.447  0.00  0.00    +0.000 NA
ATOM     24  C   UNL     1       1.436   8.299  20.170  0.00  0.00    +0.000 A 
ENDROOT
BRANCH   1  26
ATOM     25  C   UNL     1       3.280   2.073  17.877  0.00  0.00    +0.000 C 
ATOM     26  C   UNL     1       4.661   2.754  17.953  0.00  0.00    +0.000 C 
ENDBRANCH   1  26
BRANCH   1  27
ATOM     27  O   UNL     1       5.021   3.883  20.045  0.00  0.00    +0.000 OA
ATOM     28  H   UNL     1       4.693   2.968  20.156  0.00  0.00    +0.000 HD
ENDBRANCH   1  27
TORSDOF 2
ENDMDL
MODEL 8
REMARK VINA RESULT:      -7.6      4.049      8.551
REMARK  Name = 
REMARK  3 active torsions:
REMARK  status: ('A' for Active; 'I' for Inactive)
REMARK    1  A    between atoms: C_1  and  C_2
REMARK    2  A    between atoms: C_2  and  C_3
REMARK    3  A    between atoms: C_3  and  O_4
REMARK                            x       y       z     vdW  Elec       q    Type
REMARK                         _______ _______ _______ _____ _____    ______ ____
ROOT
ATOM      1  C   UNL     1      -0.848  11.911  21.515  0.00  0.00    +0.000 C 
ATOM      2  C   UNL     1      -1.878  12.464  20.487  0.00  0.00    +0.000 C 
ATOM      3  O   UNL     1      -3.072  12.610  20.729  0.00  0.00    +0.000 OA
ATOM      4  O   UNL     1      -1.310  13.013  19.384  0.00  0.00    +0.000 OA
ATOM      5  C   UNL     1      -0.490  12.128  18.633  0.00  0.00    +0.000 C 
ATOM      6  C   UNL     1       0.260  11.127  19.449  0.00  0.00    +0.000 A 
ATOM      7  C   UNL     1       0.083  10.878  20.762  0.00  0.00    +0.000 A 
ATOM      8  C   UNL     1       0.499   9.443  21.204  0.00  0.00    +0.000 A 
ATOM      9  C   UNL     1       1.192   8.589  20.376  0.00  0.00    +0.000 A 
ATOM     10  N   UNL     1       1.561   9.130  19.141  0.00  0.00    +0.000 N 
ATOM     11  C   UNL     1       1.164  10.319  18.620  0.00  0.00    +0.000 A 
ATOM     12  O   UNL     1       1.508  10.703  17.506  0.00  0.00    +0.000 OA
ATOM     13  C   UNL     1       2.414   8.290  18.336  0.00  0.00    +0.000 C 
ATOM     14  C   UNL     1       2.520   7.064  19.137  0.00  0.00    +0.000 A 
ATOM     15  C   UNL     1       3.226   5.937  18.749  0.00  0.00    +0.000 A 
ATOM     16  C   UNL     1       3.167   4.790  19.519  0.00  0.00    +0.000 A 
ATOM     17  C   UNL     1       3.908   3.622  19.153  0.00  0.00    +0.000 A 
ATOM     18 CL   UNL     1       5.008   3.597  17.804  0.00  0.00    +0.000 Cl
ATOM     19  C   UNL     1       3.786   2.435  19.855  0.00  0.00    +0.000 A 
ATOM     20  C   UNL     1       2.918   2.404  20.928  0.00  0.00    +0.000 A 
ATOM     21  C   UNL     1       2.216   3.581  21.314  0.00  0.00    +0.000 A 
ATOM     22  C   UNL     1       2.307   4.830  20.655  0.00  0.00    +0.000 A 
ATOM     23  N   UNL     1       1.634   6.016  21.075  0.00  0.00    +0.000 NA
ATOM     24  C   UNL     1       1.777   7.124  20.314  0.00  0.00    +0.000 A 
ENDROOT
BRANCH   1  26
ATOM     25  C   UNL     1      -1.202  13.933  23.371  0.00  0.00    +0.000 C 
ATOM     26  C   UNL     1      -0.383  13.259  22.251  0.00  0.00    +0.000 C 
ENDBRANCH   1  26
BRANCH   1  27
ATOM     27  O   UNL     1      -1.545  11.174  22.533  0.00  0.00    +0.000 OA
ATOM     28  H   UNL     1      -2.452  11.541  22.561  0.00  0.00    +0.000 HD
ENDBRANCH   1  27
TORSDOF 2
ENDMDL
MODEL 9
REMARK VINA RESULT:      -7.5      4.084      7.854
REMARK  Name = 
REMARK  3 active torsions:
REMARK  status: ('A' for Active; 'I' for Inactive)
REMARK    1  A    between atoms: C_1  and  C_2
REMARK    2  A    between atoms: C_2  and  C_3
REMARK    3  A    between atoms: C_3  and  O_4
REMARK                            x       y       z     vdW  Elec       q    Type
REMARK                         _______ _______ _______ _____ _____    ______ ____
ROOT
ATOM      1  C   UNL     1       1.206  13.030  18.580  0.00  0.00    +0.000 C 
ATOM      2  C   UNL     1       1.846  13.983  19.632  0.00  0.00    +0.000 C 
ATOM      3  O   UNL     1       2.691  14.830  19.361  0.00  0.00    +0.000 OA
ATOM      4  O   UNL     1       1.212  13.978  20.832  0.00  0.00    +0.000 OA
ATOM      5  C   UNL     1       1.161  12.711  21.473  0.00  0.00    +0.000 C 
ATOM      6  C   UNL     1       1.032  11.546  20.549  0.00  0.00    +0.000 A 
ATOM      7  C   UNL     1       1.151  11.580  19.206  0.00  0.00    +0.000 A 
ATOM      8  C   UNL     1       1.592  10.228  18.567  0.00  0.00    +0.000 A 
ATOM      9  C   UNL     1       1.634   9.054  19.285  0.00  0.00    +0.000 A 
ATOM     10  N   UNL     1       1.182   9.148  20.604  0.00  0.00    +0.000 N 
ATOM     11  C   UNL     1       0.879  10.284  21.283  0.00  0.00    +0.000 A 
ATOM     12  O   UNL     1       0.523  10.278  22.458  0.00  0.00    +0.000 OA
ATOM     13  C   UNL     1       1.086   7.893  21.308  0.00  0.00    +0.000 C 
ATOM     14  C   UNL     1       1.608   6.927  20.333  0.00  0.00    +0.000 A 
ATOM     15  C   UNL     1       1.742   5.569  20.575  0.00  0.00    +0.000 A 
ATOM     16  C   UNL     1       2.356   4.762  19.635  0.00  0.00    +0.000 A 
ATOM     17  C   UNL     1       2.483   3.353  19.850  0.00  0.00    +0.000 A 
ATOM     18 CL   UNL     1       1.786   2.551  21.227  0.00  0.00    +0.000 Cl
ATOM     19  C   UNL     1       3.180   2.544  18.968  0.00  0.00    +0.000 A 
ATOM     20  C   UNL     1       3.759   3.138  17.864  0.00  0.00    +0.000 A 
ATOM     21  C   UNL     1       3.592   4.532  17.632  0.00  0.00    +0.000 A 
ATOM     22  C   UNL     1       2.880   5.413  18.480  0.00  0.00    +0.000 A 
ATOM     23  N   UNL     1       2.681   6.802  18.218  0.00  0.00    +0.000 NA
ATOM     24  C   UNL     1       2.021   7.529  19.147  0.00  0.00    +0.000 A 
ENDROOT
BRANCH   1  26
ATOM     25  C   UNL     1      -0.308  15.348  18.565  0.00  0.00    +0.000 C 
ATOM     26  C   UNL     1      -0.044  13.907  18.083  0.00  0.00    +0.000 C 
ENDBRANCH   1  26
BRANCH   1  27
ATOM     27  O   UNL     1       2.063  12.953  17.429  0.00  0.00    +0.000 OA
ATOM     28  H   UNL     1       2.609  13.765  17.442  0.00  0.00    +0.000 HD
ENDBRANCH   1  27
TORSDOF 2
ENDMDL
