MODEL 1
REMARK VINA RESULT:      -8.0      0.000      0.000
REMARK  Name = 
REMARK  5 active torsions:
REMARK  status: ('A' for Active; 'I' for Inactive)
REMARK    1  A    between atoms: C_1  and  N_2
REMARK    2  A    between atoms: N_5  and  C_6
REMARK    3  A    between atoms: C_12  and  C_13
REMARK    4  A    between atoms: C_16  and  N_17
REMARK    5  A    between atoms: N_17  and  C_18
REMARK                            x       y       z     vdW  Elec       q    Type
REMARK                         _______ _______ _______ _____ _____    ______ ____
ROOT
ATOM      1  C   UNL     1       1.630   8.169  19.766  0.00  0.00    +0.000 A 
ATOM      2  C   UNL     1       0.930   7.764  20.890  0.00  0.00    +0.000 A 
ATOM      3  C   UNL     1       0.946   6.422  21.289  0.00  0.00    +0.000 A 
ATOM      4  C   UNL     1       1.713   5.468  20.637  0.00  0.00    +0.000 A 
ATOM      5  N   UNL     1       1.655   4.218  21.107  0.00  0.00    +0.000 NA
ATOM      6  C   UNL     1       2.398   3.272  20.491  0.00  0.00    +0.000 A 
ATOM      7  C   UNL     1       3.270   3.510  19.440  0.00  0.00    +0.000 A 
ATOM      8  C   UNL     1       3.384   4.839  18.972  0.00  0.00    +0.000 A 
ATOM      9  C   UNL     1       2.503   5.841  19.531  0.00  0.00    +0.000 A 
ATOM     10  C   UNL     1       2.354   7.185  19.076  0.00  0.00    +0.000 A 
ENDROOT
BRANCH   1  15
ATOM     11  C   UNL     1       2.497  13.494  18.220  0.00  0.00    +0.000 C 
ATOM     12  N   UNL     1       1.797  12.213  18.315  0.00  0.00    +0.000 NA
ATOM     13  C   UNL     1       1.469  11.908  19.728  0.00  0.00    +0.000 C 
ATOM     14  C   UNL     1       0.819  10.513  19.909  0.00  0.00    +0.000 C 
ATOM     15  N   UNL     1       1.717   9.488  19.349  0.00  0.00    +0.000 N 
ATOM     16  C   UNL     1       2.002   9.724  17.919  0.00  0.00    +0.000 C 
ATOM     17  C   UNL     1       2.635  11.127  17.752  0.00  0.00    +0.000 C 
ENDBRANCH   1  15
BRANCH   7  18
ATOM     18  C   UNL     1       3.988   2.311  18.925  0.00  0.00    +0.000 C 
ATOM     19  N   UNL     1       4.954   1.730  19.696  0.00  0.00    +0.000 N 
ATOM     20  O   UNL     1       3.726   1.832  17.827  0.00  0.00    +0.000 OA
ATOM     21  H   UNL     1       5.008   1.921  20.689  0.00  0.00    +0.000 HD
ATOM     22  H   UNL     1       5.341   0.860  19.353  0.00  0.00    +0.000 HD
ENDBRANCH   7  18
BRANCH   8  23
ATOM     23  N   UNL     1       4.311   5.130  17.916  0.00  0.00    +0.000 N 
ATOM     24  H   UNL     1       3.795   5.480  17.102  0.00  0.00    +0.000 HD
BRANCH  23  25
ATOM     25  C   UNL     1       5.584   5.754  17.994  0.00  0.00    +0.000 A 
ATOM     26  C   UNL     1       6.565   5.361  18.914  0.00  0.00    +0.000 A 
ATOM     27  C   UNL     1       7.715   6.139  19.090  0.00  0.00    +0.000 A 
ATOM     28  C   UNL     1       7.920   7.257  18.289  0.00  0.00    +0.000 A 
ATOM     29  F   UNL     1       8.992   8.031  18.500  0.00  0.00    +0.000 F 
ATOM     30  C   UNL     1       7.025   7.592  17.285  0.00  0.00    +0.000 A 
ATOM     31  C   UNL     1       5.873   6.830  17.138  0.00  0.00    +0.000 A 
ATOM     32  F   UNL     1       4.979   7.174  16.197  0.00  0.00    +0.000 F 
ENDBRANCH  23  25
ENDBRANCH   8  23
TORSDOF 4
ENDMDL
MODEL 2
REMARK VINA RESULT:      -7.8      5.136      9.015
REMARK  Name = 
REMARK  5 active torsions:
REMARK  status: ('A' for Active; 'I' for Inactive)
REMARK    1  A    between atoms: C_1  and  N_2
REMARK    2  A    between atoms: N_5  and  C_6
REMARK    3  A    between atoms: C_12  and  C_13
REMARK    4  A    between atoms: C_16  and  N_17
REMARK    5  A    between atoms: N_17  and  C_18
REMARK                            x       y       z     vdW  Elec       q    Type
REMARK                         _______ _______ _______ _____ _____    ______ ____
ROOT
ATOM      1  C   UNL     1       1.173   8.942  20.729  0.00  0.00    +0.000 A 
ATOM      2  C   UNL     1       1.075   8.610  22.069  0.00  0.00    +0.000 A 
ATOM      3  C   UNL     1       0.273   9.370  22.929  0.00  0.00    +0.000 A 
ATOM      4  C   UNL     1      -0.509  10.421  22.473  0.00  0.00    +0.000 A 
ATOM      5  N   UNL     1      -1.238  11.075  23.382  0.00  0.00    +0.000 NA
ATOM      6  C   UNL     1      -2.010  12.100  22.960  0.00  0.00    +0.000 A 
ATOM      7  C   UNL     1      -2.155  12.491  21.638  0.00  0.00    +0.000 A 
ATOM      8  C   UNL     1      -1.433  11.769  20.659  0.00  0.00    +0.000 A 
ATOM      9  C   UNL     1      -0.503  10.754  21.103  0.00  0.00    +0.000 A 
ATOM     10  C   UNL     1       0.427  10.045  20.287  0.00  0.00    +0.000 A 
ENDROOT
BRANCH   1  15
ATOM     11  C   UNL     1       4.512   6.043  17.272  0.00  0.00    +0.000 C 
ATOM     12  N   UNL     1       3.257   6.501  17.866  0.00  0.00    +0.000 NA
ATOM     13  C   UNL     1       3.098   7.963  17.672  0.00  0.00    +0.000 C 
ATOM     14  C   UNL     1       1.836   8.530  18.370  0.00  0.00    +0.000 C 
ATOM     15  N   UNL     1       1.891   8.198  19.804  0.00  0.00    +0.000 N 
ATOM     16  C   UNL     1       1.974   6.741  20.032  0.00  0.00    +0.000 C 
ATOM     17  C   UNL     1       3.228   6.185  19.315  0.00  0.00    +0.000 C 
ENDBRANCH   1  15
BRANCH   7  18
ATOM     18  C   UNL     1      -3.068  13.646  21.411  0.00  0.00    +0.000 C 
ATOM     19  N   UNL     1      -4.291  13.658  22.019  0.00  0.00    +0.000 N 
ATOM     20  O   UNL     1      -2.742  14.588  20.697  0.00  0.00    +0.000 OA
ATOM     21  H   UNL     1      -4.483  13.053  22.809  0.00  0.00    +0.000 HD
ATOM     22  H   UNL     1      -4.834  14.506  21.922  0.00  0.00    +0.000 HD
ENDBRANCH   7  18
BRANCH   8  23
ATOM     23  N   UNL     1      -1.594  12.117  19.277  0.00  0.00    +0.000 N 
ATOM     24  H   UNL     1      -0.713  12.505  18.922  0.00  0.00    +0.000 HD
BRANCH  23  25
ATOM     25  C   UNL     1      -2.260  11.399  18.249  0.00  0.00    +0.000 A 
ATOM     26  C   UNL     1      -1.603  10.488  17.411  0.00  0.00    +0.000 A 
ATOM     27  C   UNL     1      -2.256   9.969  16.288  0.00  0.00    +0.000 A 
ATOM     28  C   UNL     1      -3.587  10.295  16.052  0.00  0.00    +0.000 A 
ATOM     29  F   UNL     1      -4.190   9.843  14.946  0.00  0.00    +0.000 F 
ATOM     30  C   UNL     1      -4.296  11.092  16.938  0.00  0.00    +0.000 A 
ATOM     31  C   UNL     1      -3.630  11.625  18.033  0.00  0.00    +0.000 A 
ATOM     32  F   UNL     1      -4.297  12.434  18.872  0.00  0.00    +0.000 F 
ENDBRANCH  23  25
ENDBRANCH   8  23
TORSDOF 4
ENDMDL
MODEL 3
REMARK VINA RESULT:      -7.1      8.211     10.659
REMARK  Name = 
REMARK  5 active torsions:
REMARK  status: ('A' for Active; 'I' for Inactive)
REMARK    1  A    between atoms: C_1  and  N_2
REMARK    2  A    between atoms: N_5  and  C_6
REMARK    3  A    between atoms: C_12  and  C_13
REMARK    4  A    between atoms: C_16  and  N_17
REMARK    5  A    between atoms: N_17  and  C_18
REMARK                            x       y       z     vdW  Elec       q    Type
REMARK                         _______ _______ _______ _____ _____    ______ ____
ROOT
ATOM      1  C   UNL     1       6.609  15.719  22.026  0.00  0.00    +0.000 A 
ATOM      2  C   UNL     1       5.819  16.678  21.416  0.00  0.00    +0.000 A 
ATOM      3  C   UNL     1       6.259  17.324  20.255  0.00  0.00    +0.000 A 
ATOM      4  C   UNL     1       7.448  16.983  19.626  0.00  0.00    +0.000 A 
ATOM      5  N   UNL     1       7.767  17.663  18.521  0.00  0.00    +0.000 NA
ATOM      6  C   UNL     1       8.918  17.345  17.890  0.00  0.00    +0.000 A 
ATOM      7  C   UNL     1       9.771  16.319  18.265  0.00  0.00    +0.000 A 
ATOM      8  C   UNL     1       9.414  15.554  19.400  0.00  0.00    +0.000 A 
ATOM      9  C   UNL     1       8.255  15.961  20.165  0.00  0.00    +0.000 A 
ATOM     10  C   UNL     1       7.839  15.424  21.419  0.00  0.00    +0.000 A 
ENDROOT
BRANCH   1  15
ATOM     11  C   UNL     1       5.425  12.971  26.774  0.00  0.00    +0.000 C 
ATOM     12  N   UNL     1       5.196  13.511  25.435  0.00  0.00    +0.000 NA
ATOM     13  C   UNL     1       6.154  12.921  24.470  0.00  0.00    +0.000 C 
ATOM     14  C   UNL     1       6.033  13.530  23.050  0.00  0.00    +0.000 C 
ATOM     15  N   UNL     1       6.212  14.989  23.137  0.00  0.00    +0.000 N 
ATOM     16  C   UNL     1       5.221  15.616  24.034  0.00  0.00    +0.000 C 
ATOM     17  C   UNL     1       5.342  14.987  25.443  0.00  0.00    +0.000 C 
ENDBRANCH   1  15
BRANCH   7  18
ATOM     18  C   UNL     1      10.981  16.151  17.412  0.00  0.00    +0.000 C 
ATOM     19  N   UNL     1      10.833  16.064  16.057  0.00  0.00    +0.000 N 
ATOM     20  O   UNL     1      12.104  16.096  17.900  0.00  0.00    +0.000 OA
ATOM     21  H   UNL     1       9.978  16.370  15.609  0.00  0.00    +0.000 HD
ATOM     22  H   UNL     1      11.685  16.055  15.511  0.00  0.00    +0.000 HD
ENDBRANCH   7  18
BRANCH   8  23
ATOM     23  N   UNL     1      10.250  14.456  19.792  0.00  0.00    +0.000 N 
ATOM     24  H   UNL     1      10.593  14.616  20.745  0.00  0.00    +0.000 HD
BRANCH  23  25
ATOM     25  C   UNL     1      10.059  13.067  19.568  0.00  0.00    +0.000 A 
ATOM     26  C   UNL     1      10.004  12.507  18.284  0.00  0.00    +0.000 A 
ATOM     27  C   UNL     1       9.607  11.176  18.116  0.00  0.00    +0.000 A 
ATOM     28  C   UNL     1       9.349  10.386  19.231  0.00  0.00    +0.000 A 
ATOM     29  F   UNL     1       8.913   9.131  19.063  0.00  0.00    +0.000 F 
ATOM     30  C   UNL     1       9.521  10.882  20.514  0.00  0.00    +0.000 A 
ATOM     31  C   UNL     1       9.886  12.213  20.670  0.00  0.00    +0.000 A 
ATOM     32  F   UNL     1      10.012  12.714  21.909  0.00  0.00    +0.000 F 
ENDBRANCH  23  25
ENDBRANCH   8  23
TORSDOF 4
ENDMDL
MODEL 4
REMARK VINA RESULT:      -7.0      4.569      7.101
REMARK  Name = 
REMARK  5 active torsions:
REMARK  status: ('A' for Active; 'I' for Inactive)
REMARK    1  A    between atoms: C_1  and  N_2
REMARK    2  A    between atoms: N_5  and  C_6
REMARK    3  A    between atoms: C_12  and  C_13
REMARK    4  A    between atoms: C_16  and  N_17
REMARK    5  A    between atoms: N_17  and  C_18
REMARK                            x       y       z     vdW  Elec       q    Type
REMARK                         _______ _______ _______ _____ _____    ______ ____
ROOT
ATOM      1  C   UNL     1      -1.315  11.408  22.450  0.00  0.00    +0.000 A 
ATOM      2  C   UNL     1      -0.953  10.470  23.402  0.00  0.00    +0.000 A 
ATOM      3  C   UNL     1      -0.140   9.386  23.053  0.00  0.00    +0.000 A 
ATOM      4  C   UNL     1       0.398   9.245  21.782  0.00  0.00    +0.000 A 
ATOM      5  N   UNL     1       1.163   8.172  21.562  0.00  0.00    +0.000 NA
ATOM      6  C   UNL     1       1.702   8.016  20.333  0.00  0.00    +0.000 A 
ATOM      7  C   UNL     1       1.572   8.921  19.291  0.00  0.00    +0.000 A 
ATOM      8  C   UNL     1       0.812  10.089  19.529  0.00  0.00    +0.000 A 
ATOM      9  C   UNL     1       0.121  10.212  20.795  0.00  0.00    +0.000 A 
ATOM     10  C   UNL     1      -0.817  11.225  21.150  0.00  0.00    +0.000 A 
ENDROOT
BRANCH   1  15
ATOM     11  C   UNL     1      -3.900  16.186  23.861  0.00  0.00    +0.000 C 
ATOM     12  N   UNL     1      -3.684  14.930  23.145  0.00  0.00    +0.000 NA
ATOM     13  C   UNL     1      -3.690  13.789  24.093  0.00  0.00    +0.000 C 
ATOM     14  C   UNL     1      -3.362  12.436  23.411  0.00  0.00    +0.000 C 
ATOM     15  N   UNL     1      -2.059  12.544  22.733  0.00  0.00    +0.000 N 
ATOM     16  C   UNL     1      -2.045  13.625  21.728  0.00  0.00    +0.000 C 
ATOM     17  C   UNL     1      -2.391  14.966  22.419  0.00  0.00    +0.000 C 
ENDBRANCH   1  15
BRANCH   7  18
ATOM     18  C   UNL     1       2.260   8.539  18.026  0.00  0.00    +0.000 C 
ATOM     19  N   UNL     1       2.831   7.302  17.926  0.00  0.00    +0.000 N 
ATOM     20  O   UNL     1       2.319   9.308  17.073  0.00  0.00    +0.000 OA
ATOM     21  H   UNL     1       2.576   6.560  18.567  0.00  0.00    +0.000 HD
ATOM     22  H   UNL     1       3.196   7.047  17.017  0.00  0.00    +0.000 HD
ENDBRANCH   7  18
BRANCH   8  23
ATOM     23  N   UNL     1       0.694  11.069  18.488  0.00  0.00    +0.000 N 
ATOM     24  H   UNL     1      -0.256  11.040  18.104  0.00  0.00    +0.000 HD
BRANCH  23  25
ATOM     25  C   UNL     1       1.195  12.397  18.453  0.00  0.00    +0.000 A 
ATOM     26  C   UNL     1       2.562  12.689  18.355  0.00  0.00    +0.000 A 
ATOM     27  C   UNL     1       3.015  14.000  18.534  0.00  0.00    +0.000 A 
ATOM     28  C   UNL     1       2.097  15.027  18.728  0.00  0.00    +0.000 A 
ATOM     29  F   UNL     1       2.537  16.271  18.957  0.00  0.00    +0.000 F 
ATOM     30  C   UNL     1       0.732  14.781  18.701  0.00  0.00    +0.000 A 
ATOM     31  C   UNL     1       0.295  13.472  18.551  0.00  0.00    +0.000 A 
ATOM     32  F   UNL     1      -1.024  13.218  18.568  0.00  0.00    +0.000 F 
ENDBRANCH  23  25
ENDBRANCH   8  23
TORSDOF 4
ENDMDL
MODEL 5
REMARK VINA RESULT:      -6.9      5.617      9.543
REMARK  Name = 
REMARK  5 active torsions:
REMARK  status: ('A' for Active; 'I' for Inactive)
REMARK    1  A    between atoms: C_1  and  N_2
REMARK    2  A    between atoms: N_5  and  C_6
REMARK    3  A    between atoms: C_12  and  C_13
REMARK    4  A    between atoms: C_16  and  N_17
REMARK    5  A    between atoms: N_17  and  C_18
REMARK                            x       y       z     vdW  Elec       q    Type
REMARK                         _______ _______ _______ _____ _____    ______ ____
ROOT
ATOM      1  C   UNL     1       0.242   9.578  21.172  0.00  0.00    +0.000 A 
ATOM      2  C   UNL     1       0.008   9.365  22.520  0.00  0.00    +0.000 A 
ATOM      3  C   UNL     1      -0.841  10.220  23.234  0.00  0.00    +0.000 A 
ATOM      4  C   UNL     1      -1.536  11.251  22.621  0.00  0.00    +0.000 A 
ATOM      5  N   UNL     1      -2.321  12.001  23.400  0.00  0.00    +0.000 NA
ATOM      6  C   UNL     1      -3.012  13.009  22.824  0.00  0.00    +0.000 A 
ATOM      7  C   UNL     1      -3.020  13.289  21.466  0.00  0.00    +0.000 A 
ATOM      8  C   UNL     1      -2.239  12.465  20.624  0.00  0.00    +0.000 A 
ATOM      9  C   UNL     1      -1.392  11.465  21.236  0.00  0.00    +0.000 A 
ATOM     10  C   UNL     1      -0.418  10.661  20.572  0.00  0.00    +0.000 A 
ENDROOT
BRANCH   1  15
ATOM     11  C   UNL     1       2.912   6.041  17.729  0.00  0.00    +0.000 C 
ATOM     12  N   UNL     1       2.765   7.112  18.713  0.00  0.00    +0.000 NA
ATOM     13  C   UNL     1       2.139   6.591  19.953  0.00  0.00    +0.000 C 
ATOM     14  C   UNL     1       1.858   7.699  20.999  0.00  0.00    +0.000 C 
ATOM     15  N   UNL     1       1.013   8.737  20.384  0.00  0.00    +0.000 N 
ATOM     16  C   UNL     1       1.645   9.329  19.188  0.00  0.00    +0.000 C 
ATOM     17  C   UNL     1       1.935   8.209  18.160  0.00  0.00    +0.000 C 
ENDBRANCH   1  15
BRANCH   7  18
ATOM     18  C   UNL     1      -3.864  14.448  21.060  0.00  0.00    +0.000 C 
ATOM     19  N   UNL     1      -5.218  14.375  21.224  0.00  0.00    +0.000 N 
ATOM     20  O   UNL     1      -3.368  15.465  20.589  0.00  0.00    +0.000 OA
ATOM     21  H   UNL     1      -5.629  13.686  21.842  0.00  0.00    +0.000 HD
ATOM     22  H   UNL     1      -5.741  15.221  21.032  0.00  0.00    +0.000 HD
ENDBRANCH   7  18
BRANCH   8  23
ATOM     23  N   UNL     1      -2.258  12.698  19.208  0.00  0.00    +0.000 N 
ATOM     24  H   UNL     1      -1.381  13.149  18.928  0.00  0.00    +0.000 HD
BRANCH  23  25
ATOM     25  C   UNL     1      -2.723  11.847  18.171  0.00  0.00    +0.000 A 
ATOM     26  C   UNL     1      -1.863  11.054  17.399  0.00  0.00    +0.000 A 
ATOM     27  C   UNL     1      -2.345  10.398  16.261  0.00  0.00    +0.000 A 
ATOM     28  C   UNL     1      -3.697  10.467  15.946  0.00  0.00    +0.000 A 
ATOM     29  F   UNL     1      -4.143   9.886  14.825  0.00  0.00    +0.000 F 
ATOM     30  C   UNL     1      -4.590  11.139  16.767  0.00  0.00    +0.000 A 
ATOM     31  C   UNL     1      -4.096  11.811  17.878  0.00  0.00    +0.000 A 
ATOM     32  F   UNL     1      -4.947  12.501  18.653  0.00  0.00    +0.000 F 
ENDBRANCH  23  25
ENDBRANCH   8  23
TORSDOF 4
ENDMDL
MODEL 6
REMARK VINA RESULT:      -6.8      5.358      9.337
REMARK  Name = 
REMARK  5 active torsions:
REMARK  status: ('A' for Active; 'I' for Inactive)
REMARK    1  A    between atoms: C_1  and  N_2
REMARK    2  A    between atoms: N_5  and  C_6
REMARK    3  A    between atoms: C_12  and  C_13
REMARK    4  A    between atoms: C_16  and  N_17
REMARK    5  A    between atoms: N_17  and  C_18
REMARK                            x       y       z     vdW  Elec       q    Type
REMARK                         _______ _______ _______ _____ _____    ______ ____
ROOT
ATOM      1  C   UNL     1       0.365   9.781  21.032  0.00  0.00    +0.000 A 
ATOM      2  C   UNL     1       0.271   9.413  22.363  0.00  0.00    +0.000 A 
ATOM      3  C   UNL     1      -0.562  10.122  23.237  0.00  0.00    +0.000 A 
ATOM      4  C   UNL     1      -1.377  11.157  22.802  0.00  0.00    +0.000 A 
ATOM      5  N   UNL     1      -2.134  11.762  23.723  0.00  0.00    +0.000 NA
ATOM      6  C   UNL     1      -2.939  12.770  23.321  0.00  0.00    +0.000 A 
ATOM      7  C   UNL     1      -3.089  13.189  22.009  0.00  0.00    +0.000 A 
ATOM      8  C   UNL     1      -2.337  12.518  21.017  0.00  0.00    +0.000 A 
ATOM      9  C   UNL     1      -1.374  11.525  21.442  0.00  0.00    +0.000 A 
ATOM     10  C   UNL     1      -0.415  10.870  20.613  0.00  0.00    +0.000 A 
ENDROOT
BRANCH   1  15
ATOM     11  C   UNL     1       3.827   7.123  17.504  0.00  0.00    +0.000 C 
ATOM     12  N   UNL     1       2.557   7.482  18.134  0.00  0.00    +0.000 NA
ATOM     13  C   UNL     1       2.267   8.921  17.926  0.00  0.00    +0.000 C 
ATOM     14  C   UNL     1       0.984   9.390  18.659  0.00  0.00    +0.000 C 
ATOM     15  N   UNL     1       1.114   9.087  20.094  0.00  0.00    +0.000 N 
ATOM     16  C   UNL     1       1.329   7.646  20.338  0.00  0.00    +0.000 C 
ATOM     17  C   UNL     1       2.602   7.188  19.587  0.00  0.00    +0.000 C 
ENDBRANCH   1  15
BRANCH   7  18
ATOM     18  C   UNL     1      -4.040  14.318  21.806  0.00  0.00    +0.000 C 
ATOM     19  N   UNL     1      -5.303  14.225  22.317  0.00  0.00    +0.000 N 
ATOM     20  O   UNL     1      -3.711  15.329  21.195  0.00  0.00    +0.000 OA
ATOM     21  H   UNL     1      -5.521  13.549  23.039  0.00  0.00    +0.000 HD
ATOM     22  H   UNL     1      -5.879  15.054  22.246  0.00  0.00    +0.000 HD
ENDBRANCH   7  18
BRANCH   8  23
ATOM     23  N   UNL     1      -2.501  12.895  19.643  0.00  0.00    +0.000 N 
ATOM     24  H   UNL     1      -1.757  13.550  19.382  0.00  0.00    +0.000 HD
BRANCH  23  25
ATOM     25  C   UNL     1      -2.850  12.084  18.532  0.00  0.00    +0.000 A 
ATOM     26  C   UNL     1      -4.125  11.525  18.372  0.00  0.00    +0.000 A 
ATOM     27  C   UNL     1      -4.353  10.569  17.376  0.00  0.00    +0.000 A 
ATOM     28  C   UNL     1      -3.333  10.237  16.491  0.00  0.00    +0.000 A 
ATOM     29  F   UNL     1      -3.538   9.280  15.577  0.00  0.00    +0.000 F 
ATOM     30  C   UNL     1      -2.102  10.871  16.549  0.00  0.00    +0.000 A 
ATOM     31  C   UNL     1      -1.876  11.797  17.560  0.00  0.00    +0.000 A 
ATOM     32  F   UNL     1      -0.672  12.383  17.651  0.00  0.00    +0.000 F 
ENDBRANCH  23  25
ENDBRANCH   8  23
TORSDOF 4
ENDMDL
MODEL 7
REMARK VINA RESULT:      -6.8      7.931      9.954
REMARK  Name = 
REMARK  5 active torsions:
REMARK  status: ('A' for Active; 'I' for Inactive)
REMARK    1  A    between atoms: C_1  and  N_2
REMARK    2  A    between atoms: N_5  and  C_6
REMARK    3  A    between atoms: C_12  and  C_13
REMARK    4  A    between atoms: C_16  and  N_17
REMARK    5  A    between atoms: N_17  and  C_18
REMARK                            x       y       z     vdW  Elec       q    Type
REMARK                         _______ _______ _______ _____ _____    ______ ____
ROOT
ATOM      1  C   UNL     1      -0.333  14.047  20.871  0.00  0.00    +0.000 A 
ATOM      2  C   UNL     1      -0.207  13.907  22.242  0.00  0.00    +0.000 A 
ATOM      3  C   UNL     1      -1.316  13.561  23.024  0.00  0.00    +0.000 A 
ATOM      4  C   UNL     1      -2.551  13.271  22.465  0.00  0.00    +0.000 A 
ATOM      5  N   UNL     1      -3.539  12.950  23.306  0.00  0.00    +0.000 NA
ATOM      6  C   UNL     1      -4.749  12.659  22.783  0.00  0.00    +0.000 A 
ATOM      7  C   UNL     1      -5.036  12.606  21.428  0.00  0.00    +0.000 A 
ATOM      8  C   UNL     1      -3.984  12.888  20.526  0.00  0.00    +0.000 A 
ATOM      9  C   UNL     1      -2.716  13.327  21.066  0.00  0.00    +0.000 A 
ATOM     10  C   UNL     1      -1.602  13.812  20.319  0.00  0.00    +0.000 A 
ENDROOT
BRANCH   1  15
ATOM     11  C   UNL     1       4.287  15.135  17.877  0.00  0.00    +0.000 C 
ATOM     12  N   UNL     1       2.896  14.758  18.122  0.00  0.00    +0.000 NA
ATOM     13  C   UNL     1       2.164  15.875  18.767  0.00  0.00    +0.000 C 
ATOM     14  C   UNL     1       0.709  15.502  19.149  0.00  0.00    +0.000 C 
ATOM     15  N   UNL     1       0.731  14.319  20.025  0.00  0.00    +0.000 N 
ATOM     16  C   UNL     1       1.388  13.164  19.379  0.00  0.00    +0.000 C 
ATOM     17  C   UNL     1       2.833  13.556  18.988  0.00  0.00    +0.000 C 
ENDBRANCH   1  15
BRANCH   7  18
ATOM     18  C   UNL     1      -6.443  12.257  21.087  0.00  0.00    +0.000 C 
ATOM     19  N   UNL     1      -7.156  11.459  21.937  0.00  0.00    +0.000 N 
ATOM     20  O   UNL     1      -6.976  12.675  20.065  0.00  0.00    +0.000 OA
ATOM     21  H   UNL     1      -6.855  11.323  22.894  0.00  0.00    +0.000 HD
ATOM     22  H   UNL     1      -8.136  11.333  21.720  0.00  0.00    +0.000 HD
ENDBRANCH   7  18
BRANCH   8  23
ATOM     23  N   UNL     1      -4.232  12.799  19.116  0.00  0.00    +0.000 N 
ATOM     24  H   UNL     1      -4.090  13.720  18.689  0.00  0.00    +0.000 HD
BRANCH  23  25
ATOM     25  C   UNL     1      -3.854  11.776  18.207  0.00  0.00    +0.000 A 
ATOM     26  C   UNL     1      -2.834  10.855  18.484  0.00  0.00    +0.000 A 
ATOM     27  C   UNL     1      -2.362  10.006  17.477  0.00  0.00    +0.000 A 
ATOM     28  C   UNL     1      -2.965  10.020  16.224  0.00  0.00    +0.000 A 
ATOM     29  F   UNL     1      -2.473   9.248  15.247  0.00  0.00    +0.000 F 
ATOM     30  C   UNL     1      -4.060  10.831  15.965  0.00  0.00    +0.000 A 
ATOM     31  C   UNL     1      -4.502  11.691  16.963  0.00  0.00    +0.000 A 
ATOM     32  F   UNL     1      -5.533  12.511  16.707  0.00  0.00    +0.000 F 
ENDBRANCH  23  25
ENDBRANCH   8  23
TORSDOF 4
ENDMDL
MODEL 8
REMARK VINA RESULT:      -6.8      4.789      7.430
REMARK  Name = 
REMARK  5 active torsions:
REMARK  status: ('A' for Active; 'I' for Inactive)
REMARK    1  A    between atoms: C_1  and  N_2
REMARK    2  A    between atoms: N_5  and  C_6
REMARK    3  A    between atoms: C_12  and  C_13
REMARK    4  A    between atoms: C_16  and  N_17
REMARK    5  A    between atoms: N_17  and  C_18
REMARK                            x       y       z     vdW  Elec       q    Type
REMARK                         _______ _______ _______ _____ _____    ______ ____
ROOT
ATOM      1  C   UNL     1      -1.742  12.050  22.278  0.00  0.00    +0.000 A 
ATOM      2  C   UNL     1      -1.515  11.133  23.290  0.00  0.00    +0.000 A 
ATOM      3  C   UNL     1      -0.736   9.994  23.052  0.00  0.00    +0.000 A 
ATOM      4  C   UNL     1      -0.101   9.775  21.839  0.00  0.00    +0.000 A 
ATOM      5  N   UNL     1       0.621   8.656  21.724  0.00  0.00    +0.000 NA
ATOM      6  C   UNL     1       1.252   8.424  20.553  0.00  0.00    +0.000 A 
ATOM      7  C   UNL     1       1.262   9.292  19.472  0.00  0.00    +0.000 A 
ATOM      8  C   UNL     1       0.550  10.507  19.602  0.00  0.00    +0.000 A 
ATOM      9  C   UNL     1      -0.238  10.715  20.797  0.00  0.00    +0.000 A 
ATOM     10  C   UNL     1      -1.146  11.789  21.034  0.00  0.00    +0.000 A 
ENDROOT
BRANCH   1  15
ATOM     11  C   UNL     1      -4.966  16.624  22.698  0.00  0.00    +0.000 C 
ATOM     12  N   UNL     1      -3.867  15.714  23.017  0.00  0.00    +0.000 NA
ATOM     13  C   UNL     1      -2.970  15.559  21.846  0.00  0.00    +0.000 C 
ATOM     14  C   UNL     1      -1.841  14.525  22.085  0.00  0.00    +0.000 C 
ATOM     15  N   UNL     1      -2.443  13.233  22.455  0.00  0.00    +0.000 N 
ATOM     16  C   UNL     1      -3.284  13.341  23.665  0.00  0.00    +0.000 C 
ATOM     17  C   UNL     1      -4.396  14.389  23.418  0.00  0.00    +0.000 C 
ENDBRANCH   1  15
BRANCH   7  18
ATOM     18  C   UNL     1       2.034   8.824  18.287  0.00  0.00    +0.000 C 
ATOM     19  N   UNL     1       2.704   7.637  18.354  0.00  0.00    +0.000 N 
ATOM     20  O   UNL     1       2.074   9.480  17.251  0.00  0.00    +0.000 OA
ATOM     21  H   UNL     1       2.480   6.955  19.070  0.00  0.00    +0.000 HD
ATOM     22  H   UNL     1       3.127   7.309  17.495  0.00  0.00    +0.000 HD
ENDBRANCH   7  18
BRANCH   8  23
ATOM     23  N   UNL     1       0.576  11.449  18.521  0.00  0.00    +0.000 N 
ATOM     24  H   UNL     1      -0.364  11.524  18.117  0.00  0.00    +0.000 HD
BRANCH  23  25
ATOM     25  C   UNL     1       1.242  12.701  18.445  0.00  0.00    +0.000 A 
ATOM     26  C   UNL     1       2.624  12.812  18.244  0.00  0.00    +0.000 A 
ATOM     27  C   UNL     1       3.257  14.052  18.386  0.00  0.00    +0.000 A 
ATOM     28  C   UNL     1       2.498  15.188  18.645  0.00  0.00    +0.000 A 
ATOM     29  F   UNL     1       3.112  16.362  18.837  0.00  0.00    +0.000 F 
ATOM     30  C   UNL     1       1.115  15.123  18.720  0.00  0.00    +0.000 A 
ATOM     31  C   UNL     1       0.500  13.883  18.607  0.00  0.00    +0.000 A 
ATOM     32  F   UNL     1      -0.835  13.804  18.723  0.00  0.00    +0.000 F 
ENDBRANCH  23  25
ENDBRANCH   8  23
TORSDOF 4
ENDMDL
MODEL 9
REMARK VINA RESULT:      -6.8      4.734      8.792
REMARK  Name = 
REMARK  5 active torsions:
REMARK  status: ('A' for Active; 'I' for Inactive)
REMARK    1  A    between atoms: C_1  and  N_2
REMARK    2  A    between atoms: N_5  and  C_6
REMARK    3  A    between atoms: C_12  and  C_13
REMARK    4  A    between atoms: C_16  and  N_17
REMARK    5  A    between atoms: N_17  and  C_18
REMARK                            x       y       z     vdW  Elec       q    Type
REMARK                         _______ _______ _______ _____ _____    ______ ____
ROOT
ATOM      1  C   UNL     1       1.285   8.669  20.691  0.00  0.00    +0.000 A 
ATOM      2  C   UNL     1       1.083   8.302  22.011  0.00  0.00    +0.000 A 
ATOM      3  C   UNL     1       0.267   9.077  22.844  0.00  0.00    +0.000 A 
ATOM      4  C   UNL     1      -0.427  10.183  22.376  0.00  0.00    +0.000 A 
ATOM      5  N   UNL     1      -1.179  10.847  23.260  0.00  0.00    +0.000 NA
ATOM      6  C   UNL     1      -1.868  11.924  22.826  0.00  0.00    +0.000 A 
ATOM      7  C   UNL     1      -1.907  12.363  21.511  0.00  0.00    +0.000 A 
ATOM      8  C   UNL     1      -1.162  11.634  20.556  0.00  0.00    +0.000 A 
ATOM      9  C   UNL     1      -0.316  10.557  21.022  0.00  0.00    +0.000 A 
ATOM     10  C   UNL     1       0.627   9.825  20.241  0.00  0.00    +0.000 A 
ENDROOT
BRANCH   1  15
ATOM     11  C   UNL     1       4.694   5.742  17.329  0.00  0.00    +0.000 C 
ATOM     12  N   UNL     1       3.427   6.202  17.896  0.00  0.00    +0.000 NA
ATOM     13  C   UNL     1       3.264   7.660  17.680  0.00  0.00    +0.000 C 
ATOM     14  C   UNL     1       1.989   8.231  18.350  0.00  0.00    +0.000 C 
ATOM     15  N   UNL     1       2.021   7.917  19.788  0.00  0.00    +0.000 N 
ATOM     16  C   UNL     1       2.106   6.464  20.036  0.00  0.00    +0.000 C 
ATOM     17  C   UNL     1       3.375   5.905  19.348  0.00  0.00    +0.000 C 
ENDBRANCH   1  15
BRANCH   7  18
ATOM     18  C   UNL     1      -2.742  13.572  21.268  0.00  0.00    +0.000 C 
ATOM     19  N   UNL     1      -4.054  13.564  21.650  0.00  0.00    +0.000 N 
ATOM     20  O   UNL     1      -2.276  14.575  20.739  0.00  0.00    +0.000 OA
ATOM     21  H   UNL     1      -4.395  12.882  22.316  0.00  0.00    +0.000 HD
ATOM     22  H   UNL     1      -4.554  14.439  21.561  0.00  0.00    +0.000 HD
ENDBRANCH   7  18
BRANCH   8  23
ATOM     23  N   UNL     1      -1.214  12.032  19.179  0.00  0.00    +0.000 N 
ATOM     24  H   UNL     1      -0.261  12.188  18.836  0.00  0.00    +0.000 HD
BRANCH  23  25
ATOM     25  C   UNL     1      -2.032  11.525  18.135  0.00  0.00    +0.000 A 
ATOM     26  C   UNL     1      -3.354  11.945  17.935  0.00  0.00    +0.000 A 
ATOM     27  C   UNL     1      -4.177  11.267  17.030  0.00  0.00    +0.000 A 
ATOM     28  C   UNL     1      -3.656  10.227  16.268  0.00  0.00    +0.000 A 
ATOM     29  F   UNL     1      -4.462   9.543  15.446  0.00  0.00    +0.000 F 
ATOM     30  C   UNL     1      -2.317   9.878  16.355  0.00  0.00    +0.000 A 
ATOM     31  C   UNL     1      -1.515  10.539  17.278  0.00  0.00    +0.000 A 
ATOM     32  F   UNL     1      -0.228  10.177  17.401  0.00  0.00    +0.000 F 
ENDBRANCH  23  25
ENDBRANCH   8  23
TORSDOF 4
ENDMDL
