MODEL 1
REMARK VINA RESULT:      -7.4      0.000      0.000
REMARK  Name = 
REMARK  9 active torsions:
REMARK  status: ('A' for Active; 'I' for Inactive)
REMARK    1  A    between atoms: C_1  and  O_2
REMARK    2  A    between atoms: O_2  and  C_3
REMARK    3  A    between atoms: C_3  and  C_4
REMARK    4  A    between atoms: C_6  and  C_7
REMARK    5  A    between atoms: C_7  and  O_8
REMARK    6  A    between atoms: O_8  and  C_9
REMARK    7  A    between atoms: C_14  and  C_16
REMARK    8  A    between atoms: C_16  and  C_17
REMARK    9  A    between atoms: C_17  and  C_18
REMARK                            x       y       z     vdW  Elec       q    Type
REMARK                         _______ _______ _______ _____ _____    ______ ____
ROOT
ATOM      1  C   UNL     1       3.257   4.210  17.976  0.00  0.00    +0.000 C 
ATOM      2  C   UNL     1       2.522   3.094  18.737  0.00  0.00    +0.000 C 
ATOM      3  C   UNL     1       1.384   3.628  19.602  0.00  0.00    +0.000 C 
ATOM      4  C   UNL     1       1.885   4.724  20.537  0.00  0.00    +0.000 C 
ATOM      5  N   UNL     1       2.504   5.792  19.755  0.00  0.00    +0.000 N 
ATOM      6  C   UNL     1       2.103   7.121  19.710  0.00  0.00    +0.000 C 
ATOM      7  O   UNL     1       2.654   7.946  18.979  0.00  0.00    +0.000 OA
ATOM      8  C   UNL     1       3.635   5.358  18.933  0.00  0.00    +0.000 C 
ENDROOT
BRANCH   1   9
ATOM      9  O   UNL     1       4.468   3.715  17.394  0.00  0.00    +0.000 OA
BRANCH   9  10
ATOM     10  C   UNL     1       5.554   4.651  17.419  0.00  0.00    +0.000 C 
BRANCH  10  13
ATOM     11  C   UNL     1       6.676   4.425  14.081  0.00  0.00    +0.000 A 
ATOM     12  N   UNL     1       5.825   4.025  15.001  0.00  0.00    +0.000 NA
ATOM     13  C   UNL     1       6.223   4.755  16.094  0.00  0.00    +0.000 A 
ATOM     14  N   UNL     1       7.274   5.566  15.882  0.00  0.00    +0.000 NA
ATOM     15  O   UNL     1       7.570   5.350  14.535  0.00  0.00    +0.000 OA
BRANCH  11  16
ATOM     16  C   UNL     1       6.762   4.065  12.648  0.00  0.00    +0.000 C 
BRANCH  16  18
ATOM     17  C   UNL     1       5.662   2.195  11.730  0.00  0.00    +0.000 C 
ATOM     18  O   UNL     1       5.505   3.505  12.254  0.00  0.00    +0.000 OA
ENDBRANCH  16  18
ENDBRANCH  11  16
ENDBRANCH  10  13
ENDBRANCH   9  10
ENDBRANCH   1   9
BRANCH   6  19
ATOM     19  C   UNL     1       0.990   7.547  20.648  0.00  0.00    +0.000 C 
BRANCH  19  20
ATOM     20  C   UNL     1       1.489   8.470  21.758  0.00  0.00    +0.000 C 
BRANCH  20  21
ATOM     21  C   UNL     1       0.554   9.648  21.901  0.00  0.00    +0.000 A 
ATOM     22  C   UNL     1      -0.242   9.782  23.044  0.00  0.00    +0.000 A 
ATOM     23  C   UNL     1      -1.167  10.820  23.141  0.00  0.00    +0.000 A 
ATOM     24  C   UNL     1      -1.308  11.732  22.095  0.00  0.00    +0.000 A 
ATOM     25  C   UNL     1      -0.516  11.611  20.955  0.00  0.00    +0.000 A 
ATOM     26  C   UNL     1       0.414  10.576  20.857  0.00  0.00    +0.000 A 
ENDBRANCH  20  21
ENDBRANCH  19  20
ENDBRANCH   6  19
TORSDOF 8
ENDMDL
MODEL 2
REMARK VINA RESULT:      -7.4      2.241      2.821
REMARK  Name = 
REMARK  9 active torsions:
REMARK  status: ('A' for Active; 'I' for Inactive)
REMARK    1  A    between atoms: C_1  and  O_2
REMARK    2  A    between atoms: O_2  and  C_3
REMARK    3  A    between atoms: C_3  and  C_4
REMARK    4  A    between atoms: C_6  and  C_7
REMARK    5  A    between atoms: C_7  and  O_8
REMARK    6  A    between atoms: O_8  and  C_9
REMARK    7  A    between atoms: C_14  and  C_16
REMARK    8  A    between atoms: C_16  and  C_17
REMARK    9  A    between atoms: C_17  and  C_18
REMARK                            x       y       z     vdW  Elec       q    Type
REMARK                         _______ _______ _______ _____ _____    ______ ____
ROOT
ATOM      1  C   UNL     1       2.653   5.337  18.441  0.00  0.00    +0.000 C 
ATOM      2  C   UNL     1       2.296   4.874  19.863  0.00  0.00    +0.000 C 
ATOM      3  C   UNL     1       1.386   5.862  20.588  0.00  0.00    +0.000 C 
ATOM      4  C   UNL     1       1.992   7.262  20.577  0.00  0.00    +0.000 C 
ATOM      5  N   UNL     1       2.238   7.680  19.199  0.00  0.00    +0.000 N 
ATOM      6  C   UNL     1       1.684   8.781  18.558  0.00  0.00    +0.000 C 
ATOM      7  O   UNL     1       1.908   9.029  17.372  0.00  0.00    +0.000 OA
ATOM      8  C   UNL     1       3.141   6.800  18.454  0.00  0.00    +0.000 C 
ENDROOT
BRANCH   1   9
ATOM      9  O   UNL     1       3.705   4.535  17.895  0.00  0.00    +0.000 OA
BRANCH   9  10
ATOM     10  C   UNL     1       5.021   4.947  18.291  0.00  0.00    +0.000 C 
BRANCH  10  13
ATOM     11  C   UNL     1       6.793   4.572  15.263  0.00  0.00    +0.000 A 
ATOM     12  N   UNL     1       5.631   4.696  15.867  0.00  0.00    +0.000 NA
ATOM     13  C   UNL     1       6.004   4.791  17.186  0.00  0.00    +0.000 A 
ATOM     14  N   UNL     1       7.328   4.721  17.407  0.00  0.00    +0.000 NA
ATOM     15  O   UNL     1       7.854   4.583  16.121  0.00  0.00    +0.000 OA
BRANCH  11  16
ATOM     16  C   UNL     1       7.107   4.482  13.819  0.00  0.00    +0.000 C 
BRANCH  16  18
ATOM     17  C   UNL     1       6.478   3.219  11.934  0.00  0.00    +0.000 C 
ATOM     18  O   UNL     1       6.057   3.748  13.182  0.00  0.00    +0.000 OA
ENDBRANCH  16  18
ENDBRANCH  11  16
ENDBRANCH  10  13
ENDBRANCH   9  10
ENDBRANCH   1   9
BRANCH   6  19
ATOM     19  C   UNL     1       0.831   9.718  19.392  0.00  0.00    +0.000 C 
BRANCH  19  20
ATOM     20  C   UNL     1       0.412  10.964  18.614  0.00  0.00    +0.000 C 
BRANCH  20  21
ATOM     21  C   UNL     1      -1.060  10.887  18.282  0.00  0.00    +0.000 A 
ATOM     22  C   UNL     1      -1.970  11.748  18.906  0.00  0.00    +0.000 A 
ATOM     23  C   UNL     1      -3.338  11.622  18.665  0.00  0.00    +0.000 A 
ATOM     24  C   UNL     1      -3.808  10.633  17.804  0.00  0.00    +0.000 A 
ATOM     25  C   UNL     1      -2.911   9.774  17.174  0.00  0.00    +0.000 A 
ATOM     26  C   UNL     1      -1.541   9.900  17.408  0.00  0.00    +0.000 A 
ENDBRANCH  20  21
ENDBRANCH  19  20
ENDBRANCH   6  19
TORSDOF 8
ENDMDL
MODEL 3
REMARK VINA RESULT:      -7.4      1.791      2.215
REMARK  Name = 
REMARK  9 active torsions:
REMARK  status: ('A' for Active; 'I' for Inactive)
REMARK    1  A    between atoms: C_1  and  O_2
REMARK    2  A    between atoms: O_2  and  C_3
REMARK    3  A    between atoms: C_3  and  C_4
REMARK    4  A    between atoms: C_6  and  C_7
REMARK    5  A    between atoms: C_7  and  O_8
REMARK    6  A    between atoms: O_8  and  C_9
REMARK    7  A    between atoms: C_14  and  C_16
REMARK    8  A    between atoms: C_16  and  C_17
REMARK    9  A    between atoms: C_17  and  C_18
REMARK                            x       y       z     vdW  Elec       q    Type
REMARK                         _______ _______ _______ _____ _____    ______ ____
ROOT
ATOM      1  C   UNL     1       3.735   4.459  18.308  0.00  0.00    +0.000 C 
ATOM      2  C   UNL     1       2.865   3.785  19.381  0.00  0.00    +0.000 C 
ATOM      3  C   UNL     1       1.661   4.637  19.777  0.00  0.00    +0.000 C 
ATOM      4  C   UNL     1       2.103   6.036  20.193  0.00  0.00    +0.000 C 
ATOM      5  N   UNL     1       2.858   6.656  19.107  0.00  0.00    +0.000 N 
ATOM      6  C   UNL     1       2.529   7.827  18.436  0.00  0.00    +0.000 C 
ATOM      7  O   UNL     1       3.199   8.250  17.493  0.00  0.00    +0.000 OA
ATOM      8  C   UNL     1       4.055   5.914  18.705  0.00  0.00    +0.000 C 
ENDROOT
BRANCH   1   9
ATOM      9  O   UNL     1       4.980   3.768  18.156  0.00  0.00    +0.000 OA
BRANCH   9  10
ATOM     10  C   UNL     1       6.105   4.631  17.943  0.00  0.00    +0.000 C 
BRANCH  10  13
ATOM     11  C   UNL     1       6.574   4.250  14.466  0.00  0.00    +0.000 A 
ATOM     12  N   UNL     1       5.969   3.843  15.561  0.00  0.00    +0.000 NA
ATOM     13  C   UNL     1       6.488   4.694  16.507  0.00  0.00    +0.000 A 
ATOM     14  N   UNL     1       7.380   5.584  16.039  0.00  0.00    +0.000 NA
ATOM     15  O   UNL     1       7.430   5.291  14.675  0.00  0.00    +0.000 OA
BRANCH  11  16
ATOM     16  C   UNL     1       6.418   3.787  13.069  0.00  0.00    +0.000 C 
BRANCH  16  18
ATOM     17  C   UNL     1       4.775   3.018  11.568  0.00  0.00    +0.000 C 
ATOM     18  O   UNL     1       5.020   3.723  12.775  0.00  0.00    +0.000 OA
ENDBRANCH  16  18
ENDBRANCH  11  16
ENDBRANCH  10  13
ENDBRANCH   9  10
ENDBRANCH   1   9
BRANCH   6  19
ATOM     19  C   UNL     1       1.336   8.613  18.946  0.00  0.00    +0.000 C 
BRANCH  19  20
ATOM     20  C   UNL     1       1.209   9.976  18.269  0.00  0.00    +0.000 C 
BRANCH  20  21
ATOM     21  C   UNL     1      -0.226  10.445  18.332  0.00  0.00    +0.000 A 
ATOM     22  C   UNL     1      -0.622  11.377  19.298  0.00  0.00    +0.000 A 
ATOM     23  C   UNL     1      -1.961  11.746  19.413  0.00  0.00    +0.000 A 
ATOM     24  C   UNL     1      -2.917  11.185  18.568  0.00  0.00    +0.000 A 
ATOM     25  C   UNL     1      -2.533  10.261  17.599  0.00  0.00    +0.000 A 
ATOM     26  C   UNL     1      -1.193   9.892  17.478  0.00  0.00    +0.000 A 
ENDBRANCH  20  21
ENDBRANCH  19  20
ENDBRANCH   6  19
TORSDOF 8
ENDMDL
MODEL 4
REMARK VINA RESULT:      -7.3      5.480      7.977
REMARK  Name = 
REMARK  9 active torsions:
REMARK  status: ('A' for Active; 'I' for Inactive)
REMARK    1  A    between atoms: C_1  and  O_2
REMARK    2  A    between atoms: O_2  and  C_3
REMARK    3  A    between atoms: C_3  and  C_4
REMARK    4  A    between atoms: C_6  and  C_7
REMARK    5  A    between atoms: C_7  and  O_8
REMARK    6  A    between atoms: O_8  and  C_9
REMARK    7  A    between atoms: C_14  and  C_16
REMARK    8  A    between atoms: C_16  and  C_17
REMARK    9  A    between atoms: C_17  and  C_18
REMARK                            x       y       z     vdW  Elec       q    Type
REMARK                         _______ _______ _______ _____ _____    ______ ____
ROOT
ATOM      1  C   UNL     1       7.844   7.469  17.716  0.00  0.00    +0.000 C 
ATOM      2  C   UNL     1       8.227   6.874  19.081  0.00  0.00    +0.000 C 
ATOM      3  C   UNL     1       7.645   5.479  19.292  0.00  0.00    +0.000 C 
ATOM      4  C   UNL     1       6.136   5.483  19.072  0.00  0.00    +0.000 C 
ATOM      5  N   UNL     1       5.836   5.985  17.734  0.00  0.00    +0.000 N 
ATOM      6  C   UNL     1       5.178   5.298  16.722  0.00  0.00    +0.000 C 
ATOM      7  O   UNL     1       5.014   5.783  15.601  0.00  0.00    +0.000 OA
ATOM      8  C   UNL     1       6.327   7.341  17.475  0.00  0.00    +0.000 C 
ENDROOT
BRANCH   1   9
ATOM      9  O   UNL     1       8.175   8.862  17.659  0.00  0.00    +0.000 OA
BRANCH   9  10
ATOM     10  C   UNL     1       8.815   9.360  18.841  0.00  0.00    +0.000 C 
BRANCH  10  13
ATOM     11  C   UNL     1      10.421  12.315  17.774  0.00  0.00    +0.000 A 
ATOM     12  N   UNL     1      10.158  11.046  17.551  0.00  0.00    +0.000 NA
ATOM     13  C   UNL     1       9.376  10.722  18.633  0.00  0.00    +0.000 A 
ATOM     14  N   UNL     1       9.163  11.727  19.499  0.00  0.00    +0.000 NA
ATOM     15  O   UNL     1       9.855  12.792  18.921  0.00  0.00    +0.000 OA
BRANCH  11  16
ATOM     16  C   UNL     1      11.176  13.287  16.952  0.00  0.00    +0.000 C 
BRANCH  16  18
ATOM     17  C   UNL     1      11.334  15.630  17.126  0.00  0.00    +0.000 C 
ATOM     18  O   UNL     1      11.537  14.390  17.787  0.00  0.00    +0.000 OA
ENDBRANCH  16  18
ENDBRANCH  11  16
ENDBRANCH  10  13
ENDBRANCH   9  10
ENDBRANCH   1   9
BRANCH   6  19
ATOM     19  C   UNL     1       4.604   3.936  17.062  0.00  0.00    +0.000 C 
BRANCH  19  20
ATOM     20  C   UNL     1       3.102   3.858  16.794  0.00  0.00    +0.000 C 
BRANCH  20  21
ATOM     21  C   UNL     1       2.350   3.838  18.105  0.00  0.00    +0.000 A 
ATOM     22  C   UNL     1       2.422   4.931  18.976  0.00  0.00    +0.000 A 
ATOM     23  C   UNL     1       1.800   4.881  20.223  0.00  0.00    +0.000 A 
ATOM     24  C   UNL     1       1.105   3.737  20.612  0.00  0.00    +0.000 A 
ATOM     25  C   UNL     1       1.023   2.646  19.750  0.00  0.00    +0.000 A 
ATOM     26  C   UNL     1       1.640   2.694  18.500  0.00  0.00    +0.000 A 
ENDBRANCH  20  21
ENDBRANCH  19  20
ENDBRANCH   6  19
TORSDOF 8
ENDMDL
MODEL 5
REMARK VINA RESULT:      -7.3      4.981      7.676
REMARK  Name = 
REMARK  9 active torsions:
REMARK  status: ('A' for Active; 'I' for Inactive)
REMARK    1  A    between atoms: C_1  and  O_2
REMARK    2  A    between atoms: O_2  and  C_3
REMARK    3  A    between atoms: C_3  and  C_4
REMARK    4  A    between atoms: C_6  and  C_7
REMARK    5  A    between atoms: C_7  and  O_8
REMARK    6  A    between atoms: O_8  and  C_9
REMARK    7  A    between atoms: C_14  and  C_16
REMARK    8  A    between atoms: C_16  and  C_17
REMARK    9  A    between atoms: C_17  and  C_18
REMARK                            x       y       z     vdW  Elec       q    Type
REMARK                         _______ _______ _______ _____ _____    ______ ____
ROOT
ATOM      1  C   UNL     1       7.670   6.718  17.408  0.00  0.00    +0.000 C 
ATOM      2  C   UNL     1       7.822   6.463  18.916  0.00  0.00    +0.000 C 
ATOM      3  C   UNL     1       7.089   5.206  19.373  0.00  0.00    +0.000 C 
ATOM      4  C   UNL     1       5.626   5.247  18.944  0.00  0.00    +0.000 C 
ATOM      5  N   UNL     1       5.544   5.412  17.495  0.00  0.00    +0.000 N 
ATOM      6  C   UNL     1       4.953   4.534  16.595  0.00  0.00    +0.000 C 
ATOM      7  O   UNL     1       4.977   4.729  15.379  0.00  0.00    +0.000 OA
ATOM      8  C   UNL     1       6.189   6.626  16.990  0.00  0.00    +0.000 C 
ENDROOT
BRANCH   1   9
ATOM      9  O   UNL     1       8.136   8.028  17.064  0.00  0.00    +0.000 OA
BRANCH   9  10
ATOM     10  C   UNL     1       7.505   9.084  17.800  0.00  0.00    +0.000 C 
BRANCH  10  13
ATOM     11  C   UNL     1       9.589  11.854  18.464  0.00  0.00    +0.000 A 
ATOM     12  N   UNL     1       8.622  11.334  17.739  0.00  0.00    +0.000 NA
ATOM     13  C   UNL     1       8.494  10.082  18.289  0.00  0.00    +0.000 A 
ATOM     14  N   UNL     1       9.339   9.819  19.301  0.00  0.00    +0.000 NA
ATOM     15  O   UNL     1      10.065  11.006  19.421  0.00  0.00    +0.000 OA
BRANCH  11  16
ATOM     16  C   UNL     1      10.179  13.211  18.425  0.00  0.00    +0.000 C 
BRANCH  16  18
ATOM     17  C   UNL     1      12.333  14.157  18.529  0.00  0.00    +0.000 C 
ATOM     18  O   UNL     1      11.547  13.089  18.023  0.00  0.00    +0.000 OA
ENDBRANCH  16  18
ENDBRANCH  11  16
ENDBRANCH  10  13
ENDBRANCH   9  10
ENDBRANCH   1   9
BRANCH   6  19
ATOM     19  C   UNL     1       4.215   3.340  17.168  0.00  0.00    +0.000 C 
BRANCH  19  20
ATOM     20  C   UNL     1       2.699   3.533  17.149  0.00  0.00    +0.000 C 
BRANCH  20  21
ATOM     21  C   UNL     1       2.170   3.560  18.564  0.00  0.00    +0.000 A 
ATOM     22  C   UNL     1       2.002   4.778  19.231  0.00  0.00    +0.000 A 
ATOM     23  C   UNL     1       1.596   4.801  20.565  0.00  0.00    +0.000 A 
ATOM     24  C   UNL     1       1.359   3.608  21.245  0.00  0.00    +0.000 A 
ATOM     25  C   UNL     1       1.517   2.389  20.588  0.00  0.00    +0.000 A 
ATOM     26  C   UNL     1       1.919   2.363  19.252  0.00  0.00    +0.000 A 
ENDBRANCH  20  21
ENDBRANCH  19  20
ENDBRANCH   6  19
TORSDOF 8
ENDMDL
MODEL 6
REMARK VINA RESULT:      -7.3      2.974      4.892
REMARK  Name = 
REMARK  9 active torsions:
REMARK  status: ('A' for Active; 'I' for Inactive)
REMARK    1  A    between atoms: C_1  and  O_2
REMARK    2  A    between atoms: O_2  and  C_3
REMARK    3  A    between atoms: C_3  and  C_4
REMARK    4  A    between atoms: C_6  and  C_7
REMARK    5  A    between atoms: C_7  and  O_8
REMARK    6  A    between atoms: O_8  and  C_9
REMARK    7  A    between atoms: C_14  and  C_16
REMARK    8  A    between atoms: C_16  and  C_17
REMARK    9  A    between atoms: C_17  and  C_18
REMARK                            x       y       z     vdW  Elec       q    Type
REMARK                         _______ _______ _______ _____ _____    ______ ____
ROOT
ATOM      1  C   UNL     1       4.925   5.618  16.354  0.00  0.00    +0.000 C 
ATOM      2  C   UNL     1       5.750   4.607  17.167  0.00  0.00    +0.000 C 
ATOM      3  C   UNL     1       5.129   4.308  18.529  0.00  0.00    +0.000 C 
ATOM      4  C   UNL     1       4.878   5.597  19.304  0.00  0.00    +0.000 C 
ATOM      5  N   UNL     1       4.028   6.486  18.516  0.00  0.00    +0.000 N 
ATOM      6  C   UNL     1       2.775   6.967  18.878  0.00  0.00    +0.000 C 
ATOM      7  O   UNL     1       2.103   7.673  18.126  0.00  0.00    +0.000 OA
ATOM      8  C   UNL     1       4.584   6.853  17.212  0.00  0.00    +0.000 C 
ENDROOT
BRANCH   1   9
ATOM      9  O   UNL     1       5.662   6.075  15.214  0.00  0.00    +0.000 OA
BRANCH   9  10
ATOM     10  C   UNL     1       6.867   5.339  14.964  0.00  0.00    +0.000 C 
BRANCH  10  13
ATOM     11  C   UNL     1       6.156   3.165  12.276  0.00  0.00    +0.000 A 
ATOM     12  N   UNL     1       5.866   3.562  13.497  0.00  0.00    +0.000 NA
ATOM     13  C   UNL     1       6.786   4.562  13.698  0.00  0.00    +0.000 A 
ATOM     14  N   UNL     1       7.620   4.780  12.667  0.00  0.00    +0.000 NA
ATOM     15  O   UNL     1       7.193   3.852  11.715  0.00  0.00    +0.000 OA
BRANCH  11  16
ATOM     16  C   UNL     1       5.498   2.145  11.429  0.00  0.00    +0.000 C 
BRANCH  16  18
ATOM     17  C   UNL     1       6.123  -0.122  11.308  0.00  0.00    +0.000 C 
ATOM     18  O   UNL     1       6.495   1.213  11.001  0.00  0.00    +0.000 OA
ENDBRANCH  16  18
ENDBRANCH  11  16
ENDBRANCH  10  13
ENDBRANCH   9  10
ENDBRANCH   1   9
BRANCH   6  19
ATOM     19  C   UNL     1       2.280   6.641  20.274  0.00  0.00    +0.000 C 
BRANCH  19  20
ATOM     20  C   UNL     1       1.113   5.654  20.258  0.00  0.00    +0.000 C 
BRANCH  20  21
ATOM     21  C   UNL     1       1.587   4.312  19.752  0.00  0.00    +0.000 A 
ATOM     22  C   UNL     1       1.377   3.946  18.417  0.00  0.00    +0.000 A 
ATOM     23  C   UNL     1       1.737   2.676  17.970  0.00  0.00    +0.000 A 
ATOM     24  C   UNL     1       2.305   1.758  18.852  0.00  0.00    +0.000 A 
ATOM     25  C   UNL     1       2.523   2.113  20.181  0.00  0.00    +0.000 A 
ATOM     26  C   UNL     1       2.170   3.385  20.631  0.00  0.00    +0.000 A 
ENDBRANCH  20  21
ENDBRANCH  19  20
ENDBRANCH   6  19
TORSDOF 8
ENDMDL
MODEL 7
REMARK VINA RESULT:      -7.3      0.723      1.228
REMARK  Name = 
REMARK  9 active torsions:
REMARK  status: ('A' for Active; 'I' for Inactive)
REMARK    1  A    between atoms: C_1  and  O_2
REMARK    2  A    between atoms: O_2  and  C_3
REMARK    3  A    between atoms: C_3  and  C_4
REMARK    4  A    between atoms: C_6  and  C_7
REMARK    5  A    between atoms: C_7  and  O_8
REMARK    6  A    between atoms: O_8  and  C_9
REMARK    7  A    between atoms: C_14  and  C_16
REMARK    8  A    between atoms: C_16  and  C_17
REMARK    9  A    between atoms: C_17  and  C_18
REMARK                            x       y       z     vdW  Elec       q    Type
REMARK                         _______ _______ _______ _____ _____    ______ ____
ROOT
ATOM      1  C   UNL     1       3.813   4.290  18.280  0.00  0.00    +0.000 C 
ATOM      2  C   UNL     1       2.993   3.417  19.244  0.00  0.00    +0.000 C 
ATOM      3  C   UNL     1       1.732   4.119  19.740  0.00  0.00    +0.000 C 
ATOM      4  C   UNL     1       2.073   5.477  20.346  0.00  0.00    +0.000 C 
ATOM      5  N   UNL     1       2.781   6.290  19.361  0.00  0.00    +0.000 N 
ATOM      6  C   UNL     1       2.370   7.515  18.851  0.00  0.00    +0.000 C 
ATOM      7  O   UNL     1       3.007   8.109  17.980  0.00  0.00    +0.000 OA
ATOM      8  C   UNL     1       4.028   5.697  18.874  0.00  0.00    +0.000 C 
ENDROOT
BRANCH   1   9
ATOM      9  O   UNL     1       5.104   3.716  18.048  0.00  0.00    +0.000 OA
BRANCH   9  10
ATOM     10  C   UNL     1       6.157   4.680  17.916  0.00  0.00    +0.000 C 
BRANCH  10  13
ATOM     11  C   UNL     1       6.797   4.476  14.451  0.00  0.00    +0.000 A 
ATOM     12  N   UNL     1       6.168   3.991  15.500  0.00  0.00    +0.000 NA
ATOM     13  C   UNL     1       6.598   4.826  16.503  0.00  0.00    +0.000 A 
ATOM     14  N   UNL     1       7.459   5.781  16.114  0.00  0.00    +0.000 NA
ATOM     15  O   UNL     1       7.585   5.551  14.742  0.00  0.00    +0.000 OA
BRANCH  11  16
ATOM     16  C   UNL     1       6.728   4.067  13.031  0.00  0.00    +0.000 C 
BRANCH  16  18
ATOM     17  C   UNL     1       5.441   2.590  11.724  0.00  0.00    +0.000 C 
ATOM     18  O   UNL     1       5.424   3.532  12.786  0.00  0.00    +0.000 OA
ENDBRANCH  16  18
ENDBRANCH  11  16
ENDBRANCH  10  13
ENDBRANCH   9  10
ENDBRANCH   1   9
BRANCH   6  19
ATOM     19  C   UNL     1       1.124   8.138  19.452  0.00  0.00    +0.000 C 
BRANCH  19  20
ATOM     20  C   UNL     1       1.293   9.634  19.711  0.00  0.00    +0.000 C 
BRANCH  20  21
ATOM     21  C   UNL     1       0.412  10.054  20.865  0.00  0.00    +0.000 A 
ATOM     22  C   UNL     1      -0.298  11.259  20.809  0.00  0.00    +0.000 A 
ATOM     23  C   UNL     1      -1.043  11.690  21.905  0.00  0.00    +0.000 A 
ATOM     24  C   UNL     1      -1.082  10.924  23.069  0.00  0.00    +0.000 A 
ATOM     25  C   UNL     1      -0.384   9.720  23.134  0.00  0.00    +0.000 A 
ATOM     26  C   UNL     1       0.358   9.283  22.037  0.00  0.00    +0.000 A 
ENDBRANCH  20  21
ENDBRANCH  19  20
ENDBRANCH   6  19
TORSDOF 8
ENDMDL
MODEL 8
REMARK VINA RESULT:      -7.2      5.350      8.036
REMARK  Name = 
REMARK  9 active torsions:
REMARK  status: ('A' for Active; 'I' for Inactive)
REMARK    1  A    between atoms: C_1  and  O_2
REMARK    2  A    between atoms: O_2  and  C_3
REMARK    3  A    between atoms: C_3  and  C_4
REMARK    4  A    between atoms: C_6  and  C_7
REMARK    5  A    between atoms: C_7  and  O_8
REMARK    6  A    between atoms: O_8  and  C_9
REMARK    7  A    between atoms: C_14  and  C_16
REMARK    8  A    between atoms: C_16  and  C_17
REMARK    9  A    between atoms: C_17  and  C_18
REMARK                            x       y       z     vdW  Elec       q    Type
REMARK                         _______ _______ _______ _____ _____    ______ ____
ROOT
ATOM      1  C   UNL     1       7.843   7.680  17.630  0.00  0.00    +0.000 C 
ATOM      2  C   UNL     1       8.306   7.072  18.964  0.00  0.00    +0.000 C 
ATOM      3  C   UNL     1       7.795   5.648  19.165  0.00  0.00    +0.000 C 
ATOM      4  C   UNL     1       6.279   5.590  19.005  0.00  0.00    +0.000 C 
ATOM      5  N   UNL     1       5.904   6.109  17.692  0.00  0.00    +0.000 N 
ATOM      6  C   UNL     1       5.235   5.416  16.691  0.00  0.00    +0.000 C 
ATOM      7  O   UNL     1       5.005   5.918  15.589  0.00  0.00    +0.000 OA
ATOM      8  C   UNL     1       6.324   7.490  17.447  0.00  0.00    +0.000 C 
ENDROOT
BRANCH   1   9
ATOM      9  O   UNL     1       8.110   9.086  17.594  0.00  0.00    +0.000 OA
BRANCH   9  10
ATOM     10  C   UNL     1       8.803   9.580  18.748  0.00  0.00    +0.000 C 
BRANCH  10  13
ATOM     11  C   UNL     1       9.827  12.954  18.590  0.00  0.00    +0.000 A 
ATOM     12  N   UNL     1       9.013  12.058  19.106  0.00  0.00    +0.000 NA
ATOM     13  C   UNL     1       9.431  10.904  18.490  0.00  0.00    +0.000 A 
ATOM     14  N   UNL     1      10.447  11.060  17.624  0.00  0.00    +0.000 NA
ATOM     15  O   UNL     1      10.716  12.428  17.698  0.00  0.00    +0.000 OA
BRANCH  11  16
ATOM     16  C   UNL     1       9.949  14.401  18.875  0.00  0.00    +0.000 C 
BRANCH  16  18
ATOM     17  C   UNL     1       8.120  15.561  17.950  0.00  0.00    +0.000 C 
ATOM     18  O   UNL     1       9.453  15.120  17.741  0.00  0.00    +0.000 OA
ENDBRANCH  16  18
ENDBRANCH  11  16
ENDBRANCH  10  13
ENDBRANCH   9  10
ENDBRANCH   1   9
BRANCH   6  19
ATOM     19  C   UNL     1       4.735   4.023  17.020  0.00  0.00    +0.000 C 
BRANCH  19  20
ATOM     20  C   UNL     1       3.230   3.881  16.800  0.00  0.00    +0.000 C 
BRANCH  20  21
ATOM     21  C   UNL     1       2.519   3.853  18.133  0.00  0.00    +0.000 A 
ATOM     22  C   UNL     1       1.783   2.726  18.517  0.00  0.00    +0.000 A 
ATOM     23  C   UNL     1       1.057   2.731  19.707  0.00  0.00    +0.000 A 
ATOM     24  C   UNL     1       1.056   3.862  20.522  0.00  0.00    +0.000 A 
ATOM     25  C   UNL     1       1.790   4.987  20.152  0.00  0.00    +0.000 A 
ATOM     26  C   UNL     1       2.521   4.984  18.964  0.00  0.00    +0.000 A 
ENDBRANCH  20  21
ENDBRANCH  19  20
ENDBRANCH   6  19
TORSDOF 8
ENDMDL
MODEL 9
REMARK VINA RESULT:      -7.2      0.551      1.095
REMARK  Name = 
REMARK  9 active torsions:
REMARK  status: ('A' for Active; 'I' for Inactive)
REMARK    1  A    between atoms: C_1  and  O_2
REMARK    2  A    between atoms: O_2  and  C_3
REMARK    3  A    between atoms: C_3  and  C_4
REMARK    4  A    between atoms: C_6  and  C_7
REMARK    5  A    between atoms: C_7  and  O_8
REMARK    6  A    between atoms: O_8  and  C_9
REMARK    7  A    between atoms: C_14  and  C_16
REMARK    8  A    between atoms: C_16  and  C_17
REMARK    9  A    between atoms: C_17  and  C_18
REMARK                            x       y       z     vdW  Elec       q    Type
REMARK                         _______ _______ _______ _____ _____    ______ ____
ROOT
ATOM      1  C   UNL     1       2.737   4.245  17.875  0.00  0.00    +0.000 C 
ATOM      2  C   UNL     1       2.364   3.096  18.827  0.00  0.00    +0.000 C 
ATOM      3  C   UNL     1       1.536   3.569  20.018  0.00  0.00    +0.000 C 
ATOM      4  C   UNL     1       2.239   4.709  20.746  0.00  0.00    +0.000 C 
ATOM      5  N   UNL     1       2.499   5.802  19.812  0.00  0.00    +0.000 N 
ATOM      6  C   UNL     1       2.018   7.103  19.907  0.00  0.00    +0.000 C 
ATOM      7  O   UNL     1       2.245   7.949  19.042  0.00  0.00    +0.000 OA
ATOM      8  C   UNL     1       3.328   5.430  18.664  0.00  0.00    +0.000 C 
ENDROOT
BRANCH   1   9
ATOM      9  O   UNL     1       3.723   3.820  16.929  0.00  0.00    +0.000 OA
BRANCH   9  10
ATOM     10  C   UNL     1       5.012   4.418  17.119  0.00  0.00    +0.000 C 
BRANCH  10  13
ATOM     11  C   UNL     1       6.428   4.288  13.889  0.00  0.00    +0.000 A 
ATOM     12  N   UNL     1       5.679   3.709  14.803  0.00  0.00    +0.000 NA
ATOM     13  C   UNL     1       5.722   4.623  15.828  0.00  0.00    +0.000 A 
ATOM     14  N   UNL     1       6.464   5.716  15.582  0.00  0.00    +0.000 NA
ATOM     15  O   UNL     1       6.929   5.494  14.284  0.00  0.00    +0.000 OA
BRANCH  11  16
ATOM     16  C   UNL     1       6.748   3.854  12.511  0.00  0.00    +0.000 C 
BRANCH  16  18
ATOM     17  C   UNL     1       4.623   3.339  11.637  0.00  0.00    +0.000 C 
ATOM     18  O   UNL     1       5.837   2.812  12.151  0.00  0.00    +0.000 OA
ENDBRANCH  16  18
ENDBRANCH  11  16
ENDBRANCH  10  13
ENDBRANCH   9  10
ENDBRANCH   1   9
BRANCH   6  19
ATOM     19  C   UNL     1       1.243   7.470  21.158  0.00  0.00    +0.000 C 
BRANCH  19  20
ATOM     20  C   UNL     1       1.754   8.760  21.797  0.00  0.00    +0.000 C 
BRANCH  20  21
ATOM     21  C   UNL     1       0.647   9.788  21.828  0.00  0.00    +0.000 A 
ATOM     22  C   UNL     1       0.524  10.724  20.796  0.00  0.00    +0.000 A 
ATOM     23  C   UNL     1      -0.443  11.726  20.864  0.00  0.00    +0.000 A 
ATOM     24  C   UNL     1      -1.293  11.804  21.967  0.00  0.00    +0.000 A 
ATOM     25  C   UNL     1      -1.183  10.873  22.998  0.00  0.00    +0.000 A 
ATOM     26  C   UNL     1      -0.219   9.867  22.930  0.00  0.00    +0.000 A 
ENDBRANCH  20  21
ENDBRANCH  19  20
ENDBRANCH   6  19
TORSDOF 8
ENDMDL
