MODEL 1
REMARK VINA RESULT:      -8.4      0.000      0.000
REMARK  Name = 
REMARK  1 active torsions:
REMARK  status: ('A' for Active; 'I' for Inactive)
REMARK    1  A    between atoms: C_12  and  C_13
REMARK                            x       y       z     vdW  Elec       q    Type
REMARK                         _______ _______ _______ _____ _____    ______ ____
ROOT
ATOM      1  O   UNL     1       0.865  11.314  18.555  0.00  0.00    +0.000 OA
ATOM      2  C   UNL     1       0.804  10.484  19.434  0.00  0.00    +0.000 C 
ATOM      3  C   UNL     1       0.115  10.607  20.738  0.00  0.00    +0.000 A 
ATOM      4  C   UNL     1      -0.607  11.665  21.251  0.00  0.00    +0.000 A 
ATOM      5  C   UNL     1      -1.147  11.500  22.527  0.00  0.00    +0.000 A 
ATOM      6  C   UNL     1      -0.951  10.302  23.245  0.00  0.00    +0.000 A 
ATOM      7  C   UNL     1      -0.214   9.241  22.701  0.00  0.00    +0.000 A 
ATOM      8  C   UNL     1       0.318   9.403  21.436  0.00  0.00    +0.000 A 
ATOM      9  C   UNL     1       1.108   8.530  20.607  0.00  0.00    +0.000 A 
ATOM     10  N   UNL     1       1.516   7.294  20.892  0.00  0.00    +0.000 NA
ATOM     11  N   UNL     1       2.277   6.645  19.941  0.00  0.00    +0.000 NA
ATOM     12  C   UNL     1       2.608   7.237  18.749  0.00  0.00    +0.000 A 
ATOM     13  C   UNL     1       2.170   8.521  18.444  0.00  0.00    +0.000 A 
ATOM     14  C   UNL     1       1.416   9.145  19.408  0.00  0.00    +0.000 A 
ENDROOT
BRANCH  12  15
ATOM     15  C   UNL     1       3.449   6.438  17.836  0.00  0.00    +0.000 A 
ATOM     16  C   UNL     1       4.390   7.058  16.991  0.00  0.00    +0.000 A 
ATOM     17  C   UNL     1       5.194   6.311  16.122  0.00  0.00    +0.000 A 
ATOM     18  C   UNL     1       5.065   4.927  16.080  0.00  0.00    +0.000 A 
ATOM     19 BR   UNL     1       6.143   3.913  14.905  0.00  0.00    +0.000 Br
ATOM     20  C   UNL     1       4.141   4.285  16.897  0.00  0.00    +0.000 A 
ATOM     21  C   UNL     1       3.340   5.036  17.765  0.00  0.00    +0.000 A 
ENDBRANCH  12  15
TORSDOF 1
ENDMDL
MODEL 2
REMARK VINA RESULT:      -8.4      0.029      1.052
REMARK  Name = 
REMARK  1 active torsions:
REMARK  status: ('A' for Active; 'I' for Inactive)
REMARK    1  A    between atoms: C_12  and  C_13
REMARK                            x       y       z     vdW  Elec       q    Type
REMARK                         _______ _______ _______ _____ _____    ______ ____
ROOT
ATOM      1  O   UNL     1       0.820  11.325  18.541  0.00  0.00    +0.000 OA
ATOM      2  C   UNL     1       0.772  10.498  19.424  0.00  0.00    +0.000 C 
ATOM      3  C   UNL     1       0.089  10.618  20.732  0.00  0.00    +0.000 A 
ATOM      4  C   UNL     1      -0.642  11.671  21.244  0.00  0.00    +0.000 A 
ATOM      5  C   UNL     1      -1.172  11.504  22.524  0.00  0.00    +0.000 A 
ATOM      6  C   UNL     1      -0.959  10.311  23.246  0.00  0.00    +0.000 A 
ATOM      7  C   UNL     1      -0.214   9.257  22.702  0.00  0.00    +0.000 A 
ATOM      8  C   UNL     1       0.310   9.420  21.433  0.00  0.00    +0.000 A 
ATOM      9  C   UNL     1       1.104   8.553  20.603  0.00  0.00    +0.000 A 
ATOM     10  N   UNL     1       1.527   7.322  20.891  0.00  0.00    +0.000 NA
ATOM     11  N   UNL     1       2.290   6.678  19.938  0.00  0.00    +0.000 NA
ATOM     12  C   UNL     1       2.608   7.269  18.742  0.00  0.00    +0.000 A 
ATOM     13  C   UNL     1       2.154   8.546  18.434  0.00  0.00    +0.000 A 
ATOM     14  C   UNL     1       1.399   9.166  19.400  0.00  0.00    +0.000 A 
ENDROOT
BRANCH  12  15
ATOM     15  C   UNL     1       3.452   6.475  17.827  0.00  0.00    +0.000 A 
ATOM     16  C   UNL     1       3.335   5.073  17.767  0.00  0.00    +0.000 A 
ATOM     17  C   UNL     1       4.129   4.310  16.903  0.00  0.00    +0.000 A 
ATOM     18  C   UNL     1       5.061   4.940  16.085  0.00  0.00    +0.000 A 
ATOM     19 BR   UNL     1       6.140   3.916  14.920  0.00  0.00    +0.000 Br
ATOM     20  C   UNL     1       5.206   6.322  16.124  0.00  0.00    +0.000 A 
ATOM     21  C   UNL     1       4.409   7.080  16.990  0.00  0.00    +0.000 A 
ENDBRANCH  12  15
TORSDOF 1
ENDMDL
MODEL 3
REMARK VINA RESULT:      -8.0      3.687      7.770
REMARK  Name = 
REMARK  1 active torsions:
REMARK  status: ('A' for Active; 'I' for Inactive)
REMARK    1  A    between atoms: C_12  and  C_13
REMARK                            x       y       z     vdW  Elec       q    Type
REMARK                         _______ _______ _______ _____ _____    ______ ____
ROOT
ATOM      1  O   UNL     1       3.469   4.384  19.888  0.00  0.00    +0.000 OA
ATOM      2  C   UNL     1       3.591   5.216  19.017  0.00  0.00    +0.000 C 
ATOM      3  C   UNL     1       4.398   5.109  17.780  0.00  0.00    +0.000 A 
ATOM      4  C   UNL     1       5.179   4.063  17.332  0.00  0.00    +0.000 A 
ATOM      5  C   UNL     1       5.839   4.247  16.116  0.00  0.00    +0.000 A 
ATOM      6  C   UNL     1       5.705   5.451  15.395  0.00  0.00    +0.000 A 
ATOM      7  C   UNL     1       4.905   6.498  15.872  0.00  0.00    +0.000 A 
ATOM      8  C   UNL     1       4.247   6.316  17.074  0.00  0.00    +0.000 A 
ATOM      9  C   UNL     1       3.369   7.171  17.828  0.00  0.00    +0.000 A 
ATOM     10  N   UNL     1       2.963   8.400  17.507  0.00  0.00    +0.000 NA
ATOM     11  N   UNL     1       2.121   9.039  18.393  0.00  0.00    +0.000 NA
ATOM     12  C   UNL     1       1.713   8.447  19.561  0.00  0.00    +0.000 A 
ATOM     13  C   UNL     1       2.123   7.160  19.891  0.00  0.00    +0.000 A 
ATOM     14  C   UNL     1       2.962   6.547  18.992  0.00  0.00    +0.000 A 
ENDROOT
BRANCH  12  15
ATOM     15  C   UNL     1       0.833   9.255  20.429  0.00  0.00    +0.000 A 
ATOM     16  C   UNL     1       0.112  10.348  19.910  0.00  0.00    +0.000 A 
ATOM     17  C   UNL     1      -0.725  11.122  20.722  0.00  0.00    +0.000 A 
ATOM     18  C   UNL     1      -0.853  10.815  22.073  0.00  0.00    +0.000 A 
ATOM     19 BR   UNL     1      -1.978  11.858  23.176  0.00  0.00    +0.000 Br
ATOM     20  C   UNL     1      -0.150   9.746  22.617  0.00  0.00    +0.000 A 
ATOM     21  C   UNL     1       0.686   8.976  21.801  0.00  0.00    +0.000 A 
ENDBRANCH  12  15
TORSDOF 1
ENDMDL
MODEL 4
REMARK VINA RESULT:      -7.9      3.640      7.866
REMARK  Name = 
REMARK  1 active torsions:
REMARK  status: ('A' for Active; 'I' for Inactive)
REMARK    1  A    between atoms: C_12  and  C_13
REMARK                            x       y       z     vdW  Elec       q    Type
REMARK                         _______ _______ _______ _____ _____    ______ ____
ROOT
ATOM      1  O   UNL     1       3.382   3.963  19.340  0.00  0.00    +0.000 OA
ATOM      2  C   UNL     1       3.620   4.850  18.552  0.00  0.00    +0.000 C 
ATOM      3  C   UNL     1       4.483   4.776  17.351  0.00  0.00    +0.000 A 
ATOM      4  C   UNL     1       5.199   3.708  16.852  0.00  0.00    +0.000 A 
ATOM      5  C   UNL     1       5.939   3.933  15.690  0.00  0.00    +0.000 A 
ATOM      6  C   UNL     1       5.944   5.201  15.071  0.00  0.00    +0.000 A 
ATOM      7  C   UNL     1       5.208   6.269  15.599  0.00  0.00    +0.000 A 
ATOM      8  C   UNL     1       4.472   6.046  16.747  0.00  0.00    +0.000 A 
ATOM      9  C   UNL     1       3.627   6.909  17.529  0.00  0.00    +0.000 A 
ATOM     10  N   UNL     1       3.342   8.190  17.297  0.00  0.00    +0.000 NA
ATOM     11  N   UNL     1       2.507   8.824  18.195  0.00  0.00    +0.000 NA
ATOM     12  C   UNL     1       1.987   8.176  19.285  0.00  0.00    +0.000 A 
ATOM     13  C   UNL     1       2.271   6.835  19.521  0.00  0.00    +0.000 A 
ATOM     14  C   UNL     1       3.106   6.228  18.613  0.00  0.00    +0.000 A 
ENDROOT
BRANCH  12  15
ATOM     15  C   UNL     1       1.130   8.982  20.176  0.00  0.00    +0.000 A 
ATOM     16  C   UNL     1       0.938   8.615  21.522  0.00  0.00    +0.000 A 
ATOM     17  C   UNL     1       0.129   9.373  22.377  0.00  0.00    +0.000 A 
ATOM     18  C   UNL     1      -0.507  10.512  21.896  0.00  0.00    +0.000 A 
ATOM     19 BR   UNL     1      -1.605  11.536  23.044  0.00  0.00    +0.000 Br
ATOM     20  C   UNL     1      -0.343  10.899  20.571  0.00  0.00    +0.000 A 
ATOM     21  C   UNL     1       0.467  10.138  19.720  0.00  0.00    +0.000 A 
ENDBRANCH  12  15
TORSDOF 1
ENDMDL
MODEL 5
REMARK VINA RESULT:      -7.8      3.865      7.744
REMARK  Name = 
REMARK  1 active torsions:
REMARK  status: ('A' for Active; 'I' for Inactive)
REMARK    1  A    between atoms: C_12  and  C_13
REMARK                            x       y       z     vdW  Elec       q    Type
REMARK                         _______ _______ _______ _____ _____    ______ ____
ROOT
ATOM      1  O   UNL     1       1.835   4.041  21.412  0.00  0.00    +0.000 OA
ATOM      2  C   UNL     1       2.199   4.670  20.443  0.00  0.00    +0.000 C 
ATOM      3  C   UNL     1       2.979   4.168  19.289  0.00  0.00    +0.000 A 
ATOM      4  C   UNL     1       3.461   2.899  19.043  0.00  0.00    +0.000 A 
ATOM      5  C   UNL     1       4.178   2.717  17.859  0.00  0.00    +0.000 A 
ATOM      6  C   UNL     1       4.391   3.791  16.970  0.00  0.00    +0.000 A 
ATOM      7  C   UNL     1       3.890   5.070  17.244  0.00  0.00    +0.000 A 
ATOM      8  C   UNL     1       3.177   5.251  18.414  0.00  0.00    +0.000 A 
ATOM      9  C   UNL     1       2.542   6.411  18.982  0.00  0.00    +0.000 A 
ATOM     10  N   UNL     1       2.490   7.639  18.468  0.00  0.00    +0.000 NA
ATOM     11  N   UNL     1       1.828   8.603  19.200  0.00  0.00    +0.000 NA
ATOM     12  C   UNL     1       1.246   8.323  20.409  0.00  0.00    +0.000 A 
ATOM     13  C   UNL     1       1.286   7.039  20.941  0.00  0.00    +0.000 A 
ATOM     14  C   UNL     1       1.952   6.099  20.193  0.00  0.00    +0.000 A 
ENDROOT
BRANCH  12  15
ATOM     15  C   UNL     1       0.594   9.456  21.097  0.00  0.00    +0.000 A 
ATOM     16  C   UNL     1       0.734  10.772  20.615  0.00  0.00    +0.000 A 
ATOM     17  C   UNL     1       0.120  11.854  21.258  0.00  0.00    +0.000 A 
ATOM     18  C   UNL     1      -0.644  11.636  22.399  0.00  0.00    +0.000 A 
ATOM     19 BR   UNL     1      -1.471  13.092  23.274  0.00  0.00    +0.000 Br
ATOM     20  C   UNL     1      -0.798  10.349  22.903  0.00  0.00    +0.000 A 
ATOM     21  C   UNL     1      -0.181   9.271  22.257  0.00  0.00    +0.000 A 
ENDBRANCH  12  15
TORSDOF 1
ENDMDL
MODEL 6
REMARK VINA RESULT:      -7.8      3.856      7.811
REMARK  Name = 
REMARK  1 active torsions:
REMARK  status: ('A' for Active; 'I' for Inactive)
REMARK    1  A    between atoms: C_12  and  C_13
REMARK                            x       y       z     vdW  Elec       q    Type
REMARK                         _______ _______ _______ _____ _____    ______ ____
ROOT
ATOM      1  O   UNL     1       2.282   4.574  21.311  0.00  0.00    +0.000 OA
ATOM      2  C   UNL     1       2.536   5.261  20.346  0.00  0.00    +0.000 C 
ATOM      3  C   UNL     1       3.369   4.894  19.178  0.00  0.00    +0.000 A 
ATOM      4  C   UNL     1       4.033   3.715  18.912  0.00  0.00    +0.000 A 
ATOM      5  C   UNL     1       4.755   3.654  17.720  0.00  0.00    +0.000 A 
ATOM      6  C   UNL     1       4.795   4.757  16.842  0.00  0.00    +0.000 A 
ATOM      7  C   UNL     1       4.111   5.944  17.135  0.00  0.00    +0.000 A 
ATOM      8  C   UNL     1       3.392   6.004  18.315  0.00  0.00    +0.000 A 
ATOM      9  C   UNL     1       2.597   7.049  18.903  0.00  0.00    +0.000 A 
ATOM     10  N   UNL     1       2.356   8.261  18.404  0.00  0.00    +0.000 NA
ATOM     11  N   UNL     1       1.565   9.107  19.154  0.00  0.00    +0.000 NA
ATOM     12  C   UNL     1       1.045   8.730  20.366  0.00  0.00    +0.000 A 
ATOM     13  C   UNL     1       1.284   7.461  20.881  0.00  0.00    +0.000 A 
ATOM     14  C   UNL     1       2.075   6.640  20.116  0.00  0.00    +0.000 A 
ENDROOT
BRANCH  12  15
ATOM     15  C   UNL     1       0.239   9.745  21.073  0.00  0.00    +0.000 A 
ATOM     16  C   UNL     1      -0.143   9.558  22.416  0.00  0.00    +0.000 A 
ATOM     17  C   UNL     1      -0.906  10.513  23.098  0.00  0.00    +0.000 A 
ATOM     18  C   UNL     1      -1.306  11.673  22.443  0.00  0.00    +0.000 A 
ATOM     19 BR   UNL     1      -2.341  12.964  23.355  0.00  0.00    +0.000 Br
ATOM     20  C   UNL     1      -0.951  11.885  21.115  0.00  0.00    +0.000 A 
ATOM     21  C   UNL     1      -0.187  10.927  20.438  0.00  0.00    +0.000 A 
ENDBRANCH  12  15
TORSDOF 1
ENDMDL
MODEL 7
REMARK VINA RESULT:      -7.5      1.815      2.589
REMARK  Name = 
REMARK  1 active torsions:
REMARK  status: ('A' for Active; 'I' for Inactive)
REMARK    1  A    between atoms: C_12  and  C_13
REMARK                            x       y       z     vdW  Elec       q    Type
REMARK                         _______ _______ _______ _____ _____    ______ ____
ROOT
ATOM      1  O   UNL     1       0.915   9.260  23.015  0.00  0.00    +0.000 OA
ATOM      2  C   UNL     1       0.497   9.741  21.985  0.00  0.00    +0.000 C 
ATOM      3  C   UNL     1      -0.492  10.833  21.842  0.00  0.00    +0.000 A 
ATOM      4  C   UNL     1      -1.153  11.550  22.818  0.00  0.00    +0.000 A 
ATOM      5  C   UNL     1      -2.045  12.531  22.383  0.00  0.00    +0.000 A 
ATOM      6  C   UNL     1      -2.251  12.763  21.007  0.00  0.00    +0.000 A 
ATOM      7  C   UNL     1      -1.566  12.021  20.036  0.00  0.00    +0.000 A 
ATOM      8  C   UNL     1      -0.679  11.051  20.465  0.00  0.00    +0.000 A 
ATOM      9  C   UNL     1       0.164  10.134  19.745  0.00  0.00    +0.000 A 
ATOM     10  N   UNL     1       0.290  10.018  18.423  0.00  0.00    +0.000 NA
ATOM     11  N   UNL     1       1.160   9.054  17.954  0.00  0.00    +0.000 NA
ATOM     12  C   UNL     1       1.869   8.242  18.802  0.00  0.00    +0.000 A 
ATOM     13  C   UNL     1       1.749   8.372  20.181  0.00  0.00    +0.000 A 
ATOM     14  C   UNL     1       0.876   9.337  20.621  0.00  0.00    +0.000 A 
ENDROOT
BRANCH  12  15
ATOM     15  C   UNL     1       2.742   7.237  18.164  0.00  0.00    +0.000 A 
ATOM     16  C   UNL     1       2.466   5.861  18.280  0.00  0.00    +0.000 A 
ATOM     17  C   UNL     1       3.286   4.899  17.678  0.00  0.00    +0.000 A 
ATOM     18  C   UNL     1       4.402   5.300  16.951  0.00  0.00    +0.000 A 
ATOM     19 BR   UNL     1       5.516   4.007  16.141  0.00  0.00    +0.000 Br
ATOM     20  C   UNL     1       4.706   6.651  16.823  0.00  0.00    +0.000 A 
ATOM     21  C   UNL     1       3.882   7.609  17.426  0.00  0.00    +0.000 A 
ENDBRANCH  12  15
TORSDOF 1
ENDMDL
MODEL 8
REMARK VINA RESULT:      -7.4      1.888      2.564
REMARK  Name = 
REMARK  1 active torsions:
REMARK  status: ('A' for Active; 'I' for Inactive)
REMARK    1  A    between atoms: C_12  and  C_13
REMARK                            x       y       z     vdW  Elec       q    Type
REMARK                         _______ _______ _______ _____ _____    ______ ____
ROOT
ATOM      1  O   UNL     1       0.418   9.227  23.238  0.00  0.00    +0.000 OA
ATOM      2  C   UNL     1       0.139   9.799  22.208  0.00  0.00    +0.000 C 
ATOM      3  C   UNL     1      -0.748  10.973  22.045  0.00  0.00    +0.000 A 
ATOM      4  C   UNL     1      -1.446  11.683  23.000  0.00  0.00    +0.000 A 
ATOM      5  C   UNL     1      -2.217  12.755  22.550  0.00  0.00    +0.000 A 
ATOM      6  C   UNL     1      -2.270  13.082  21.179  0.00  0.00    +0.000 A 
ATOM      7  C   UNL     1      -1.551  12.346  20.229  0.00  0.00    +0.000 A 
ATOM      8  C   UNL     1      -0.784  11.285  20.674  0.00  0.00    +0.000 A 
ATOM      9  C   UNL     1       0.055  10.347  19.977  0.00  0.00    +0.000 A 
ATOM     10  N   UNL     1       0.300  10.297  18.668  0.00  0.00    +0.000 NA
ATOM     11  N   UNL     1       1.138   9.297  18.219  0.00  0.00    +0.000 NA
ATOM     12  C   UNL     1       1.698   8.382  19.074  0.00  0.00    +0.000 A 
ATOM     13  C   UNL     1       1.456   8.441  20.441  0.00  0.00    +0.000 A 
ATOM     14  C   UNL     1       0.618   9.446  20.861  0.00  0.00    +0.000 A 
ENDROOT
BRANCH  12  15
ATOM     15  C   UNL     1       2.553   7.350  18.454  0.00  0.00    +0.000 A 
ATOM     16  C   UNL     1       3.605   7.706  17.589  0.00  0.00    +0.000 A 
ATOM     17  C   UNL     1       4.423   6.736  16.996  0.00  0.00    +0.000 A 
ATOM     18  C   UNL     1       4.197   5.389  17.258  0.00  0.00    +0.000 A 
ATOM     19 BR   UNL     1       5.293   4.074  16.457  0.00  0.00    +0.000 Br
ATOM     20  C   UNL     1       3.162   5.004  18.103  0.00  0.00    +0.000 A 
ATOM     21  C   UNL     1       2.348   5.977  18.693  0.00  0.00    +0.000 A 
ENDBRANCH  12  15
TORSDOF 1
ENDMDL
MODEL 9
REMARK VINA RESULT:      -7.3      3.479      7.463
REMARK  Name = 
REMARK  1 active torsions:
REMARK  status: ('A' for Active; 'I' for Inactive)
REMARK    1  A    between atoms: C_12  and  C_13
REMARK                            x       y       z     vdW  Elec       q    Type
REMARK                         _______ _______ _______ _____ _____    ______ ____
ROOT
ATOM      1  O   UNL     1       3.563   7.959  16.899  0.00  0.00    +0.000 OA
ATOM      2  C   UNL     1       3.270   7.127  17.729  0.00  0.00    +0.000 C 
ATOM      3  C   UNL     1       3.634   5.692  17.729  0.00  0.00    +0.000 A 
ATOM      4  C   UNL     1       4.380   4.978  16.814  0.00  0.00    +0.000 A 
ATOM      5  C   UNL     1       4.559   3.618  17.072  0.00  0.00    +0.000 A 
ATOM      6  C   UNL     1       3.996   3.020  18.219  0.00  0.00    +0.000 A 
ATOM      7  C   UNL     1       3.244   3.768  19.133  0.00  0.00    +0.000 A 
ATOM      8  C   UNL     1       3.068   5.116  18.880  0.00  0.00    +0.000 A 
ATOM      9  C   UNL     1       2.367   6.144  19.601  0.00  0.00    +0.000 A 
ATOM     10  N   UNL     1       1.698   6.018  20.747  0.00  0.00    +0.000 NA
ATOM     11  N   UNL     1       1.092   7.150  21.252  0.00  0.00    +0.000 NA
ATOM     12  C   UNL     1       1.163   8.360  20.610  0.00  0.00    +0.000 A 
ATOM     13  C   UNL     1       1.871   8.497  19.422  0.00  0.00    +0.000 A 
ATOM     14  C   UNL     1       2.465   7.355  18.940  0.00  0.00    +0.000 A 
ENDROOT
BRANCH  12  15
ATOM     15  C   UNL     1       0.444   9.480  21.249  0.00  0.00    +0.000 A 
ATOM     16  C   UNL     1       0.342  10.732  20.611  0.00  0.00    +0.000 A 
ATOM     17  C   UNL     1      -0.337  11.801  21.207  0.00  0.00    +0.000 A 
ATOM     18  C   UNL     1      -0.923  11.636  22.457  0.00  0.00    +0.000 A 
ATOM     19 BR   UNL     1      -1.837  13.078  23.269  0.00  0.00    +0.000 Br
ATOM     20  C   UNL     1      -0.836  10.415  23.116  0.00  0.00    +0.000 A 
ATOM     21  C   UNL     1      -0.155   9.349  22.516  0.00  0.00    +0.000 A 
ENDBRANCH  12  15
TORSDOF 1
ENDMDL
