MODEL 1
REMARK VINA RESULT:      -7.6      0.000      0.000
REMARK  Name = 
REMARK  3 active torsions:
REMARK  status: ('A' for Active; 'I' for Inactive)
REMARK    1  A    between atoms: C_1  and  C_2
REMARK    2  A    between atoms: C_3  and  C_4
REMARK    3  A    between atoms: C_14  and  C_15
REMARK                            x       y       z     vdW  Elec       q    Type
REMARK                         _______ _______ _______ _____ _____    ______ ____
ROOT
ATOM      1  C   UNL     1       4.819   6.634  16.464  0.00  0.00    +0.000 C 
ATOM      2  C   UNL     1       4.761   5.149  16.574  0.00  0.00    +0.000 A 
ATOM      3  C   UNL     1       5.256   4.188  15.695  0.00  0.00    +0.000 A 
ATOM      4  N   UNL     1       4.903   2.960  16.220  0.00  0.00    +0.000 N 
ATOM      5  C   UNL     1       4.238   3.093  17.413  0.00  0.00    +0.000 A 
ATOM      6  C   UNL     1       3.725   2.118  18.277  0.00  0.00    +0.000 A 
ATOM      7  C   UNL     1       3.113   2.554  19.457  0.00  0.00    +0.000 A 
ATOM      8  C   UNL     1       3.008   3.916  19.751  0.00  0.00    +0.000 A 
ATOM      9  C   UNL     1       3.516   4.875  18.860  0.00  0.00    +0.000 A 
ATOM     10  C   UNL     1       4.145   4.456  17.669  0.00  0.00    +0.000 A 
ATOM     11  H   UNL     1       5.130   2.073  15.795  0.00  0.00    +0.000 HD
ENDROOT
BRANCH   3  12
ATOM     12  C   UNL     1       6.021   4.293  14.440  0.00  0.00    +0.000 A 
ATOM     13  C   UNL     1       7.166   5.099  14.360  0.00  0.00    +0.000 A 
ATOM     14  C   UNL     1       7.883   5.219  13.166  0.00  0.00    +0.000 A 
ATOM     15  C   UNL     1       7.486   4.505  12.040  0.00  0.00    +0.000 A 
ATOM     16  C   UNL     1       6.369   3.677  12.105  0.00  0.00    +0.000 A 
ATOM     17  C   UNL     1       5.637   3.578  13.294  0.00  0.00    +0.000 A 
ENDBRANCH   3  12
BRANCH   8  18
ATOM     18  C   UNL     1       2.386   4.374  21.025  0.00  0.00    +0.000 C 
ATOM     19  N   UNL     1       2.039   5.603  21.241  0.00  0.00    +0.000 NA
ATOM     20  N   UNL     1       2.144   3.486  22.032  0.00  0.00    +0.000 N 
ATOM     21  H   UNL     1       2.299   6.206  20.457  0.00  0.00    +0.000 HD
ATOM     22  H   UNL     1       1.848   2.561  21.744  0.00  0.00    +0.000 HD
ATOM     23  H   UNL     1       1.529   3.894  22.730  0.00  0.00    +0.000 HD
ENDBRANCH   8  18
TORSDOF 2
ENDMDL
MODEL 2
REMARK VINA RESULT:      -7.6      0.059      1.327
REMARK  Name = 
REMARK  3 active torsions:
REMARK  status: ('A' for Active; 'I' for Inactive)
REMARK    1  A    between atoms: C_1  and  C_2
REMARK    2  A    between atoms: C_3  and  C_4
REMARK    3  A    between atoms: C_14  and  C_15
REMARK                            x       y       z     vdW  Elec       q    Type
REMARK                         _______ _______ _______ _____ _____    ______ ____
ROOT
ATOM      1  C   UNL     1       4.838   6.585  16.519  0.00  0.00    +0.000 C 
ATOM      2  C   UNL     1       4.766   5.098  16.606  0.00  0.00    +0.000 A 
ATOM      3  C   UNL     1       5.253   4.147  15.711  0.00  0.00    +0.000 A 
ATOM      4  N   UNL     1       4.889   2.915  16.216  0.00  0.00    +0.000 N 
ATOM      5  C   UNL     1       4.224   3.035  17.411  0.00  0.00    +0.000 A 
ATOM      6  C   UNL     1       3.702   2.050  18.259  0.00  0.00    +0.000 A 
ATOM      7  C   UNL     1       3.093   2.473  19.446  0.00  0.00    +0.000 A 
ATOM      8  C   UNL     1       3.000   3.831  19.762  0.00  0.00    +0.000 A 
ATOM      9  C   UNL     1       3.517   4.800  18.886  0.00  0.00    +0.000 A 
ATOM     10  C   UNL     1       4.143   4.394  17.689  0.00  0.00    +0.000 A 
ATOM     11  H   UNL     1       5.108   2.032  15.778  0.00  0.00    +0.000 HD
ENDROOT
BRANCH   3  12
ATOM     12  C   UNL     1       6.020   4.266  14.459  0.00  0.00    +0.000 A 
ATOM     13  C   UNL     1       5.645   3.547  13.314  0.00  0.00    +0.000 A 
ATOM     14  C   UNL     1       6.381   3.640  12.129  0.00  0.00    +0.000 A 
ATOM     15  C   UNL     1       7.486   4.483  12.060  0.00  0.00    +0.000 A 
ATOM     16  C   UNL     1       7.858   5.228  13.176  0.00  0.00    +0.000 A 
ATOM     17  C   UNL     1       7.136   5.114  14.369  0.00  0.00    +0.000 A 
ENDBRANCH   3  12
BRANCH   8  18
ATOM     18  C   UNL     1       2.381   4.274  21.043  0.00  0.00    +0.000 C 
ATOM     19  N   UNL     1       2.152   3.471  22.033  0.00  0.00    +0.000 NA
ATOM     20  N   UNL     1       2.033   5.581  21.224  0.00  0.00    +0.000 N 
ATOM     21  H   UNL     1       2.398   2.507  21.794  0.00  0.00    +0.000 HD
ATOM     22  H   UNL     1       2.659   6.265  20.817  0.00  0.00    +0.000 HD
ATOM     23  H   UNL     1       1.835   5.766  22.203  0.00  0.00    +0.000 HD
ENDBRANCH   8  18
TORSDOF 2
ENDMDL
MODEL 3
REMARK VINA RESULT:      -7.4      3.904      6.763
REMARK  Name = 
REMARK  3 active torsions:
REMARK  status: ('A' for Active; 'I' for Inactive)
REMARK    1  A    between atoms: C_1  and  C_2
REMARK    2  A    between atoms: C_3  and  C_4
REMARK    3  A    between atoms: C_14  and  C_15
REMARK                            x       y       z     vdW  Elec       q    Type
REMARK                         _______ _______ _______ _____ _____    ______ ____
ROOT
ATOM      1  C   UNL     1       3.656   6.921  17.837  0.00  0.00    +0.000 C 
ATOM      2  C   UNL     1       2.922   6.446  19.045  0.00  0.00    +0.000 A 
ATOM      3  C   UNL     1       2.044   7.151  19.866  0.00  0.00    +0.000 A 
ATOM      4  N   UNL     1       1.674   6.285  20.875  0.00  0.00    +0.000 N 
ATOM      5  C   UNL     1       2.245   5.048  20.715  0.00  0.00    +0.000 A 
ATOM      6  C   UNL     1       2.125   3.888  21.489  0.00  0.00    +0.000 A 
ATOM      7  C   UNL     1       2.812   2.747  21.059  0.00  0.00    +0.000 A 
ATOM      8  C   UNL     1       3.599   2.774  19.905  0.00  0.00    +0.000 A 
ATOM      9  C   UNL     1       3.716   3.955  19.155  0.00  0.00    +0.000 A 
ATOM     10  C   UNL     1       3.025   5.114  19.566  0.00  0.00    +0.000 A 
ATOM     11  H   UNL     1       1.038   6.521  21.624  0.00  0.00    +0.000 HD
ENDROOT
BRANCH   3  12
ATOM     12  C   UNL     1       1.515   8.525  19.802  0.00  0.00    +0.000 A 
ATOM     13  C   UNL     1       1.468   9.224  18.587  0.00  0.00    +0.000 A 
ATOM     14  C   UNL     1       0.987  10.535  18.525  0.00  0.00    +0.000 A 
ATOM     15  C   UNL     1       0.510  11.157  19.675  0.00  0.00    +0.000 A 
ATOM     16  C   UNL     1       0.520  10.471  20.886  0.00  0.00    +0.000 A 
ATOM     17  C   UNL     1       1.026   9.168  20.951  0.00  0.00    +0.000 A 
ENDBRANCH   3  12
BRANCH   8  18
ATOM     18  C   UNL     1       4.301   1.547  19.433  0.00  0.00    +0.000 C 
ATOM     19  N   UNL     1       5.297   1.015  20.066  0.00  0.00    +0.000 NA
ATOM     20  N   UNL     1       3.898   0.920  18.291  0.00  0.00    +0.000 N 
ATOM     21  H   UNL     1       5.562   1.574  20.881  0.00  0.00    +0.000 HD
ATOM     22  H   UNL     1       2.900   0.908  18.122  0.00  0.00    +0.000 HD
ATOM     23  H   UNL     1       4.318  -0.003  18.222  0.00  0.00    +0.000 HD
ENDBRANCH   8  18
TORSDOF 2
ENDMDL
MODEL 4
REMARK VINA RESULT:      -7.3      3.994      6.851
REMARK  Name = 
REMARK  3 active torsions:
REMARK  status: ('A' for Active; 'I' for Inactive)
REMARK    1  A    between atoms: C_1  and  C_2
REMARK    2  A    between atoms: C_3  and  C_4
REMARK    3  A    between atoms: C_14  and  C_15
REMARK                            x       y       z     vdW  Elec       q    Type
REMARK                         _______ _______ _______ _____ _____    ______ ____
ROOT
ATOM      1  C   UNL     1       3.490   7.158  17.817  0.00  0.00    +0.000 C 
ATOM      2  C   UNL     1       2.786   6.663  19.034  0.00  0.00    +0.000 A 
ATOM      3  C   UNL     1       1.938   7.358  19.895  0.00  0.00    +0.000 A 
ATOM      4  N   UNL     1       1.589   6.473  20.896  0.00  0.00    +0.000 N 
ATOM      5  C   UNL     1       2.145   5.235  20.692  0.00  0.00    +0.000 A 
ATOM      6  C   UNL     1       2.035   4.059  21.445  0.00  0.00    +0.000 A 
ATOM      7  C   UNL     1       2.699   2.922  20.971  0.00  0.00    +0.000 A 
ATOM      8  C   UNL     1       3.453   2.968  19.796  0.00  0.00    +0.000 A 
ATOM      9  C   UNL     1       3.560   4.164  19.067  0.00  0.00    +0.000 A 
ATOM     10  C   UNL     1       2.891   5.319  19.523  0.00  0.00    +0.000 A 
ATOM     11  H   UNL     1       0.977   6.699  21.667  0.00  0.00    +0.000 HD
ENDROOT
BRANCH   3  12
ATOM     12  C   UNL     1       1.421   8.738  19.876  0.00  0.00    +0.000 A 
ATOM     13  C   UNL     1       1.046   9.382  21.064  0.00  0.00    +0.000 A 
ATOM     14  C   UNL     1       0.535  10.683  21.050  0.00  0.00    +0.000 A 
ATOM     15  C   UNL     1       0.424  11.375  19.848  0.00  0.00    +0.000 A 
ATOM     16  C   UNL     1       0.817  10.764  18.660  0.00  0.00    +0.000 A 
ATOM     17  C   UNL     1       1.305   9.453  18.673  0.00  0.00    +0.000 A 
ENDBRANCH   3  12
BRANCH   8  18
ATOM     18  C   UNL     1       4.130   1.745  19.277  0.00  0.00    +0.000 C 
ATOM     19  N   UNL     1       3.784   1.159  18.175  0.00  0.00    +0.000 NA
ATOM     20  N   UNL     1       5.172   1.192  19.961  0.00  0.00    +0.000 N 
ATOM     21  H   UNL     1       2.968   1.610  17.754  0.00  0.00    +0.000 HD
ATOM     22  H   UNL     1       5.802   1.846  20.411  0.00  0.00    +0.000 HD
ATOM     23  H   UNL     1       5.660   0.514  19.384  0.00  0.00    +0.000 HD
ENDBRANCH   8  18
TORSDOF 2
ENDMDL
MODEL 5
REMARK VINA RESULT:      -7.3      3.876      7.905
REMARK  Name = 
REMARK  3 active torsions:
REMARK  status: ('A' for Active; 'I' for Inactive)
REMARK    1  A    between atoms: C_1  and  C_2
REMARK    2  A    between atoms: C_3  and  C_4
REMARK    3  A    between atoms: C_14  and  C_15
REMARK                            x       y       z     vdW  Elec       q    Type
REMARK                         _______ _______ _______ _____ _____    ______ ____
ROOT
ATOM      1  C   UNL     1       2.198   9.263  17.785  0.00  0.00    +0.000 C 
ATOM      2  C   UNL     1       2.304   8.137  18.756  0.00  0.00    +0.000 A 
ATOM      3  C   UNL     1       1.755   8.030  20.033  0.00  0.00    +0.000 A 
ATOM      4  N   UNL     1       2.187   6.821  20.542  0.00  0.00    +0.000 N 
ATOM      5  C   UNL     1       2.955   6.135  19.635  0.00  0.00    +0.000 A 
ATOM      6  C   UNL     1       3.569   4.881  19.735  0.00  0.00    +0.000 A 
ATOM      7  C   UNL     1       4.275   4.415  18.620  0.00  0.00    +0.000 A 
ATOM      8  C   UNL     1       4.372   5.184  17.457  0.00  0.00    +0.000 A 
ATOM      9  C   UNL     1       3.760   6.446  17.389  0.00  0.00    +0.000 A 
ATOM     10  C   UNL     1       3.035   6.930  18.498  0.00  0.00    +0.000 A 
ATOM     11  H   UNL     1       1.944   6.470  21.458  0.00  0.00    +0.000 HD
ENDROOT
BRANCH   3  12
ATOM     12  C   UNL     1       0.876   8.920  20.811  0.00  0.00    +0.000 A 
ATOM     13  C   UNL     1       0.842   8.854  22.212  0.00  0.00    +0.000 A 
ATOM     14  C   UNL     1      -0.005   9.682  22.954  0.00  0.00    +0.000 A 
ATOM     15  C   UNL     1      -0.809  10.615  22.307  0.00  0.00    +0.000 A 
ATOM     16  C   UNL     1      -0.770  10.717  20.919  0.00  0.00    +0.000 A 
ATOM     17  C   UNL     1       0.060   9.871  20.176  0.00  0.00    +0.000 A 
ENDBRANCH   3  12
BRANCH   8  18
ATOM     18  C   UNL     1       5.097   4.668  16.262  0.00  0.00    +0.000 C 
ATOM     19  N   UNL     1       5.288   5.373  15.192  0.00  0.00    +0.000 NA
ATOM     20  N   UNL     1       5.607   3.403  16.258  0.00  0.00    +0.000 N 
ATOM     21  H   UNL     1       4.834   6.287  15.263  0.00  0.00    +0.000 HD
ATOM     22  H   UNL     1       5.990   3.078  17.137  0.00  0.00    +0.000 HD
ATOM     23  H   UNL     1       6.249   3.278  15.481  0.00  0.00    +0.000 HD
ENDBRANCH   8  18
TORSDOF 2
ENDMDL
MODEL 6
REMARK VINA RESULT:      -7.3      3.878      7.922
REMARK  Name = 
REMARK  3 active torsions:
REMARK  status: ('A' for Active; 'I' for Inactive)
REMARK    1  A    between atoms: C_1  and  C_2
REMARK    2  A    between atoms: C_3  and  C_4
REMARK    3  A    between atoms: C_14  and  C_15
REMARK                            x       y       z     vdW  Elec       q    Type
REMARK                         _______ _______ _______ _____ _____    ______ ____
ROOT
ATOM      1  C   UNL     1       2.223   9.277  17.775  0.00  0.00    +0.000 C 
ATOM      2  C   UNL     1       2.319   8.147  18.742  0.00  0.00    +0.000 A 
ATOM      3  C   UNL     1       1.764   8.038  20.015  0.00  0.00    +0.000 A 
ATOM      4  N   UNL     1       2.187   6.825  20.522  0.00  0.00    +0.000 N 
ATOM      5  C   UNL     1       2.956   6.139  19.616  0.00  0.00    +0.000 A 
ATOM      6  C   UNL     1       3.564   4.881  19.714  0.00  0.00    +0.000 A 
ATOM      7  C   UNL     1       4.274   4.416  18.601  0.00  0.00    +0.000 A 
ATOM      8  C   UNL     1       4.379   5.189  17.441  0.00  0.00    +0.000 A 
ATOM      9  C   UNL     1       3.774   6.454  17.375  0.00  0.00    +0.000 A 
ATOM     10  C   UNL     1       3.046   6.938  18.483  0.00  0.00    +0.000 A 
ATOM     11  H   UNL     1       1.938   6.472  21.435  0.00  0.00    +0.000 HD
ENDROOT
BRANCH   3  12
ATOM     12  C   UNL     1       0.885   8.929  20.793  0.00  0.00    +0.000 A 
ATOM     13  C   UNL     1       0.058   9.864  20.152  0.00  0.00    +0.000 A 
ATOM     14  C   UNL     1      -0.762  10.726  20.886  0.00  0.00    +0.000 A 
ATOM     15  C   UNL     1      -0.794  10.642  22.274  0.00  0.00    +0.000 A 
ATOM     16  C   UNL     1      -0.003   9.702  22.929  0.00  0.00    +0.000 A 
ATOM     17  C   UNL     1       0.836   8.857  22.194  0.00  0.00    +0.000 A 
ENDBRANCH   3  12
BRANCH   8  18
ATOM     18  C   UNL     1       5.107   4.674  16.247  0.00  0.00    +0.000 C 
ATOM     19  N   UNL     1       5.295   5.378  15.176  0.00  0.00    +0.000 NA
ATOM     20  N   UNL     1       5.624   3.412  16.247  0.00  0.00    +0.000 N 
ATOM     21  H   UNL     1       4.836   6.290  15.245  0.00  0.00    +0.000 HD
ATOM     22  H   UNL     1       6.008   3.091  17.127  0.00  0.00    +0.000 HD
ATOM     23  H   UNL     1       6.267   3.288  15.470  0.00  0.00    +0.000 HD
ENDBRANCH   8  18
TORSDOF 2
ENDMDL
MODEL 7
REMARK VINA RESULT:      -7.2      2.150      7.138
REMARK  Name = 
REMARK  3 active torsions:
REMARK  status: ('A' for Active; 'I' for Inactive)
REMARK    1  A    between atoms: C_1  and  C_2
REMARK    2  A    between atoms: C_3  and  C_4
REMARK    3  A    between atoms: C_14  and  C_15
REMARK                            x       y       z     vdW  Elec       q    Type
REMARK                         _______ _______ _______ _____ _____    ______ ____
ROOT
ATOM      1  C   UNL     1       2.658   3.262  16.331  0.00  0.00    +0.000 C 
ATOM      2  C   UNL     1       3.831   3.763  17.102  0.00  0.00    +0.000 A 
ATOM      3  C   UNL     1       3.977   3.894  18.482  0.00  0.00    +0.000 A 
ATOM      4  N   UNL     1       5.223   4.452  18.691  0.00  0.00    +0.000 N 
ATOM      5  C   UNL     1       5.893   4.648  17.510  0.00  0.00    +0.000 A 
ATOM      6  C   UNL     1       7.172   5.165  17.270  0.00  0.00    +0.000 A 
ATOM      7  C   UNL     1       7.611   5.220  15.942  0.00  0.00    +0.000 A 
ATOM      8  C   UNL     1       6.793   4.784  14.897  0.00  0.00    +0.000 A 
ATOM      9  C   UNL     1       5.508   4.284  15.162  0.00  0.00    +0.000 A 
ATOM     10  C   UNL     1       5.050   4.213  16.495  0.00  0.00    +0.000 A 
ATOM     11  H   UNL     1       5.607   4.663  19.601  0.00  0.00    +0.000 HD
ENDROOT
BRANCH   3  12
ATOM     12  C   UNL     1       3.093   3.549  19.610  0.00  0.00    +0.000 A 
ATOM     13  C   UNL     1       1.822   4.129  19.732  0.00  0.00    +0.000 A 
ATOM     14  C   UNL     1       0.987   3.822  20.810  0.00  0.00    +0.000 A 
ATOM     15  C   UNL     1       1.398   2.899  21.767  0.00  0.00    +0.000 A 
ATOM     16  C   UNL     1       2.644   2.290  21.650  0.00  0.00    +0.000 A 
ATOM     17  C   UNL     1       3.489   2.618  20.584  0.00  0.00    +0.000 A 
ENDBRANCH   3  12
BRANCH   8  18
ATOM     18  C   UNL     1       7.279   4.813  13.488  0.00  0.00    +0.000 C 
ATOM     19  N   UNL     1       6.812   4.036  12.563  0.00  0.00    +0.000 NA
ATOM     20  N   UNL     1       8.253   5.691  13.113  0.00  0.00    +0.000 N 
ATOM     21  H   UNL     1       6.122   3.381  12.941  0.00  0.00    +0.000 HD
ATOM     22  H   UNL     1       8.217   6.603  13.549  0.00  0.00    +0.000 HD
ATOM     23  H   UNL     1       8.318   5.743  12.100  0.00  0.00    +0.000 HD
ENDBRANCH   8  18
TORSDOF 2
ENDMDL
MODEL 8
REMARK VINA RESULT:      -7.2      2.127      7.097
REMARK  Name = 
REMARK  3 active torsions:
REMARK  status: ('A' for Active; 'I' for Inactive)
REMARK    1  A    between atoms: C_1  and  C_2
REMARK    2  A    between atoms: C_3  and  C_4
REMARK    3  A    between atoms: C_14  and  C_15
REMARK                            x       y       z     vdW  Elec       q    Type
REMARK                         _______ _______ _______ _____ _____    ______ ____
ROOT
ATOM      1  C   UNL     1       2.603   3.283  16.309  0.00  0.00    +0.000 C 
ATOM      2  C   UNL     1       3.803   3.754  17.058  0.00  0.00    +0.000 A 
ATOM      3  C   UNL     1       3.981   3.875  18.435  0.00  0.00    +0.000 A 
ATOM      4  N   UNL     1       5.243   4.404  18.620  0.00  0.00    +0.000 N 
ATOM      5  C   UNL     1       5.892   4.592  17.426  0.00  0.00    +0.000 A 
ATOM      6  C   UNL     1       7.177   5.083  17.161  0.00  0.00    +0.000 A 
ATOM      7  C   UNL     1       7.588   5.135  15.825  0.00  0.00    +0.000 A 
ATOM      8  C   UNL     1       6.739   4.723  14.795  0.00  0.00    +0.000 A 
ATOM      9  C   UNL     1       5.449   4.250  15.085  0.00  0.00    +0.000 A 
ATOM     10  C   UNL     1       5.018   4.181  16.427  0.00  0.00    +0.000 A 
ATOM     11  H   UNL     1       5.651   4.602  19.523  0.00  0.00    +0.000 HD
ENDROOT
BRANCH   3  12
ATOM     12  C   UNL     1       3.114   3.543  19.579  0.00  0.00    +0.000 A 
ATOM     13  C   UNL     1       3.530   2.627  20.557  0.00  0.00    +0.000 A 
ATOM     14  C   UNL     1       2.703   2.293  21.633  0.00  0.00    +0.000 A 
ATOM     15  C   UNL     1       1.457   2.899  21.768  0.00  0.00    +0.000 A 
ATOM     16  C   UNL     1       1.036   3.832  20.825  0.00  0.00    +0.000 A 
ATOM     17  C   UNL     1       1.855   4.146  19.735  0.00  0.00    +0.000 A 
ENDBRANCH   3  12
BRANCH   8  18
ATOM     18  C   UNL     1       7.195   4.749  13.376  0.00  0.00    +0.000 C 
ATOM     19  N   UNL     1       8.073   5.590  12.931  0.00  0.00    +0.000 NA
ATOM     20  N   UNL     1       6.696   3.854  12.476  0.00  0.00    +0.000 N 
ATOM     21  H   UNL     1       8.358   6.251  13.658  0.00  0.00    +0.000 HD
ATOM     22  H   UNL     1       6.521   2.922  12.830  0.00  0.00    +0.000 HD
ATOM     23  H   UNL     1       7.253   3.851  11.626  0.00  0.00    +0.000 HD
ENDBRANCH   8  18
TORSDOF 2
ENDMDL
MODEL 9
REMARK VINA RESULT:      -7.2      4.001      5.715
REMARK  Name = 
REMARK  3 active torsions:
REMARK  status: ('A' for Active; 'I' for Inactive)
REMARK    1  A    between atoms: C_1  and  C_2
REMARK    2  A    between atoms: C_3  and  C_4
REMARK    3  A    between atoms: C_14  and  C_15
REMARK                            x       y       z     vdW  Elec       q    Type
REMARK                         _______ _______ _______ _____ _____    ______ ____
ROOT
ATOM      1  C   UNL     1       2.485   5.618  20.656  0.00  0.00    +0.000 C 
ATOM      2  C   UNL     1       2.369   6.776  19.724  0.00  0.00    +0.000 A 
ATOM      3  C   UNL     1       2.889   6.917  18.438  0.00  0.00    +0.000 A 
ATOM      4  N   UNL     1       2.552   8.188  18.019  0.00  0.00    +0.000 N 
ATOM      5  C   UNL     1       1.808   8.851  18.963  0.00  0.00    +0.000 A 
ATOM      6  C   UNL     1       1.252  10.136  18.938  0.00  0.00    +0.000 A 
ATOM      7  C   UNL     1       0.505  10.540  20.050  0.00  0.00    +0.000 A 
ATOM      8  C   UNL     1       0.334   9.694  21.148  0.00  0.00    +0.000 A 
ATOM      9  C   UNL     1       0.916   8.415  21.155  0.00  0.00    +0.000 A 
ATOM     10  C   UNL     1       1.665   7.985  20.040  0.00  0.00    +0.000 A 
ATOM     11  H   UNL     1       2.796   8.574  17.118  0.00  0.00    +0.000 HD
ENDROOT
BRANCH   3  12
ATOM     12  C   UNL     1       3.648   5.999  17.570  0.00  0.00    +0.000 A 
ATOM     13  C   UNL     1       4.664   6.478  16.730  0.00  0.00    +0.000 A 
ATOM     14  C   UNL     1       5.373   5.615  15.889  0.00  0.00    +0.000 A 
ATOM     15  C   UNL     1       5.100   4.251  15.902  0.00  0.00    +0.000 A 
ATOM     16  C   UNL     1       4.116   3.750  16.750  0.00  0.00    +0.000 A 
ATOM     17  C   UNL     1       3.390   4.619  17.572  0.00  0.00    +0.000 A 
ENDBRANCH   3  12
BRANCH   8  18
ATOM     18  C   UNL     1      -0.492  10.116  22.314  0.00  0.00    +0.000 C 
ATOM     19  N   UNL     1      -1.142  11.235  22.352  0.00  0.00    +0.000 NA
ATOM     20  N   UNL     1      -0.601   9.310  23.409  0.00  0.00    +0.000 N 
ATOM     21  H   UNL     1      -0.967  11.796  21.514  0.00  0.00    +0.000 HD
ATOM     22  H   UNL     1      -0.638   8.316  23.223  0.00  0.00    +0.000 HD
ATOM     23  H   UNL     1      -1.356   9.625  24.012  0.00  0.00    +0.000 HD
ENDBRANCH   8  18
TORSDOF 2
ENDMDL
