MODEL 1
REMARK VINA RESULT:      -7.0      0.000      0.000
REMARK  Name = 
REMARK  4 active torsions:
REMARK  status: ('A' for Active; 'I' for Inactive)
REMARK    1  A    between atoms: C_2  and  C_3
REMARK    2  A    between atoms: C_3  and  S_4
REMARK    3  A    between atoms: S_4  and  C_5
REMARK    4  A    between atoms: N_11  and  C_12
REMARK                            x       y       z     vdW  Elec       q    Type
REMARK                         _______ _______ _______ _____ _____    ______ ____
ROOT
ATOM      1  O   UNL     1       3.830   7.140  17.059  0.00  0.00    +0.000 OA
ATOM      2  C   UNL     1       4.801   6.702  17.677  0.00  0.00    +0.000 C 
ATOM      3  N   UNL     1       4.730   5.826  18.745  0.00  0.00    +0.000 N 
ATOM      4  H   UNL     1       5.568   5.695  19.308  0.00  0.00    +0.000 HD
ENDROOT
BRANCH   3   5
ATOM      5  C   UNL     1       3.562   5.239  19.277  0.00  0.00    +0.000 A 
ATOM      6  C   UNL     1       2.594   5.914  20.048  0.00  0.00    +0.000 A 
ATOM      7  C   UNL     1       1.446   5.285  20.594  0.00  0.00    +0.000 A 
ATOM      8  C   UNL     1       1.151   3.925  20.411  0.00  0.00    +0.000 A 
ATOM      9  C   UNL     1       2.069   3.198  19.618  0.00  0.00    +0.000 A 
ATOM     10  N   UNL     1       1.974   1.896  19.307  0.00  0.00    +0.000 NA
ATOM     11  S   UNL     1       3.289   1.542  18.357  0.00  0.00    +0.000 S 
ATOM     12  N   UNL     1       4.053   3.019  18.308  0.00  0.00    +0.000 NA
ATOM     13  C   UNL     1       3.293   3.861  19.035  0.00  0.00    +0.000 A 
ENDBRANCH   3   5
BRANCH   2  14
ATOM     14  C   UNL     1       6.220   7.075  17.282  0.00  0.00    +0.000 C 
BRANCH  14  15
ATOM     15  S   UNL     1       7.320   5.634  17.341  0.00  0.00    +0.000 S 
BRANCH  15  16
ATOM     16  C   UNL     1       6.985   4.916  15.756  0.00  0.00    +0.000 A 
ATOM     17  N   UNL     1       5.997   4.007  15.653  0.00  0.00    +0.000 NA
ATOM     18  C   UNL     1       5.725   3.567  14.408  0.00  0.00    +0.000 A 
ATOM     19  C   UNL     1       6.396   3.991  13.286  0.00  0.00    +0.000 A 
ATOM     20  C   UNL     1       7.392   4.911  13.505  0.00  0.00    +0.000 A 
ATOM     21  N   UNL     1       7.699   5.392  14.722  0.00  0.00    +0.000 NA
ENDBRANCH  15  16
ENDBRANCH  14  15
ENDBRANCH   2  14
TORSDOF 4
ENDMDL
MODEL 2
REMARK VINA RESULT:      -6.9      1.407      1.407
REMARK  Name = 
REMARK  4 active torsions:
REMARK  status: ('A' for Active; 'I' for Inactive)
REMARK    1  A    between atoms: C_2  and  C_3
REMARK    2  A    between atoms: C_3  and  S_4
REMARK    3  A    between atoms: S_4  and  C_5
REMARK    4  A    between atoms: N_11  and  C_12
REMARK                            x       y       z     vdW  Elec       q    Type
REMARK                         _______ _______ _______ _____ _____    ______ ____
ROOT
ATOM      1  O   UNL     1       6.538   4.800  20.138  0.00  0.00    +0.000 OA
ATOM      2  C   UNL     1       6.276   5.494  19.156  0.00  0.00    +0.000 C 
ATOM      3  N   UNL     1       5.004   5.729  18.668  0.00  0.00    +0.000 N 
ATOM      4  H   UNL     1       4.919   6.140  17.740  0.00  0.00    +0.000 HD
ENDROOT
BRANCH   3   5
ATOM      5  C   UNL     1       3.791   5.271  19.226  0.00  0.00    +0.000 A 
ATOM      6  C   UNL     1       2.907   6.053  19.998  0.00  0.00    +0.000 A 
ATOM      7  C   UNL     1       1.710   5.552  20.571  0.00  0.00    +0.000 A 
ATOM      8  C   UNL     1       1.278   4.226  20.417  0.00  0.00    +0.000 A 
ATOM      9  C   UNL     1       2.105   3.396  19.625  0.00  0.00    +0.000 A 
ATOM     10  N   UNL     1       1.875   2.106  19.339  0.00  0.00    +0.000 NA
ATOM     11  S   UNL     1       3.134   1.605  18.378  0.00  0.00    +0.000 S 
ATOM     12  N   UNL     1       4.041   2.997  18.292  0.00  0.00    +0.000 NA
ATOM     13  C   UNL     1       3.381   3.923  19.013  0.00  0.00    +0.000 A 
ENDBRANCH   3   5
BRANCH   2  14
ATOM     14  C   UNL     1       7.372   6.212  18.385  0.00  0.00    +0.000 C 
BRANCH  14  15
ATOM     15  S   UNL     1       6.690   7.137  16.981  0.00  0.00    +0.000 S 
BRANCH  15  16
ATOM     16  C   UNL     1       6.486   5.825  15.808  0.00  0.00    +0.000 A 
ATOM     17  N   UNL     1       5.304   5.181  15.755  0.00  0.00    +0.000 NA
ATOM     18  C   UNL     1       5.177   4.258  14.781  0.00  0.00    +0.000 A 
ATOM     19  C   UNL     1       6.170   3.957  13.880  0.00  0.00    +0.000 A 
ATOM     20  C   UNL     1       7.338   4.663  14.030  0.00  0.00    +0.000 A 
ATOM     21  N   UNL     1       7.518   5.602  14.976  0.00  0.00    +0.000 NA
ENDBRANCH  15  16
ENDBRANCH  14  15
ENDBRANCH   2  14
TORSDOF 4
ENDMDL
MODEL 3
REMARK VINA RESULT:      -6.8      0.255      1.082
REMARK  Name = 
REMARK  4 active torsions:
REMARK  status: ('A' for Active; 'I' for Inactive)
REMARK    1  A    between atoms: C_2  and  C_3
REMARK    2  A    between atoms: C_3  and  S_4
REMARK    3  A    between atoms: S_4  and  C_5
REMARK    4  A    between atoms: N_11  and  C_12
REMARK                            x       y       z     vdW  Elec       q    Type
REMARK                         _______ _______ _______ _____ _____    ______ ____
ROOT
ATOM      1  O   UNL     1       3.834   7.407  17.223  0.00  0.00    +0.000 OA
ATOM      2  C   UNL     1       4.799   6.771  17.646  0.00  0.00    +0.000 C 
ATOM      3  N   UNL     1       4.729   5.760  18.587  0.00  0.00    +0.000 N 
ATOM      4  H   UNL     1       5.599   5.448  19.015  0.00  0.00    +0.000 HD
ENDROOT
BRANCH   3   5
ATOM      5  C   UNL     1       3.558   5.243  19.183  0.00  0.00    +0.000 A 
ATOM      6  C   UNL     1       2.652   5.985  19.968  0.00  0.00    +0.000 A 
ATOM      7  C   UNL     1       1.500   5.426  20.578  0.00  0.00    +0.000 A 
ATOM      8  C   UNL     1       1.139   4.076  20.452  0.00  0.00    +0.000 A 
ATOM      9  C   UNL     1       1.991   3.283  19.648  0.00  0.00    +0.000 A 
ATOM     10  N   UNL     1       1.827   1.978  19.384  0.00  0.00    +0.000 NA
ATOM     11  S   UNL     1       3.087   1.535  18.397  0.00  0.00    +0.000 S 
ATOM     12  N   UNL     1       3.912   2.973  18.270  0.00  0.00    +0.000 NA
ATOM     13  C   UNL     1       3.219   3.871  18.997  0.00  0.00    +0.000 A 
ENDBRANCH   3   5
BRANCH   2  14
ATOM     14  C   UNL     1       6.202   7.027  17.123  0.00  0.00    +0.000 C 
BRANCH  14  15
ATOM     15  S   UNL     1       7.184   5.502  17.099  0.00  0.00    +0.000 S 
BRANCH  15  16
ATOM     16  C   UNL     1       6.920   4.984  15.425  0.00  0.00    +0.000 A 
ATOM     17  N   UNL     1       7.705   5.495  14.457  0.00  0.00    +0.000 NA
ATOM     18  C   UNL     1       7.521   4.993  13.220  0.00  0.00    +0.000 A 
ATOM     19  C   UNL     1       6.594   4.025  12.919  0.00  0.00    +0.000 A 
ATOM     20  C   UNL     1       5.838   3.582  13.976  0.00  0.00    +0.000 A 
ATOM     21  N   UNL     1       5.985   4.038  15.233  0.00  0.00    +0.000 NA
ENDBRANCH  15  16
ENDBRANCH  14  15
ENDBRANCH   2  14
TORSDOF 4
ENDMDL
MODEL 4
REMARK VINA RESULT:      -6.7      2.316      2.748
REMARK  Name = 
REMARK  4 active torsions:
REMARK  status: ('A' for Active; 'I' for Inactive)
REMARK    1  A    between atoms: C_2  and  C_3
REMARK    2  A    between atoms: C_3  and  S_4
REMARK    3  A    between atoms: S_4  and  C_5
REMARK    4  A    between atoms: N_11  and  C_12
REMARK                            x       y       z     vdW  Elec       q    Type
REMARK                         _______ _______ _______ _____ _____    ______ ____
ROOT
ATOM      1  O   UNL     1       6.816   4.997  19.409  0.00  0.00    +0.000 OA
ATOM      2  C   UNL     1       6.276   4.693  18.345  0.00  0.00    +0.000 C 
ATOM      3  N   UNL     1       4.986   4.210  18.220  0.00  0.00    +0.000 N 
ATOM      4  H   UNL     1       4.717   3.798  17.329  0.00  0.00    +0.000 HD
ENDROOT
BRANCH   3   5
ATOM      5  C   UNL     1       4.050   4.033  19.262  0.00  0.00    +0.000 A 
ATOM      6  C   UNL     1       3.868   2.843  19.995  0.00  0.00    +0.000 A 
ATOM      7  C   UNL     1       2.894   2.690  21.015  0.00  0.00    +0.000 A 
ATOM      8  C   UNL     1       2.018   3.714  21.406  0.00  0.00    +0.000 A 
ATOM      9  C   UNL     1       2.171   4.946  20.728  0.00  0.00    +0.000 A 
ATOM     10  N   UNL     1       1.452   6.057  20.951  0.00  0.00    +0.000 NA
ATOM     11  S   UNL     1       2.030   7.210  19.905  0.00  0.00    +0.000 S 
ATOM     12  N   UNL     1       3.210   6.353  19.107  0.00  0.00    +0.000 NA
ATOM     13  C   UNL     1       3.205   5.116  19.641  0.00  0.00    +0.000 A 
ENDBRANCH   3   5
BRANCH   2  14
ATOM     14  C   UNL     1       6.999   4.862  17.019  0.00  0.00    +0.000 C 
BRANCH  14  15
ATOM     15  S   UNL     1       5.970   5.751  15.818  0.00  0.00    +0.000 S 
BRANCH  15  16
ATOM     16  C   UNL     1       6.494   4.971  14.316  0.00  0.00    +0.000 A 
ATOM     17  N   UNL     1       5.733   3.988  13.797  0.00  0.00    +0.000 NA
ATOM     18  C   UNL     1       6.131   3.499  12.606  0.00  0.00    +0.000 A 
ATOM     19  C   UNL     1       7.244   3.942  11.932  0.00  0.00    +0.000 A 
ATOM     20  C   UNL     1       7.954   4.938  12.555  0.00  0.00    +0.000 A 
ATOM     21  N   UNL     1       7.598   5.472  13.736  0.00  0.00    +0.000 NA
ENDBRANCH  15  16
ENDBRANCH  14  15
ENDBRANCH   2  14
TORSDOF 4
ENDMDL
MODEL 5
REMARK VINA RESULT:      -6.7      2.335      6.011
REMARK  Name = 
REMARK  4 active torsions:
REMARK  status: ('A' for Active; 'I' for Inactive)
REMARK    1  A    between atoms: C_2  and  C_3
REMARK    2  A    between atoms: C_3  and  S_4
REMARK    3  A    between atoms: S_4  and  C_5
REMARK    4  A    between atoms: N_11  and  C_12
REMARK                            x       y       z     vdW  Elec       q    Type
REMARK                         _______ _______ _______ _____ _____    ______ ____
ROOT
ATOM      1  O   UNL     1       4.928   2.403  20.238  0.00  0.00    +0.000 OA
ATOM      2  C   UNL     1       4.222   2.460  19.231  0.00  0.00    +0.000 C 
ATOM      3  N   UNL     1       4.412   3.337  18.179  0.00  0.00    +0.000 N 
ATOM      4  H   UNL     1       3.657   3.440  17.503  0.00  0.00    +0.000 HD
ENDROOT
BRANCH   3   5
ATOM      5  C   UNL     1       5.461   4.271  18.041  0.00  0.00    +0.000 A 
ATOM      6  C   UNL     1       6.025   5.019  19.094  0.00  0.00    +0.000 A 
ATOM      7  C   UNL     1       7.059   5.974  18.915  0.00  0.00    +0.000 A 
ATOM      8  C   UNL     1       7.633   6.263  17.667  0.00  0.00    +0.000 A 
ATOM      9  C   UNL     1       7.132   5.522  16.572  0.00  0.00    +0.000 A 
ATOM     10  N   UNL     1       7.546   5.629  15.300  0.00  0.00    +0.000 NA
ATOM     11  S   UNL     1       6.649   4.543  14.421  0.00  0.00    +0.000 S 
ATOM     12  N   UNL     1       5.680   3.895  15.607  0.00  0.00    +0.000 NA
ATOM     13  C   UNL     1       6.032   4.505  16.756  0.00  0.00    +0.000 A 
ENDBRANCH   3   5
BRANCH   2  14
ATOM     14  C   UNL     1       3.054   1.508  19.033  0.00  0.00    +0.000 C 
BRANCH  14  15
ATOM     15  S   UNL     1       1.642   2.350  18.266  0.00  0.00    +0.000 S 
BRANCH  15  16
ATOM     16  C   UNL     1       1.807   3.961  18.986  0.00  0.00    +0.000 A 
ATOM     17  N   UNL     1       1.793   4.075  20.328  0.00  0.00    +0.000 NA
ATOM     18  C   UNL     1       2.018   5.310  20.819  0.00  0.00    +0.000 A 
ATOM     19  C   UNL     1       2.246   6.414  20.032  0.00  0.00    +0.000 A 
ATOM     20  C   UNL     1       2.227   6.189  18.678  0.00  0.00    +0.000 A 
ATOM     21  N   UNL     1       2.019   4.977  18.133  0.00  0.00    +0.000 NA
ENDBRANCH  15  16
ENDBRANCH  14  15
ENDBRANCH   2  14
TORSDOF 4
ENDMDL
MODEL 6
REMARK VINA RESULT:      -6.6      3.707      5.100
REMARK  Name = 
REMARK  4 active torsions:
REMARK  status: ('A' for Active; 'I' for Inactive)
REMARK    1  A    between atoms: C_2  and  C_3
REMARK    2  A    between atoms: C_3  and  S_4
REMARK    3  A    between atoms: S_4  and  C_5
REMARK    4  A    between atoms: N_11  and  C_12
REMARK                            x       y       z     vdW  Elec       q    Type
REMARK                         _______ _______ _______ _____ _____    ______ ____
ROOT
ATOM      1  O   UNL     1       1.799   4.935  18.373  0.00  0.00    +0.000 OA
ATOM      2  C   UNL     1       2.491   5.156  19.367  0.00  0.00    +0.000 C 
ATOM      3  N   UNL     1       2.737   6.408  19.898  0.00  0.00    +0.000 N 
ATOM      4  H   UNL     1       3.483   6.494  20.586  0.00  0.00    +0.000 HD
ENDROOT
BRANCH   3   5
ATOM      5  C   UNL     1       2.208   7.635  19.443  0.00  0.00    +0.000 A 
ATOM      6  C   UNL     1       2.404   8.176  18.157  0.00  0.00    +0.000 A 
ATOM      7  C   UNL     1       1.883   9.428  17.743  0.00  0.00    +0.000 A 
ATOM      8  C   UNL     1       1.107  10.253  18.572  0.00  0.00    +0.000 A 
ATOM      9  C   UNL     1       0.846   9.751  19.868  0.00  0.00    +0.000 A 
ATOM     10  N   UNL     1       0.119  10.366  20.814  0.00  0.00    +0.000 NA
ATOM     11  S   UNL     1       0.115   9.359  22.134  0.00  0.00    +0.000 S 
ATOM     12  N   UNL     1       1.050   8.101  21.577  0.00  0.00    +0.000 NA
ATOM     13  C   UNL     1       1.398   8.420  20.315  0.00  0.00    +0.000 A 
ENDBRANCH   3   5
BRANCH   2  14
ATOM     14  C   UNL     1       3.130   4.020  20.148  0.00  0.00    +0.000 C 
BRANCH  14  15
ATOM     15  S   UNL     1       3.886   2.801  19.037  0.00  0.00    +0.000 S 
BRANCH  15  16
ATOM     16  C   UNL     1       5.081   3.820  18.218  0.00  0.00    +0.000 A 
ATOM     17  N   UNL     1       6.077   4.362  18.944  0.00  0.00    +0.000 NA
ATOM     18  C   UNL     1       7.009   5.049  18.253  0.00  0.00    +0.000 A 
ATOM     19  C   UNL     1       6.978   5.215  16.889  0.00  0.00    +0.000 A 
ATOM     20  C   UNL     1       5.913   4.632  16.247  0.00  0.00    +0.000 A 
ATOM     21  N   UNL     1       4.962   3.927  16.883  0.00  0.00    +0.000 NA
ENDBRANCH  15  16
ENDBRANCH  14  15
ENDBRANCH   2  14
TORSDOF 4
ENDMDL
MODEL 7
REMARK VINA RESULT:      -6.5      2.358      6.060
REMARK  Name = 
REMARK  4 active torsions:
REMARK  status: ('A' for Active; 'I' for Inactive)
REMARK    1  A    between atoms: C_2  and  C_3
REMARK    2  A    between atoms: C_3  and  S_4
REMARK    3  A    between atoms: S_4  and  C_5
REMARK    4  A    between atoms: N_11  and  C_12
REMARK                            x       y       z     vdW  Elec       q    Type
REMARK                         _______ _______ _______ _____ _____    ______ ____
ROOT
ATOM      1  O   UNL     1       3.960   1.514  18.769  0.00  0.00    +0.000 OA
ATOM      2  C   UNL     1       4.084   2.444  19.566  0.00  0.00    +0.000 C 
ATOM      3  N   UNL     1       4.659   3.667  19.272  0.00  0.00    +0.000 N 
ATOM      4  H   UNL     1       4.898   4.279  20.050  0.00  0.00    +0.000 HD
ENDROOT
BRANCH   3   5
ATOM      5  C   UNL     1       5.149   4.087  18.016  0.00  0.00    +0.000 A 
ATOM      6  C   UNL     1       4.711   3.597  16.770  0.00  0.00    +0.000 A 
ATOM      7  C   UNL     1       5.247   4.019  15.526  0.00  0.00    +0.000 A 
ATOM      8  C   UNL     1       6.264   4.979  15.411  0.00  0.00    +0.000 A 
ATOM      9  C   UNL     1       6.727   5.534  16.627  0.00  0.00    +0.000 A 
ATOM     10  N   UNL     1       7.679   6.472  16.747  0.00  0.00    +0.000 NA
ATOM     11  S   UNL     1       7.837   6.777  18.372  0.00  0.00    +0.000 S 
ATOM     12  N   UNL     1       6.717   5.723  19.004  0.00  0.00    +0.000 NA
ATOM     13  C   UNL     1       6.160   5.089  17.953  0.00  0.00    +0.000 A 
ENDBRANCH   3   5
BRANCH   2  14
ATOM     14  C   UNL     1       3.563   2.336  20.989  0.00  0.00    +0.000 C 
BRANCH  14  15
ATOM     15  S   UNL     1       1.835   2.878  21.100  0.00  0.00    +0.000 S 
BRANCH  15  16
ATOM     16  C   UNL     1       1.873   4.276  20.013  0.00  0.00    +0.000 A 
ATOM     17  N   UNL     1       2.367   5.442  20.473  0.00  0.00    +0.000 NA
ATOM     18  C   UNL     1       2.459   6.442  19.575  0.00  0.00    +0.000 A 
ATOM     19  C   UNL     1       2.076   6.324  18.260  0.00  0.00    +0.000 A 
ATOM     20  C   UNL     1       1.576   5.098  17.898  0.00  0.00    +0.000 A 
ATOM     21  N   UNL     1       1.471   4.062  18.748  0.00  0.00    +0.000 NA
ENDBRANCH  15  16
ENDBRANCH  14  15
ENDBRANCH   2  14
TORSDOF 4
ENDMDL
MODEL 8
REMARK VINA RESULT:      -6.5      1.465      1.830
REMARK  Name = 
REMARK  4 active torsions:
REMARK  status: ('A' for Active; 'I' for Inactive)
REMARK    1  A    between atoms: C_2  and  C_3
REMARK    2  A    between atoms: C_3  and  S_4
REMARK    3  A    between atoms: S_4  and  C_5
REMARK    4  A    between atoms: N_11  and  C_12
REMARK                            x       y       z     vdW  Elec       q    Type
REMARK                         _______ _______ _______ _____ _____    ______ ____
ROOT
ATOM      1  O   UNL     1       6.477   5.015  20.048  0.00  0.00    +0.000 OA
ATOM      2  C   UNL     1       6.249   5.023  18.838  0.00  0.00    +0.000 C 
ATOM      3  N   UNL     1       4.988   5.022  18.270  0.00  0.00    +0.000 N 
ATOM      4  H   UNL     1       4.916   4.820  17.274  0.00  0.00    +0.000 HD
ENDROOT
BRANCH   3   5
ATOM      5  C   UNL     1       3.756   5.066  18.956  0.00  0.00    +0.000 A 
ATOM      6  C   UNL     1       3.225   6.203  19.597  0.00  0.00    +0.000 A 
ATOM      7  C   UNL     1       1.996   6.204  20.306  0.00  0.00    +0.000 A 
ATOM      8  C   UNL     1       1.176   5.071  20.430  0.00  0.00    +0.000 A 
ATOM      9  C   UNL     1       1.639   3.903  19.780  0.00  0.00    +0.000 A 
ATOM     10  N   UNL     1       1.009   2.718  19.760  0.00  0.00    +0.000 NA
ATOM     11  S   UNL     1       1.962   1.695  18.863  0.00  0.00    +0.000 S 
ATOM     12  N   UNL     1       3.227   2.700  18.471  0.00  0.00    +0.000 NA
ATOM     13  C   UNL     1       2.946   3.895  19.026  0.00  0.00    +0.000 A 
ENDBRANCH   3   5
BRANCH   2  14
ATOM     14  C   UNL     1       7.380   5.074  17.824  0.00  0.00    +0.000 C 
BRANCH  14  15
ATOM     15  S   UNL     1       7.122   6.404  16.617  0.00  0.00    +0.000 S 
BRANCH  15  16
ATOM     16  C   UNL     1       6.778   5.449  15.165  0.00  0.00    +0.000 A 
ATOM     17  N   UNL     1       7.665   5.470  14.151  0.00  0.00    +0.000 NA
ATOM     18  C   UNL     1       7.397   4.651  13.115  0.00  0.00    +0.000 A 
ATOM     19  C   UNL     1       6.294   3.834  13.053  0.00  0.00    +0.000 A 
ATOM     20  C   UNL     1       5.449   3.899  14.133  0.00  0.00    +0.000 A 
ATOM     21  N   UNL     1       5.671   4.688  15.199  0.00  0.00    +0.000 NA
ENDBRANCH  15  16
ENDBRANCH  14  15
ENDBRANCH   2  14
TORSDOF 4
ENDMDL
MODEL 9
REMARK VINA RESULT:      -6.5      3.557      5.105
REMARK  Name = 
REMARK  4 active torsions:
REMARK  status: ('A' for Active; 'I' for Inactive)
REMARK    1  A    between atoms: C_2  and  C_3
REMARK    2  A    between atoms: C_3  and  S_4
REMARK    3  A    between atoms: S_4  and  C_5
REMARK    4  A    between atoms: N_11  and  C_12
REMARK                            x       y       z     vdW  Elec       q    Type
REMARK                         _______ _______ _______ _____ _____    ______ ____
ROOT
ATOM      1  O   UNL     1       1.654   4.685  18.247  0.00  0.00    +0.000 OA
ATOM      2  C   UNL     1       2.422   4.865  19.192  0.00  0.00    +0.000 C 
ATOM      3  N   UNL     1       2.792   6.102  19.687  0.00  0.00    +0.000 N 
ATOM      4  H   UNL     1       3.584   6.140  20.326  0.00  0.00    +0.000 HD
ENDROOT
BRANCH   3   5
ATOM      5  C   UNL     1       2.324   7.359  19.247  0.00  0.00    +0.000 A 
ATOM      6  C   UNL     1       2.581   7.922  17.981  0.00  0.00    +0.000 A 
ATOM      7  C   UNL     1       2.121   9.204  17.583  0.00  0.00    +0.000 A 
ATOM      8  C   UNL     1       1.352  10.038  18.409  0.00  0.00    +0.000 A 
ATOM      9  C   UNL     1       1.032   9.516  19.684  0.00  0.00    +0.000 A 
ATOM     10  N   UNL     1       0.300  10.136  20.623  0.00  0.00    +0.000 NA
ATOM     11  S   UNL     1       0.217   9.098  21.917  0.00  0.00    +0.000 S 
ATOM     12  N   UNL     1       1.120   7.819  21.357  0.00  0.00    +0.000 NA
ATOM     13  C   UNL     1       1.519   8.154  20.114  0.00  0.00    +0.000 A 
ENDBRANCH   3   5
BRANCH   2  14
ATOM     14  C   UNL     1       3.027   3.694  19.949  0.00  0.00    +0.000 C 
BRANCH  14  15
ATOM     15  S   UNL     1       4.162   2.747  18.897  0.00  0.00    +0.000 S 
BRANCH  15  16
ATOM     16  C   UNL     1       5.301   4.022  18.435  0.00  0.00    +0.000 A 
ATOM     17  N   UNL     1       5.341   4.421  17.148  0.00  0.00    +0.000 NA
ATOM     18  C   UNL     1       6.157   5.458  16.875  0.00  0.00    +0.000 A 
ATOM     19  C   UNL     1       6.925   6.094  17.820  0.00  0.00    +0.000 A 
ATOM     20  C   UNL     1       6.819   5.602  19.098  0.00  0.00    +0.000 A 
ATOM     21  N   UNL     1       6.013   4.577  19.430  0.00  0.00    +0.000 NA
ENDBRANCH  15  16
ENDBRANCH  14  15
ENDBRANCH   2  14
TORSDOF 4
ENDMDL
