MODEL 1
REMARK VINA RESULT:      -7.2      0.000      0.000
REMARK  Name = 
REMARK  5 active torsions:
REMARK  status: ('A' for Active; 'I' for Inactive)
REMARK    1  A    between atoms: C_1  and  O_2
REMARK    2  A    between atoms: O_2  and  C_3
REMARK    3  A    between atoms: C_6  and  N_7
REMARK    4  A    between atoms: N_7  and  C_8
REMARK    5  A    between atoms: N_16  and  C_17
REMARK                            x       y       z     vdW  Elec       q    Type
REMARK                         _______ _______ _______ _____ _____    ______ ____
ROOT
ATOM      1  N   UNL     1       5.381   3.905  17.359  0.00  0.00    +0.000 N 
ATOM      2  H   UNL     1       5.852   3.012  17.243  0.00  0.00    +0.000 HD
ENDROOT
BRANCH   1   3
ATOM      3  C   UNL     1       4.062   3.731  17.829  0.00  0.00    +0.000 A 
ATOM      4  N   UNL     1       2.980   4.146  17.095  0.00  0.00    +0.000 NA
ATOM      5  C   UNL     1       1.726   4.077  17.590  0.00  0.00    +0.000 A 
ATOM      6  C   UNL     1       1.398   3.598  18.840  0.00  0.00    +0.000 A 
ATOM      7  C   UNL     1       2.486   3.145  19.579  0.00  0.00    +0.000 A 
ATOM      8  C   UNL     1       3.795   3.183  19.104  0.00  0.00    +0.000 A 
ATOM      9  N   UNL     1       4.639   2.683  20.068  0.00  0.00    +0.000 NA
ATOM     10  N   UNL     1       3.907   2.336  21.120  0.00  0.00    +0.000 NA
ATOM     11  N   UNL     1       2.626   2.623  20.832  0.00  0.00    +0.000 N 
ATOM     12  C   UNL     1       1.588   2.428  21.813  0.00  0.00    +0.000 C 
ENDBRANCH   1   3
BRANCH   1  16
ATOM     13  C   UNL     1       7.878   7.217  18.235  0.00  0.00    +0.000 A 
ATOM     14  C   UNL     1       7.973   6.032  18.966  0.00  0.00    +0.000 A 
ATOM     15  C   UNL     1       7.176   4.927  18.642  0.00  0.00    +0.000 A 
ATOM     16  C   UNL     1       6.242   4.992  17.599  0.00  0.00    +0.000 A 
ATOM     17  C   UNL     1       6.202   6.173  16.847  0.00  0.00    +0.000 A 
ATOM     18  C   UNL     1       6.991   7.281  17.169  0.00  0.00    +0.000 A 
BRANCH  13  20
ATOM     19  C   UNL     1       8.381   9.518  18.084  0.00  0.00    +0.000 C 
ATOM     20  O   UNL     1       8.671   8.247  18.658  0.00  0.00    +0.000 OA
ENDBRANCH  13  20
ENDBRANCH   1  16
TORSDOF 3
ENDMDL
MODEL 2
REMARK VINA RESULT:      -6.8      6.088      7.438
REMARK  Name = 
REMARK  5 active torsions:
REMARK  status: ('A' for Active; 'I' for Inactive)
REMARK    1  A    between atoms: C_1  and  O_2
REMARK    2  A    between atoms: O_2  and  C_3
REMARK    3  A    between atoms: C_6  and  N_7
REMARK    4  A    between atoms: N_7  and  C_8
REMARK    5  A    between atoms: N_16  and  C_17
REMARK                            x       y       z     vdW  Elec       q    Type
REMARK                         _______ _______ _______ _____ _____    ______ ____
ROOT
ATOM      1  N   UNL     1       2.118   7.793  20.509  0.00  0.00    +0.000 N 
ATOM      2  H   UNL     1       3.056   8.139  20.692  0.00  0.00    +0.000 HD
ENDROOT
BRANCH   1   3
ATOM      3  C   UNL     1       1.202   8.855  20.355  0.00  0.00    +0.000 A 
ATOM      4  N   UNL     1       0.927   9.389  19.123  0.00  0.00    +0.000 NA
ATOM      5  C   UNL     1       0.133  10.473  18.987  0.00  0.00    +0.000 A 
ATOM      6  C   UNL     1      -0.471  11.142  20.030  0.00  0.00    +0.000 A 
ATOM      7  C   UNL     1      -0.223  10.587  21.281  0.00  0.00    +0.000 A 
ATOM      8  C   UNL     1       0.577   9.462  21.468  0.00  0.00    +0.000 A 
ATOM      9  N   UNL     1       0.641   9.172  22.811  0.00  0.00    +0.000 NA
ATOM     10  N   UNL     1      -0.086  10.071  23.464  0.00  0.00    +0.000 NA
ATOM     11  N   UNL     1      -0.590  10.921  22.552  0.00  0.00    +0.000 N 
ATOM     12  C   UNL     1      -1.369  12.062  22.961  0.00  0.00    +0.000 C 
ENDBRANCH   1   3
BRANCH   1  16
ATOM     13  C   UNL     1       1.837   4.032  18.574  0.00  0.00    +0.000 A 
ATOM     14  C   UNL     1       2.370   5.140  17.916  0.00  0.00    +0.000 A 
ATOM     15  C   UNL     1       2.502   6.368  18.577  0.00  0.00    +0.000 A 
ATOM     16  C   UNL     1       2.072   6.524  19.901  0.00  0.00    +0.000 A 
ATOM     17  C   UNL     1       1.589   5.385  20.557  0.00  0.00    +0.000 A 
ATOM     18  C   UNL     1       1.450   4.159  19.901  0.00  0.00    +0.000 A 
BRANCH  13  20
ATOM     19  C   UNL     1       2.788   1.964  17.951  0.00  0.00    +0.000 C 
ATOM     20  O   UNL     1       1.716   2.892  17.828  0.00  0.00    +0.000 OA
ENDBRANCH  13  20
ENDBRANCH   1  16
TORSDOF 3
ENDMDL
MODEL 3
REMARK VINA RESULT:      -6.8      2.899      3.696
REMARK  Name = 
REMARK  5 active torsions:
REMARK  status: ('A' for Active; 'I' for Inactive)
REMARK    1  A    between atoms: C_1  and  O_2
REMARK    2  A    between atoms: O_2  and  C_3
REMARK    3  A    between atoms: C_6  and  N_7
REMARK    4  A    between atoms: N_7  and  C_8
REMARK    5  A    between atoms: N_16  and  C_17
REMARK                            x       y       z     vdW  Elec       q    Type
REMARK                         _______ _______ _______ _____ _____    ______ ____
ROOT
ATOM      1  N   UNL     1       5.667   5.403  18.016  0.00  0.00    +0.000 N 
ATOM      2  H   UNL     1       6.274   6.109  18.424  0.00  0.00    +0.000 HD
ENDROOT
BRANCH   1   3
ATOM      3  C   UNL     1       4.421   5.358  18.678  0.00  0.00    +0.000 A 
ATOM      4  N   UNL     1       3.568   6.431  18.671  0.00  0.00    +0.000 NA
ATOM      5  C   UNL     1       2.425   6.426  19.390  0.00  0.00    +0.000 A 
ATOM      6  C   UNL     1       1.998   5.383  20.183  0.00  0.00    +0.000 A 
ATOM      7  C   UNL     1       2.842   4.277  20.170  0.00  0.00    +0.000 A 
ATOM      8  C   UNL     1       4.023   4.230  19.432  0.00  0.00    +0.000 A 
ATOM      9  N   UNL     1       4.637   3.018  19.639  0.00  0.00    +0.000 NA
ATOM     10  N   UNL     1       3.886   2.310  20.474  0.00  0.00    +0.000 NA
ATOM     11  N   UNL     1       2.823   3.066  20.800  0.00  0.00    +0.000 N 
ATOM     12  C   UNL     1       1.853   2.601  21.758  0.00  0.00    +0.000 C 
ENDBRANCH   1   3
BRANCH   1  16
ATOM     13  C   UNL     1       6.491   4.347  13.995  0.00  0.00    +0.000 A 
ATOM     14  C   UNL     1       5.269   4.024  14.586  0.00  0.00    +0.000 A 
ATOM     15  C   UNL     1       4.987   4.416  15.901  0.00  0.00    +0.000 A 
ATOM     16  C   UNL     1       5.933   5.112  16.665  0.00  0.00    +0.000 A 
ATOM     17  C   UNL     1       7.130   5.469  16.033  0.00  0.00    +0.000 A 
ATOM     18  C   UNL     1       7.420   5.076  14.724  0.00  0.00    +0.000 A 
BRANCH  13  20
ATOM     19  C   UNL     1       5.578   3.189  12.152  0.00  0.00    +0.000 C 
ATOM     20  O   UNL     1       6.682   3.884  12.723  0.00  0.00    +0.000 OA
ENDBRANCH  13  20
ENDBRANCH   1  16
TORSDOF 3
ENDMDL
MODEL 4
REMARK VINA RESULT:      -6.8      2.861      3.614
REMARK  Name = 
REMARK  5 active torsions:
REMARK  status: ('A' for Active; 'I' for Inactive)
REMARK    1  A    between atoms: C_1  and  O_2
REMARK    2  A    between atoms: O_2  and  C_3
REMARK    3  A    between atoms: C_6  and  N_7
REMARK    4  A    between atoms: N_7  and  C_8
REMARK    5  A    between atoms: N_16  and  C_17
REMARK                            x       y       z     vdW  Elec       q    Type
REMARK                         _______ _______ _______ _____ _____    ______ ____
ROOT
ATOM      1  N   UNL     1       5.464   5.676  18.182  0.00  0.00    +0.000 N 
ATOM      2  H   UNL     1       5.960   6.527  18.432  0.00  0.00    +0.000 HD
ENDROOT
BRANCH   1   3
ATOM      3  C   UNL     1       4.235   5.580  18.869  0.00  0.00    +0.000 A 
ATOM      4  N   UNL     1       3.390   6.655  18.978  0.00  0.00    +0.000 NA
ATOM      5  C   UNL     1       2.266   6.593  19.724  0.00  0.00    +0.000 A 
ATOM      6  C   UNL     1       1.852   5.487  20.434  0.00  0.00    +0.000 A 
ATOM      7  C   UNL     1       2.687   4.383  20.304  0.00  0.00    +0.000 A 
ATOM      8  C   UNL     1       3.848   4.394  19.534  0.00  0.00    +0.000 A 
ATOM      9  N   UNL     1       4.458   3.165  19.620  0.00  0.00    +0.000 NA
ATOM     10  N   UNL     1       3.724   2.392  20.411  0.00  0.00    +0.000 NA
ATOM     11  N   UNL     1       2.675   3.122  20.828  0.00  0.00    +0.000 N 
ATOM     12  C   UNL     1       1.727   2.581  21.767  0.00  0.00    +0.000 C 
ENDBRANCH   1   3
BRANCH   1  16
ATOM     13  C   UNL     1       6.394   4.330  14.272  0.00  0.00    +0.000 A 
ATOM     14  C   UNL     1       7.334   5.022  15.036  0.00  0.00    +0.000 A 
ATOM     15  C   UNL     1       7.035   5.424  16.344  0.00  0.00    +0.000 A 
ATOM     16  C   UNL     1       5.776   5.171  16.906  0.00  0.00    +0.000 A 
ATOM     17  C   UNL     1       4.869   4.430  16.139  0.00  0.00    +0.000 A 
ATOM     18  C   UNL     1       5.160   4.031  14.832  0.00  0.00    +0.000 A 
BRANCH  13  20
ATOM     19  C   UNL     1       5.821   3.275  12.240  0.00  0.00    +0.000 C 
ATOM     20  O   UNL     1       6.772   4.018  12.995  0.00  0.00    +0.000 OA
ENDBRANCH  13  20
ENDBRANCH   1  16
TORSDOF 3
ENDMDL
MODEL 5
REMARK VINA RESULT:      -6.7      5.979      7.294
REMARK  Name = 
REMARK  5 active torsions:
REMARK  status: ('A' for Active; 'I' for Inactive)
REMARK    1  A    between atoms: C_1  and  O_2
REMARK    2  A    between atoms: O_2  and  C_3
REMARK    3  A    between atoms: C_6  and  N_7
REMARK    4  A    between atoms: N_7  and  C_8
REMARK    5  A    between atoms: N_16  and  C_17
REMARK                            x       y       z     vdW  Elec       q    Type
REMARK                         _______ _______ _______ _____ _____    ______ ____
ROOT
ATOM      1  N   UNL     1       2.153   7.584  20.526  0.00  0.00    +0.000 N 
ATOM      2  H   UNL     1       3.097   7.871  20.770  0.00  0.00    +0.000 HD
ENDROOT
BRANCH   1   3
ATOM      3  C   UNL     1       1.310   8.700  20.339  0.00  0.00    +0.000 A 
ATOM      4  N   UNL     1       1.112   9.246  19.096  0.00  0.00    +0.000 NA
ATOM      5  C   UNL     1       0.391  10.376  18.931  0.00  0.00    +0.000 A 
ATOM      6  C   UNL     1      -0.206  11.085  19.951  0.00  0.00    +0.000 A 
ATOM      7  C   UNL     1      -0.036  10.520  21.211  0.00  0.00    +0.000 A 
ATOM      8  C   UNL     1       0.685   9.348  21.428  0.00  0.00    +0.000 A 
ATOM      9  N   UNL     1       0.684   9.059  22.772  0.00  0.00    +0.000 NA
ATOM     10  N   UNL     1      -0.009  10.004  23.398  0.00  0.00    +0.000 NA
ATOM     11  N   UNL     1      -0.427  10.880  22.468  0.00  0.00    +0.000 N 
ATOM     12  C   UNL     1      -1.148  12.068  22.847  0.00  0.00    +0.000 C 
ENDBRANCH   1   3
BRANCH   1  16
ATOM     13  C   UNL     1       2.043   3.746  18.728  0.00  0.00    +0.000 A 
ATOM     14  C   UNL     1       1.575   3.944  20.027  0.00  0.00    +0.000 A 
ATOM     15  C   UNL     1       1.573   5.224  20.598  0.00  0.00    +0.000 A 
ATOM     16  C   UNL     1       2.070   6.329  19.893  0.00  0.00    +0.000 A 
ATOM     17  C   UNL     1       2.486   6.114  18.574  0.00  0.00    +0.000 A 
ATOM     18  C   UNL     1       2.496   4.839  18.001  0.00  0.00    +0.000 A 
BRANCH  13  20
ATOM     19  C   UNL     1       3.267   1.749  18.434  0.00  0.00    +0.000 C 
ATOM     20  O   UNL     1       2.039   2.454  18.280  0.00  0.00    +0.000 OA
ENDBRANCH  13  20
ENDBRANCH   1  16
TORSDOF 3
ENDMDL
MODEL 6
REMARK VINA RESULT:      -6.7      0.510      1.194
REMARK  Name = 
REMARK  5 active torsions:
REMARK  status: ('A' for Active; 'I' for Inactive)
REMARK    1  A    between atoms: C_1  and  O_2
REMARK    2  A    between atoms: O_2  and  C_3
REMARK    3  A    between atoms: C_6  and  N_7
REMARK    4  A    between atoms: N_7  and  C_8
REMARK    5  A    between atoms: N_16  and  C_17
REMARK                            x       y       z     vdW  Elec       q    Type
REMARK                         _______ _______ _______ _____ _____    ______ ____
ROOT
ATOM      1  N   UNL     1       5.642   4.036  17.679  0.00  0.00    +0.000 N 
ATOM      2  H   UNL     1       6.230   3.220  17.827  0.00  0.00    +0.000 HD
ENDROOT
BRANCH   1   3
ATOM      3  C   UNL     1       4.294   3.760  17.991  0.00  0.00    +0.000 A 
ATOM      4  N   UNL     1       3.282   4.059  17.116  0.00  0.00    +0.000 NA
ATOM      5  C   UNL     1       1.986   3.893  17.457  0.00  0.00    +0.000 A 
ATOM      6  C   UNL     1       1.546   3.420  18.674  0.00  0.00    +0.000 A 
ATOM      7  C   UNL     1       2.568   3.084  19.556  0.00  0.00    +0.000 A 
ATOM      8  C   UNL     1       3.918   3.224  19.244  0.00  0.00    +0.000 A 
ATOM      9  N   UNL     1       4.674   2.825  20.320  0.00  0.00    +0.000 NA
ATOM     10  N   UNL     1       3.849   2.444  21.288  0.00  0.00    +0.000 NA
ATOM     11  N   UNL     1       2.594   2.610  20.836  0.00  0.00    +0.000 N 
ATOM     12  C   UNL     1       1.462   2.351  21.689  0.00  0.00    +0.000 C 
ENDBRANCH   1   3
BRANCH   1  16
ATOM     13  C   UNL     1       7.744   7.714  17.842  0.00  0.00    +0.000 A 
ATOM     14  C   UNL     1       6.636   7.556  17.009  0.00  0.00    +0.000 A 
ATOM     15  C   UNL     1       5.920   6.352  16.994  0.00  0.00    +0.000 A 
ATOM     16  C   UNL     1       6.315   5.268  17.789  0.00  0.00    +0.000 A 
ATOM     17  C   UNL     1       7.397   5.468  18.654  0.00  0.00    +0.000 A 
ATOM     18  C   UNL     1       8.119   6.664  18.670  0.00  0.00    +0.000 A 
BRANCH  13  20
ATOM     19  C   UNL     1       8.886   9.436  18.982  0.00  0.00    +0.000 C 
ATOM     20  O   UNL     1       8.396   8.912  17.752  0.00  0.00    +0.000 OA
ENDBRANCH  13  20
ENDBRANCH   1  16
TORSDOF 3
ENDMDL
MODEL 7
REMARK VINA RESULT:      -6.5      2.829      3.900
REMARK  Name = 
REMARK  5 active torsions:
REMARK  status: ('A' for Active; 'I' for Inactive)
REMARK    1  A    between atoms: C_1  and  O_2
REMARK    2  A    between atoms: O_2  and  C_3
REMARK    3  A    between atoms: C_6  and  N_7
REMARK    4  A    between atoms: N_7  and  C_8
REMARK    5  A    between atoms: N_16  and  C_17
REMARK                            x       y       z     vdW  Elec       q    Type
REMARK                         _______ _______ _______ _____ _____    ______ ____
ROOT
ATOM      1  N   UNL     1       3.837   3.521  17.292  0.00  0.00    +0.000 N 
ATOM      2  H   UNL     1       3.689   2.528  17.134  0.00  0.00    +0.000 HD
ENDROOT
BRANCH   1   3
ATOM      3  C   UNL     1       3.358   3.914  18.559  0.00  0.00    +0.000 A 
ATOM      4  N   UNL     1       3.172   3.003  19.568  0.00  0.00    +0.000 NA
ATOM      5  C   UNL     1       2.615   3.360  20.744  0.00  0.00    +0.000 A 
ATOM      6  C   UNL     1       2.186   4.632  21.059  0.00  0.00    +0.000 A 
ATOM      7  C   UNL     1       2.400   5.569  20.053  0.00  0.00    +0.000 A 
ATOM      8  C   UNL     1       2.985   5.250  18.829  0.00  0.00    +0.000 A 
ATOM      9  N   UNL     1       3.043   6.381  18.049  0.00  0.00    +0.000 NA
ATOM     10  N   UNL     1       2.519   7.387  18.739  0.00  0.00    +0.000 NA
ATOM     11  N   UNL     1       2.125   6.899  19.928  0.00  0.00    +0.000 N 
ATOM     12  C   UNL     1       1.444   7.740  20.880  0.00  0.00    +0.000 C 
ENDBRANCH   1   3
BRANCH   1  16
ATOM     13  C   UNL     1       7.109   5.016  15.050  0.00  0.00    +0.000 A 
ATOM     14  C   UNL     1       5.914   4.660  14.425  0.00  0.00    +0.000 A 
ATOM     15  C   UNL     1       4.822   4.209  15.178  0.00  0.00    +0.000 A 
ATOM     16  C   UNL     1       4.912   4.074  16.570  0.00  0.00    +0.000 A 
ATOM     17  C   UNL     1       6.103   4.486  17.178  0.00  0.00    +0.000 A 
ATOM     18  C   UNL     1       7.198   4.931  16.432  0.00  0.00    +0.000 A 
BRANCH  13  20
ATOM     19  C   UNL     1       7.868   5.265  12.829  0.00  0.00    +0.000 C 
ATOM     20  O   UNL     1       8.125   5.405  14.222  0.00  0.00    +0.000 OA
ENDBRANCH  13  20
ENDBRANCH   1  16
TORSDOF 3
ENDMDL
MODEL 8
REMARK VINA RESULT:      -6.5      4.437      5.942
REMARK  Name = 
REMARK  5 active torsions:
REMARK  status: ('A' for Active; 'I' for Inactive)
REMARK    1  A    between atoms: C_1  and  O_2
REMARK    2  A    between atoms: O_2  and  C_3
REMARK    3  A    between atoms: C_6  and  N_7
REMARK    4  A    between atoms: N_7  and  C_8
REMARK    5  A    between atoms: N_16  and  C_17
REMARK                            x       y       z     vdW  Elec       q    Type
REMARK                         _______ _______ _______ _____ _____    ______ ____
ROOT
ATOM      1  N   UNL     1       2.735   6.547  19.845  0.00  0.00    +0.000 N 
ATOM      2  H   UNL     1       2.810   6.180  20.789  0.00  0.00    +0.000 HD
ENDROOT
BRANCH   1   3
ATOM      3  C   UNL     1       2.843   5.517  18.886  0.00  0.00    +0.000 A 
ATOM      4  N   UNL     1       1.927   4.498  18.825  0.00  0.00    +0.000 NA
ATOM      5  C   UNL     1       2.088   3.458  17.979  0.00  0.00    +0.000 A 
ATOM      6  C   UNL     1       3.148   3.305  17.110  0.00  0.00    +0.000 A 
ATOM      7  C   UNL     1       4.065   4.351  17.143  0.00  0.00    +0.000 A 
ATOM      8  C   UNL     1       3.933   5.451  17.988  0.00  0.00    +0.000 A 
ATOM      9  N   UNL     1       5.000   6.297  17.797  0.00  0.00    +0.000 NA
ATOM     10  N   UNL     1       5.788   5.767  16.869  0.00  0.00    +0.000 NA
ATOM     11  N   UNL     1       5.236   4.602  16.489  0.00  0.00    +0.000 N 
ATOM     12  C   UNL     1       5.900   3.747  15.539  0.00  0.00    +0.000 C 
ENDBRANCH   1   3
BRANCH   1  16
ATOM     13  C   UNL     1       0.379  10.057  19.536  0.00  0.00    +0.000 A 
ATOM     14  C   UNL     1       0.486   9.368  20.744  0.00  0.00    +0.000 A 
ATOM     15  C   UNL     1       1.302   8.234  20.849  0.00  0.00    +0.000 A 
ATOM     16  C   UNL     1       2.005   7.746  19.740  0.00  0.00    +0.000 A 
ATOM     17  C   UNL     1       1.923   8.484  18.553  0.00  0.00    +0.000 A 
ATOM     18  C   UNL     1       1.106   9.612  18.440  0.00  0.00    +0.000 A 
BRANCH  13  20
ATOM     19  C   UNL     1      -1.418  11.148  18.463  0.00  0.00    +0.000 C 
ATOM     20  O   UNL     1      -0.474  11.126  19.529  0.00  0.00    +0.000 OA
ENDBRANCH  13  20
ENDBRANCH   1  16
TORSDOF 3
ENDMDL
MODEL 9
REMARK VINA RESULT:      -6.4      5.742      7.247
REMARK  Name = 
REMARK  5 active torsions:
REMARK  status: ('A' for Active; 'I' for Inactive)
REMARK    1  A    between atoms: C_1  and  O_2
REMARK    2  A    between atoms: O_2  and  C_3
REMARK    3  A    between atoms: C_6  and  N_7
REMARK    4  A    between atoms: N_7  and  C_8
REMARK    5  A    between atoms: N_16  and  C_17
REMARK                            x       y       z     vdW  Elec       q    Type
REMARK                         _______ _______ _______ _____ _____    ______ ____
ROOT
ATOM      1  N   UNL     1       1.887   6.912  21.092  0.00  0.00    +0.000 N 
ATOM      2  H   UNL     1       2.513   7.073  21.876  0.00  0.00    +0.000 HD
ENDROOT
BRANCH   1   3
ATOM      3  C   UNL     1       1.480   8.129  20.504  0.00  0.00    +0.000 A 
ATOM      4  N   UNL     1       1.702   8.390  19.175  0.00  0.00    +0.000 NA
ATOM      5  C   UNL     1       1.410   9.593  18.637  0.00  0.00    +0.000 A 
ATOM      6  C   UNL     1       0.874  10.657  19.330  0.00  0.00    +0.000 A 
ATOM      7  C   UNL     1       0.616  10.390  20.671  0.00  0.00    +0.000 A 
ATOM      8  C   UNL     1       0.887   9.160  21.267  0.00  0.00    +0.000 A 
ATOM      9  N   UNL     1       0.538   9.215  22.595  0.00  0.00    +0.000 NA
ATOM     10  N   UNL     1       0.062  10.429  22.848  0.00  0.00    +0.000 NA
ATOM     11  N   UNL     1       0.120  11.131  21.704  0.00  0.00    +0.000 N 
ATOM     12  C   UNL     1      -0.260  12.521  21.672  0.00  0.00    +0.000 C 
ENDBRANCH   1   3
BRANCH   1  16
ATOM     13  C   UNL     1       2.390   3.077  19.359  0.00  0.00    +0.000 A 
ATOM     14  C   UNL     1       1.189   3.436  19.973  0.00  0.00    +0.000 A 
ATOM     15  C   UNL     1       1.015   4.721  20.503  0.00  0.00    +0.000 A 
ATOM     16  C   UNL     1       2.050   5.665  20.461  0.00  0.00    +0.000 A 
ATOM     17  C   UNL     1       3.225   5.298  19.795  0.00  0.00    +0.000 A 
ATOM     18  C   UNL     1       3.407   4.017  19.269  0.00  0.00    +0.000 A 
BRANCH  13  20
ATOM     19  C   UNL     1       3.619   1.486  18.122  0.00  0.00    +0.000 C 
ATOM     20  O   UNL     1       2.472   1.788  18.910  0.00  0.00    +0.000 OA
ENDBRANCH  13  20
ENDBRANCH   1  16
TORSDOF 3
ENDMDL
