MODEL 1
REMARK VINA RESULT:      -7.7      0.000      0.000
REMARK  Name = 
REMARK  10 active torsions:
REMARK  status: ('A' for Active; 'I' for Inactive)
REMARK    1  A    between atoms: C_1  and  C_2
REMARK    2  A    between atoms: C_2  and  O_3
REMARK    3  A    between atoms: O_3  and  C_4
REMARK    4  A    between atoms: C_7  and  N_8
REMARK    5  A    between atoms: N_8  and  C_9
REMARK    6  A    between atoms: C_9  and  C_10
REMARK    7  A    between atoms: N_18  and  C_19
REMARK    8  A    between atoms: C_19  and  C_20
REMARK    9  A    between atoms: C_20  and  O_21
REMARK   10  A    between atoms: O_21  and  C_22
REMARK                            x       y       z     vdW  Elec       q    Type
REMARK                         _______ _______ _______ _____ _____    ______ ____
ROOT
ATOM      1  C   UNL     1       4.191   3.805  17.708  0.00  0.00    +0.000 A 
ATOM      2  N   UNL     1       4.349   2.853  18.600  0.00  0.00    +0.000 NA
ATOM      3  C   UNL     1       3.443   3.122  19.586  0.00  0.00    +0.000 A 
ATOM      4  C   UNL     1       3.208   2.386  20.757  0.00  0.00    +0.000 A 
ATOM      5  C   UNL     1       2.156   2.763  21.591  0.00  0.00    +0.000 A 
ATOM      6  C   UNL     1       1.356   3.856  21.253  0.00  0.00    +0.000 A 
ATOM      7  C   UNL     1       1.612   4.642  20.112  0.00  0.00    +0.000 A 
ATOM      8  C   UNL     1       2.689   4.265  19.295  0.00  0.00    +0.000 A 
ATOM      9  N   UNL     1       3.281   4.768  18.158  0.00  0.00    +0.000 N 
ENDROOT
BRANCH   1  10
ATOM     10  C   UNL     1       4.908   3.867  16.383  0.00  0.00    +0.000 C 
BRANCH  10  11
ATOM     11  N   UNL     1       6.369   3.820  16.509  0.00  0.00    +0.000 N 
ATOM     12  H   UNL     1       6.643   2.947  16.961  0.00  0.00    +0.000 HD
BRANCH  11  16
ATOM     13  C   UNL     1       8.072   7.246  18.327  0.00  0.00    +0.000 A 
ATOM     14  C   UNL     1       7.500   7.313  17.059  0.00  0.00    +0.000 A 
ATOM     15  C   UNL     1       6.952   6.170  16.466  0.00  0.00    +0.000 A 
ATOM     16  C   UNL     1       7.009   4.922  17.101  0.00  0.00    +0.000 A 
ATOM     17  C   UNL     1       7.585   4.876  18.377  0.00  0.00    +0.000 A 
ATOM     18  C   UNL     1       8.132   6.018  18.977  0.00  0.00    +0.000 A 
BRANCH  13  19
ATOM     19  O   UNL     1       8.534   8.431  18.828  0.00  0.00    +0.000 OA
BRANCH  19  21
ATOM     20  C   UNL     1       9.262  10.655  18.382  0.00  0.00    +0.000 C 
ATOM     21  C   UNL     1       8.216   9.600  18.070  0.00  0.00    +0.000 C 
ENDBRANCH  19  21
ENDBRANCH  13  19
ENDBRANCH  11  16
ENDBRANCH  10  11
ENDBRANCH   1  10
BRANCH   9  22
ATOM     22  C   UNL     1       3.184   6.053  17.504  0.00  0.00    +0.000 C 
BRANCH  22  23
ATOM     23  C   UNL     1       3.294   7.413  18.197  0.00  0.00    +0.000 C 
BRANCH  23  24
ATOM     24  O   UNL     1       1.982   7.600  18.769  0.00  0.00    +0.000 OA
BRANCH  24  25
ATOM     25  C   UNL     1       1.570   8.825  19.194  0.00  0.00    +0.000 A 
ATOM     26  C   UNL     1       1.756   9.859  18.267  0.00  0.00    +0.000 A 
ATOM     27  C   UNL     1       1.349  11.163  18.553  0.00  0.00    +0.000 A 
ATOM     28  C   UNL     1       0.734  11.443  19.770  0.00  0.00    +0.000 A 
ATOM     29  C   UNL     1       0.533  10.412  20.693  0.00  0.00    +0.000 A 
ATOM     30  C   UNL     1       0.948   9.104  20.407  0.00  0.00    +0.000 A 
ENDBRANCH  24  25
ENDBRANCH  23  24
ENDBRANCH  22  23
ENDBRANCH   9  22
TORSDOF 9
ENDMDL
MODEL 2
REMARK VINA RESULT:      -7.6      2.594      6.669
REMARK  Name = 
REMARK  10 active torsions:
REMARK  status: ('A' for Active; 'I' for Inactive)
REMARK    1  A    between atoms: C_1  and  C_2
REMARK    2  A    between atoms: C_2  and  O_3
REMARK    3  A    between atoms: O_3  and  C_4
REMARK    4  A    between atoms: C_7  and  N_8
REMARK    5  A    between atoms: N_8  and  C_9
REMARK    6  A    between atoms: C_9  and  C_10
REMARK    7  A    between atoms: N_18  and  C_19
REMARK    8  A    between atoms: C_19  and  C_20
REMARK    9  A    between atoms: C_20  and  O_21
REMARK   10  A    between atoms: O_21  and  C_22
REMARK                            x       y       z     vdW  Elec       q    Type
REMARK                         _______ _______ _______ _____ _____    ______ ____
ROOT
ATOM      1  C   UNL     1       6.917   5.156  15.874  0.00  0.00    +0.000 A 
ATOM      2  N   UNL     1       7.695   5.421  14.848  0.00  0.00    +0.000 NA
ATOM      3  C   UNL     1       7.181   4.704  13.806  0.00  0.00    +0.000 A 
ATOM      4  C   UNL     1       7.649   4.660  12.484  0.00  0.00    +0.000 A 
ATOM      5  C   UNL     1       6.917   3.951  11.533  0.00  0.00    +0.000 A 
ATOM      6  C   UNL     1       5.737   3.302  11.903  0.00  0.00    +0.000 A 
ATOM      7  C   UNL     1       5.282   3.287  13.236  0.00  0.00    +0.000 A 
ATOM      8  C   UNL     1       6.043   3.983  14.187  0.00  0.00    +0.000 A 
ATOM      9  N   UNL     1       5.974   4.175  15.549  0.00  0.00    +0.000 N 
ENDROOT
BRANCH   1  10
ATOM     10  C   UNL     1       7.033   5.807  17.230  0.00  0.00    +0.000 C 
BRANCH  10  11
ATOM     11  N   UNL     1       6.197   7.005  17.373  0.00  0.00    +0.000 N 
ATOM     12  H   UNL     1       6.732   7.739  17.839  0.00  0.00    +0.000 HD
BRANCH  11  16
ATOM     13  C   UNL     1       2.458   6.667  19.336  0.00  0.00    +0.000 A 
ATOM     14  C   UNL     1       3.579   5.977  19.796  0.00  0.00    +0.000 A 
ATOM     15  C   UNL     1       4.805   6.090  19.129  0.00  0.00    +0.000 A 
ATOM     16  C   UNL     1       4.929   6.850  17.958  0.00  0.00    +0.000 A 
ATOM     17  C   UNL     1       3.793   7.537  17.514  0.00  0.00    +0.000 A 
ATOM     18  C   UNL     1       2.564   7.431  18.179  0.00  0.00    +0.000 A 
BRANCH  13  19
ATOM     19  O   UNL     1       1.327   6.522  20.089  0.00  0.00    +0.000 OA
BRANCH  19  21
ATOM     20  C   UNL     1       0.934   8.770  20.771  0.00  0.00    +0.000 C 
ATOM     21  C   UNL     1       1.231   7.358  21.244  0.00  0.00    +0.000 C 
ENDBRANCH  19  21
ENDBRANCH  13  19
ENDBRANCH  11  16
ENDBRANCH  10  11
ENDBRANCH   1  10
BRANCH   9  22
ATOM     22  C   UNL     1       5.228   3.498  16.585  0.00  0.00    +0.000 C 
BRANCH  22  23
ATOM     23  C   UNL     1       3.716   3.597  16.799  0.00  0.00    +0.000 C 
BRANCH  23  24
ATOM     24  O   UNL     1       3.428   2.471  17.654  0.00  0.00    +0.000 OA
BRANCH  24  25
ATOM     25  C   UNL     1       2.839   2.643  18.868  0.00  0.00    +0.000 A 
ATOM     26  C   UNL     1       1.484   3.001  18.814  0.00  0.00    +0.000 A 
ATOM     27  C   UNL     1       0.741   3.178  19.983  0.00  0.00    +0.000 A 
ATOM     28  C   UNL     1       1.345   2.984  21.222  0.00  0.00    +0.000 A 
ATOM     29  C   UNL     1       2.692   2.613  21.280  0.00  0.00    +0.000 A 
ATOM     30  C   UNL     1       3.439   2.441  20.107  0.00  0.00    +0.000 A 
ENDBRANCH  24  25
ENDBRANCH  23  24
ENDBRANCH  22  23
ENDBRANCH   9  22
TORSDOF 9
ENDMDL
MODEL 3
REMARK VINA RESULT:      -7.5      0.872      1.386
REMARK  Name = 
REMARK  10 active torsions:
REMARK  status: ('A' for Active; 'I' for Inactive)
REMARK    1  A    between atoms: C_1  and  C_2
REMARK    2  A    between atoms: C_2  and  O_3
REMARK    3  A    between atoms: O_3  and  C_4
REMARK    4  A    between atoms: C_7  and  N_8
REMARK    5  A    between atoms: N_8  and  C_9
REMARK    6  A    between atoms: C_9  and  C_10
REMARK    7  A    between atoms: N_18  and  C_19
REMARK    8  A    between atoms: C_19  and  C_20
REMARK    9  A    between atoms: C_20  and  O_21
REMARK   10  A    between atoms: O_21  and  C_22
REMARK                            x       y       z     vdW  Elec       q    Type
REMARK                         _______ _______ _______ _____ _____    ______ ____
ROOT
ATOM      1  C   UNL     1       3.928   3.922  17.710  0.00  0.00    +0.000 A 
ATOM      2  N   UNL     1       4.157   2.918  18.527  0.00  0.00    +0.000 NA
ATOM      3  C   UNL     1       3.294   3.093  19.570  0.00  0.00    +0.000 A 
ATOM      4  C   UNL     1       3.138   2.274  20.699  0.00  0.00    +0.000 A 
ATOM      5  C   UNL     1       2.119   2.561  21.605  0.00  0.00    +0.000 A 
ATOM      6  C   UNL     1       1.272   3.648  21.380  0.00  0.00    +0.000 A 
ATOM      7  C   UNL     1       1.448   4.515  20.284  0.00  0.00    +0.000 A 
ATOM      8  C   UNL     1       2.493   4.228  19.393  0.00  0.00    +0.000 A 
ATOM      9  N   UNL     1       3.014   4.823  18.266  0.00  0.00    +0.000 N 
ENDROOT
BRANCH   1  10
ATOM     10  C   UNL     1       4.576   4.094  16.359  0.00  0.00    +0.000 C 
BRANCH  10  11
ATOM     11  N   UNL     1       6.041   4.160  16.421  0.00  0.00    +0.000 N 
ATOM     12  H   UNL     1       6.406   3.280  16.788  0.00  0.00    +0.000 HD
BRANCH  11  16
ATOM     13  C   UNL     1       8.004   7.397  18.322  0.00  0.00    +0.000 A 
ATOM     14  C   UNL     1       8.114   6.098  18.815  0.00  0.00    +0.000 A 
ATOM     15  C   UNL     1       7.450   5.040  18.182  0.00  0.00    +0.000 A 
ATOM     16  C   UNL     1       6.618   5.261  17.076  0.00  0.00    +0.000 A 
ATOM     17  C   UNL     1       6.522   6.573  16.595  0.00  0.00    +0.000 A 
ATOM     18  C   UNL     1       7.188   7.635  17.222  0.00  0.00    +0.000 A 
BRANCH  13  19
ATOM     19  O   UNL     1       8.732   8.343  18.989  0.00  0.00    +0.000 OA
BRANCH  19  21
ATOM     20  C   UNL     1       9.399  10.591  19.407  0.00  0.00    +0.000 C 
ATOM     21  C   UNL     1       8.731   9.653  18.418  0.00  0.00    +0.000 C 
ENDBRANCH  19  21
ENDBRANCH  13  19
ENDBRANCH  11  16
ENDBRANCH  10  11
ENDBRANCH   1  10
BRANCH   9  22
ATOM     22  C   UNL     1       2.847   6.145  17.706  0.00  0.00    +0.000 C 
BRANCH  22  23
ATOM     23  C   UNL     1       2.745   7.444  18.509  0.00  0.00    +0.000 C 
BRANCH  23  24
ATOM     24  O   UNL     1       2.296   8.404  17.529  0.00  0.00    +0.000 OA
BRANCH  24  25
ATOM     25  C   UNL     1       1.686   9.559  17.907  0.00  0.00    +0.000 A 
ATOM     26  C   UNL     1       0.304   9.449  18.116  0.00  0.00    +0.000 A 
ATOM     27  C   UNL     1      -0.449  10.546  18.539  0.00  0.00    +0.000 A 
ATOM     28  C   UNL     1       0.180  11.766  18.773  0.00  0.00    +0.000 A 
ATOM     29  C   UNL     1       1.560  11.876  18.581  0.00  0.00    +0.000 A 
ATOM     30  C   UNL     1       2.314  10.777  18.150  0.00  0.00    +0.000 A 
ENDBRANCH  24  25
ENDBRANCH  23  24
ENDBRANCH  22  23
ENDBRANCH   9  22
TORSDOF 9
ENDMDL
MODEL 4
REMARK VINA RESULT:      -7.5      2.757      7.395
REMARK  Name = 
REMARK  10 active torsions:
REMARK  status: ('A' for Active; 'I' for Inactive)
REMARK    1  A    between atoms: C_1  and  C_2
REMARK    2  A    between atoms: C_2  and  O_3
REMARK    3  A    between atoms: O_3  and  C_4
REMARK    4  A    between atoms: C_7  and  N_8
REMARK    5  A    between atoms: N_8  and  C_9
REMARK    6  A    between atoms: C_9  and  C_10
REMARK    7  A    between atoms: N_18  and  C_19
REMARK    8  A    between atoms: C_19  and  C_20
REMARK    9  A    between atoms: C_20  and  O_21
REMARK   10  A    between atoms: O_21  and  C_22
REMARK                            x       y       z     vdW  Elec       q    Type
REMARK                         _______ _______ _______ _____ _____    ______ ____
ROOT
ATOM      1  C   UNL     1       2.902   6.275  18.039  0.00  0.00    +0.000 A 
ATOM      2  N   UNL     1       1.748   5.651  18.119  0.00  0.00    +0.000 NA
ATOM      3  C   UNL     1       2.058   4.332  18.289  0.00  0.00    +0.000 A 
ATOM      4  C   UNL     1       1.168   3.256  18.441  0.00  0.00    +0.000 A 
ATOM      5  C   UNL     1       1.683   1.990  18.717  0.00  0.00    +0.000 A 
ATOM      6  C   UNL     1       3.061   1.809  18.839  0.00  0.00    +0.000 A 
ATOM      7  C   UNL     1       3.972   2.864  18.632  0.00  0.00    +0.000 A 
ATOM      8  C   UNL     1       3.442   4.127  18.331  0.00  0.00    +0.000 A 
ATOM      9  N   UNL     1       3.965   5.365  18.027  0.00  0.00    +0.000 N 
ENDROOT
BRANCH   1  10
ATOM     10  C   UNL     1       3.064   7.772  17.954  0.00  0.00    +0.000 C 
BRANCH  10  11
ATOM     11  N   UNL     1       1.793   8.500  18.040  0.00  0.00    +0.000 N 
ATOM     12  H   UNL     1       1.736   9.175  17.276  0.00  0.00    +0.000 HD
BRANCH  11  16
ATOM     13  C   UNL     1       0.561  10.304  21.669  0.00  0.00    +0.000 A 
ATOM     14  C   UNL     1       0.562  11.019  20.473  0.00  0.00    +0.000 A 
ATOM     15  C   UNL     1       0.983  10.412  19.284  0.00  0.00    +0.000 A 
ATOM     16  C   UNL     1       1.464   9.096  19.269  0.00  0.00    +0.000 A 
ATOM     17  C   UNL     1       1.452   8.393  20.480  0.00  0.00    +0.000 A 
ATOM     18  C   UNL     1       1.028   8.994  21.673  0.00  0.00    +0.000 A 
BRANCH  13  19
ATOM     19  O   UNL     1       0.087  10.979  22.759  0.00  0.00    +0.000 OA
BRANCH  19  21
ATOM     20  C   UNL     1      -1.969  12.153  23.027  0.00  0.00    +0.000 C 
ATOM     21  C   UNL     1      -1.298  10.791  23.060  0.00  0.00    +0.000 C 
ENDBRANCH  19  21
ENDBRANCH  13  19
ENDBRANCH  11  16
ENDBRANCH  10  11
ENDBRANCH   1  10
BRANCH   9  22
ATOM     22  C   UNL     1       5.290   5.784  17.632  0.00  0.00    +0.000 C 
BRANCH  22  23
ATOM     23  C   UNL     1       5.758   6.009  16.192  0.00  0.00    +0.000 C 
BRANCH  23  24
ATOM     24  O   UNL     1       5.337   4.805  15.516  0.00  0.00    +0.000 OA
BRANCH  24  25
ATOM     25  C   UNL     1       5.826   4.481  14.289  0.00  0.00    +0.000 A 
ATOM     26  C   UNL     1       7.052   5.083  13.971  0.00  0.00    +0.000 A 
ATOM     27  C   UNL     1       7.691   4.816  12.759  0.00  0.00    +0.000 A 
ATOM     28  C   UNL     1       7.114   3.929  11.855  0.00  0.00    +0.000 A 
ATOM     29  C   UNL     1       5.899   3.315  12.174  0.00  0.00    +0.000 A 
ATOM     30  C   UNL     1       5.255   3.588  13.388  0.00  0.00    +0.000 A 
ENDBRANCH  24  25
ENDBRANCH  23  24
ENDBRANCH  22  23
ENDBRANCH   9  22
TORSDOF 9
ENDMDL
MODEL 5
REMARK VINA RESULT:      -7.4      2.956      6.373
REMARK  Name = 
REMARK  10 active torsions:
REMARK  status: ('A' for Active; 'I' for Inactive)
REMARK    1  A    between atoms: C_1  and  C_2
REMARK    2  A    between atoms: C_2  and  O_3
REMARK    3  A    between atoms: O_3  and  C_4
REMARK    4  A    between atoms: C_7  and  N_8
REMARK    5  A    between atoms: N_8  and  C_9
REMARK    6  A    between atoms: C_9  and  C_10
REMARK    7  A    between atoms: N_18  and  C_19
REMARK    8  A    between atoms: C_19  and  C_20
REMARK    9  A    between atoms: C_20  and  O_21
REMARK   10  A    between atoms: O_21  and  C_22
REMARK                            x       y       z     vdW  Elec       q    Type
REMARK                         _______ _______ _______ _____ _____    ______ ____
ROOT
ATOM      1  C   UNL     1       2.036   8.407  18.572  0.00  0.00    +0.000 A 
ATOM      2  N   UNL     1       1.404   9.560  18.575  0.00  0.00    +0.000 NA
ATOM      3  C   UNL     1       0.905   9.698  19.839  0.00  0.00    +0.000 A 
ATOM      4  C   UNL     1       0.162  10.772  20.353  0.00  0.00    +0.000 A 
ATOM      5  C   UNL     1      -0.163  10.779  21.708  0.00  0.00    +0.000 A 
ATOM      6  C   UNL     1       0.251   9.730  22.530  0.00  0.00    +0.000 A 
ATOM      7  C   UNL     1       0.947   8.615  22.021  0.00  0.00    +0.000 A 
ATOM      8  C   UNL     1       1.246   8.610  20.651  0.00  0.00    +0.000 A 
ATOM      9  N   UNL     1       1.849   7.728  19.781  0.00  0.00    +0.000 N 
ENDROOT
BRANCH   1  10
ATOM     10  C   UNL     1       2.842   7.874  17.414  0.00  0.00    +0.000 C 
BRANCH  10  11
ATOM     11  N   UNL     1       4.110   7.258  17.822  0.00  0.00    +0.000 N 
ATOM     12  H   UNL     1       4.769   7.988  18.096  0.00  0.00    +0.000 HD
BRANCH  11  16
ATOM     13  C   UNL     1       5.678   4.407  15.110  0.00  0.00    +0.000 A 
ATOM     14  C   UNL     1       5.146   4.017  16.337  0.00  0.00    +0.000 A 
ATOM     15  C   UNL     1       4.642   4.973  17.228  0.00  0.00    +0.000 A 
ATOM     16  C   UNL     1       4.706   6.342  16.939  0.00  0.00    +0.000 A 
ATOM     17  C   UNL     1       5.241   6.714  15.700  0.00  0.00    +0.000 A 
ATOM     18  C   UNL     1       5.744   5.761  14.802  0.00  0.00    +0.000 A 
BRANCH  13  19
ATOM     19  O   UNL     1       6.097   3.389  14.300  0.00  0.00    +0.000 OA
BRANCH  19  21
ATOM     20  C   UNL     1       5.247   3.207  12.082  0.00  0.00    +0.000 C 
ATOM     21  C   UNL     1       6.378   3.741  12.944  0.00  0.00    +0.000 C 
ENDBRANCH  19  21
ENDBRANCH  13  19
ENDBRANCH  11  16
ENDBRANCH  10  11
ENDBRANCH   1  10
BRANCH   9  22
ATOM     22  C   UNL     1       2.175   6.325  19.898  0.00  0.00    +0.000 C 
BRANCH  22  23
ATOM     23  C   UNL     1       1.743   5.405  21.042  0.00  0.00    +0.000 C 
BRANCH  23  24
ATOM     24  O   UNL     1       1.128   4.293  20.357  0.00  0.00    +0.000 OA
BRANCH  24  25
ATOM     25  C   UNL     1       1.871   3.424  19.621  0.00  0.00    +0.000 A 
ATOM     26  C   UNL     1       3.008   2.928  20.275  0.00  0.00    +0.000 A 
ATOM     27  C   UNL     1       3.847   2.000  19.654  0.00  0.00    +0.000 A 
ATOM     28  C   UNL     1       3.546   1.547  18.373  0.00  0.00    +0.000 A 
ATOM     29  C   UNL     1       2.406   2.027  17.723  0.00  0.00    +0.000 A 
ATOM     30  C   UNL     1       1.567   2.963  18.344  0.00  0.00    +0.000 A 
ENDBRANCH  24  25
ENDBRANCH  23  24
ENDBRANCH  22  23
ENDBRANCH   9  22
TORSDOF 9
ENDMDL
MODEL 6
REMARK VINA RESULT:      -7.4      2.432      6.823
REMARK  Name = 
REMARK  10 active torsions:
REMARK  status: ('A' for Active; 'I' for Inactive)
REMARK    1  A    between atoms: C_1  and  C_2
REMARK    2  A    between atoms: C_2  and  O_3
REMARK    3  A    between atoms: O_3  and  C_4
REMARK    4  A    between atoms: C_7  and  N_8
REMARK    5  A    between atoms: N_8  and  C_9
REMARK    6  A    between atoms: C_9  and  C_10
REMARK    7  A    between atoms: N_18  and  C_19
REMARK    8  A    between atoms: C_19  and  C_20
REMARK    9  A    between atoms: C_20  and  O_21
REMARK   10  A    between atoms: O_21  and  C_22
REMARK                            x       y       z     vdW  Elec       q    Type
REMARK                         _______ _______ _______ _____ _____    ______ ____
ROOT
ATOM      1  C   UNL     1       5.964   5.620  16.233  0.00  0.00    +0.000 A 
ATOM      2  N   UNL     1       7.028   5.813  15.486  0.00  0.00    +0.000 NA
ATOM      3  C   UNL     1       6.846   5.030  14.382  0.00  0.00    +0.000 A 
ATOM      4  C   UNL     1       7.701   4.895  13.277  0.00  0.00    +0.000 A 
ATOM      5  C   UNL     1       7.283   4.127  12.191  0.00  0.00    +0.000 A 
ATOM      6  C   UNL     1       6.032   3.508  12.215  0.00  0.00    +0.000 A 
ATOM      7  C   UNL     1       5.185   3.584  13.338  0.00  0.00    +0.000 A 
ATOM      8  C   UNL     1       5.629   4.340  14.433  0.00  0.00    +0.000 A 
ATOM      9  N   UNL     1       5.145   4.622  15.692  0.00  0.00    +0.000 N 
ENDROOT
BRANCH   1  10
ATOM     10  C   UNL     1       5.668   6.361  17.513  0.00  0.00    +0.000 C 
BRANCH  10  11
ATOM     11  N   UNL     1       4.469   5.872  18.204  0.00  0.00    +0.000 N 
ATOM     12  H   UNL     1       4.110   5.048  17.720  0.00  0.00    +0.000 HD
BRANCH  11  16
ATOM     13  C   UNL     1       1.515   8.751  19.169  0.00  0.00    +0.000 A 
ATOM     14  C   UNL     1       1.784   7.681  20.020  0.00  0.00    +0.000 A 
ATOM     15  C   UNL     1       2.755   6.731  19.682  0.00  0.00    +0.000 A 
ATOM     16  C   UNL     1       3.443   6.796  18.462  0.00  0.00    +0.000 A 
ATOM     17  C   UNL     1       3.160   7.880  17.621  0.00  0.00    +0.000 A 
ATOM     18  C   UNL     1       2.192   8.836  17.957  0.00  0.00    +0.000 A 
BRANCH  13  19
ATOM     19  O   UNL     1       0.582   9.642  19.620  0.00  0.00    +0.000 OA
BRANCH  19  21
ATOM     20  C   UNL     1      -1.160  10.256  18.115  0.00  0.00    +0.000 C 
ATOM     21  C   UNL     1       0.185  10.657  18.695  0.00  0.00    +0.000 C 
ENDBRANCH  19  21
ENDBRANCH  13  19
ENDBRANCH  11  16
ENDBRANCH  10  11
ENDBRANCH   1  10
BRANCH   9  22
ATOM     22  C   UNL     1       4.097   4.019  16.483  0.00  0.00    +0.000 C 
BRANCH  22  23
ATOM     23  C   UNL     1       4.154   2.629  17.120  0.00  0.00    +0.000 C 
BRANCH  23  24
ATOM     24  O   UNL     1       4.263   2.916  18.530  0.00  0.00    +0.000 OA
BRANCH  24  25
ATOM     25  C   UNL     1       3.164   2.921  19.333  0.00  0.00    +0.000 A 
ATOM     26  C   UNL     1       3.429   2.685  20.689  0.00  0.00    +0.000 A 
ATOM     27  C   UNL     1       2.402   2.694  21.634  0.00  0.00    +0.000 A 
ATOM     28  C   UNL     1       1.095   2.955  21.232  0.00  0.00    +0.000 A 
ATOM     29  C   UNL     1       0.828   3.206  19.883  0.00  0.00    +0.000 A 
ATOM     30  C   UNL     1       1.859   3.191  18.933  0.00  0.00    +0.000 A 
ENDBRANCH  24  25
ENDBRANCH  23  24
ENDBRANCH  22  23
ENDBRANCH   9  22
TORSDOF 9
ENDMDL
MODEL 7
REMARK VINA RESULT:      -7.4      2.710      6.264
REMARK  Name = 
REMARK  10 active torsions:
REMARK  status: ('A' for Active; 'I' for Inactive)
REMARK    1  A    between atoms: C_1  and  C_2
REMARK    2  A    between atoms: C_2  and  O_3
REMARK    3  A    between atoms: O_3  and  C_4
REMARK    4  A    between atoms: C_7  and  N_8
REMARK    5  A    between atoms: N_8  and  C_9
REMARK    6  A    between atoms: C_9  and  C_10
REMARK    7  A    between atoms: N_18  and  C_19
REMARK    8  A    between atoms: C_19  and  C_20
REMARK    9  A    between atoms: C_20  and  O_21
REMARK   10  A    between atoms: O_21  and  C_22
REMARK                            x       y       z     vdW  Elec       q    Type
REMARK                         _______ _______ _______ _____ _____    ______ ____
ROOT
ATOM      1  C   UNL     1       3.214   6.740  18.831  0.00  0.00    +0.000 A 
ATOM      2  N   UNL     1       3.150   7.704  17.939  0.00  0.00    +0.000 NA
ATOM      3  C   UNL     1       2.227   8.586  18.421  0.00  0.00    +0.000 A 
ATOM      4  C   UNL     1       1.810   9.793  17.838  0.00  0.00    +0.000 A 
ATOM      5  C   UNL     1       0.933  10.615  18.544  0.00  0.00    +0.000 A 
ATOM      6  C   UNL     1       0.485  10.233  19.810  0.00  0.00    +0.000 A 
ATOM      7  C   UNL     1       0.846   8.999  20.386  0.00  0.00    +0.000 A 
ATOM      8  C   UNL     1       1.710   8.171  19.654  0.00  0.00    +0.000 A 
ATOM      9  N   UNL     1       2.250   6.917  19.830  0.00  0.00    +0.000 N 
ENDROOT
BRANCH   1  10
ATOM     10  C   UNL     1       4.184   5.586  18.779  0.00  0.00    +0.000 C 
BRANCH  10  11
ATOM     11  N   UNL     1       5.463   5.929  18.149  0.00  0.00    +0.000 N 
ATOM     12  H   UNL     1       5.513   6.939  18.009  0.00  0.00    +0.000 HD
BRANCH  11  16
ATOM     13  C   UNL     1       6.328   3.916  14.523  0.00  0.00    +0.000 A 
ATOM     14  C   UNL     1       5.329   3.459  15.381  0.00  0.00    +0.000 A 
ATOM     15  C   UNL     1       5.063   4.129  16.581  0.00  0.00    +0.000 A 
ATOM     16  C   UNL     1       5.822   5.237  16.980  0.00  0.00    +0.000 A 
ATOM     17  C   UNL     1       6.819   5.683  16.104  0.00  0.00    +0.000 A 
ATOM     18  C   UNL     1       7.087   5.019  14.898  0.00  0.00    +0.000 A 
BRANCH  13  19
ATOM     19  O   UNL     1       6.470   3.216  13.358  0.00  0.00    +0.000 OA
BRANCH  19  21
ATOM     20  C   UNL     1       4.904   2.939  11.584  0.00  0.00    +0.000 C 
ATOM     21  C   UNL     1       5.966   3.848  12.180  0.00  0.00    +0.000 C 
ENDBRANCH  19  21
ENDBRANCH  13  19
ENDBRANCH  11  16
ENDBRANCH  10  11
ENDBRANCH   1  10
BRANCH   9  22
ATOM     22  C   UNL     1       1.917   5.837  20.732  0.00  0.00    +0.000 C 
BRANCH  22  23
ATOM     23  C   UNL     1       0.775   4.838  20.537  0.00  0.00    +0.000 C 
BRANCH  23  24
ATOM     24  O   UNL     1       1.345   3.593  20.994  0.00  0.00    +0.000 OA
BRANCH  24  25
ATOM     25  C   UNL     1       2.172   2.864  20.196  0.00  0.00    +0.000 A 
ATOM     26  C   UNL     1       1.650   2.566  18.930  0.00  0.00    +0.000 A 
ATOM     27  C   UNL     1       2.401   1.853  17.993  0.00  0.00    +0.000 A 
ATOM     28  C   UNL     1       3.693   1.444  18.310  0.00  0.00    +0.000 A 
ATOM     29  C   UNL     1       4.223   1.753  19.566  0.00  0.00    +0.000 A 
ATOM     30  C   UNL     1       3.467   2.463  20.509  0.00  0.00    +0.000 A 
ENDBRANCH  24  25
ENDBRANCH  23  24
ENDBRANCH  22  23
ENDBRANCH   9  22
TORSDOF 9
ENDMDL
MODEL 8
REMARK VINA RESULT:      -7.2      2.808      7.652
REMARK  Name = 
REMARK  10 active torsions:
REMARK  status: ('A' for Active; 'I' for Inactive)
REMARK    1  A    between atoms: C_1  and  C_2
REMARK    2  A    between atoms: C_2  and  O_3
REMARK    3  A    between atoms: O_3  and  C_4
REMARK    4  A    between atoms: C_7  and  N_8
REMARK    5  A    between atoms: N_8  and  C_9
REMARK    6  A    between atoms: C_9  and  C_10
REMARK    7  A    between atoms: N_18  and  C_19
REMARK    8  A    between atoms: C_19  and  C_20
REMARK    9  A    between atoms: C_20  and  O_21
REMARK   10  A    between atoms: O_21  and  C_22
REMARK                            x       y       z     vdW  Elec       q    Type
REMARK                         _______ _______ _______ _____ _____    ______ ____
ROOT
ATOM      1  C   UNL     1       2.796   6.542  18.125  0.00  0.00    +0.000 A 
ATOM      2  N   UNL     1       1.700   5.826  18.245  0.00  0.00    +0.000 NA
ATOM      3  C   UNL     1       2.107   4.524  18.180  0.00  0.00    +0.000 A 
ATOM      4  C   UNL     1       1.310   3.372  18.273  0.00  0.00    +0.000 A 
ATOM      5  C   UNL     1       1.930   2.124  18.296  0.00  0.00    +0.000 A 
ATOM      6  C   UNL     1       3.321   2.035  18.229  0.00  0.00    +0.000 A 
ATOM      7  C   UNL     1       4.134   3.176  18.077  0.00  0.00    +0.000 A 
ATOM      8  C   UNL     1       3.495   4.424  18.031  0.00  0.00    +0.000 A 
ATOM      9  N   UNL     1       3.901   5.728  17.855  0.00  0.00    +0.000 N 
ENDROOT
BRANCH   1  10
ATOM     10  C   UNL     1       2.856   8.044  18.245  0.00  0.00    +0.000 C 
BRANCH  10  11
ATOM     11  N   UNL     1       1.545   8.691  18.117  0.00  0.00    +0.000 N 
ATOM     12  H   UNL     1       1.529   9.261  17.270  0.00  0.00    +0.000 HD
BRANCH  11  16
ATOM     13  C   UNL     1       0.307  10.828  21.558  0.00  0.00    +0.000 A 
ATOM     14  C   UNL     1       0.529   9.453  21.605  0.00  0.00    +0.000 A 
ATOM     15  C   UNL     1       0.927   8.759  20.456  0.00  0.00    +0.000 A 
ATOM     16  C   UNL     1       1.060   9.410  19.222  0.00  0.00    +0.000 A 
ATOM     17  C   UNL     1       0.835  10.792  19.196  0.00  0.00    +0.000 A 
ATOM     18  C   UNL     1       0.441  11.493  20.344  0.00  0.00    +0.000 A 
BRANCH  13  19
ATOM     19  O   UNL     1      -0.032  11.411  22.747  0.00  0.00    +0.000 OA
BRANCH  19  21
ATOM     20  C   UNL     1      -2.347  11.905  23.016  0.00  0.00    +0.000 C 
ATOM     21  C   UNL     1      -0.982  12.476  22.676  0.00  0.00    +0.000 C 
ENDBRANCH  19  21
ENDBRANCH  13  19
ENDBRANCH  11  16
ENDBRANCH  10  11
ENDBRANCH   1  10
BRANCH   9  22
ATOM     22  C   UNL     1       5.138   6.300  17.375  0.00  0.00    +0.000 C 
BRANCH  22  23
ATOM     23  C   UNL     1       5.530   6.461  15.904  0.00  0.00    +0.000 C 
BRANCH  23  24
ATOM     24  O   UNL     1       6.420   5.348  15.676  0.00  0.00    +0.000 OA
BRANCH  24  25
ATOM     25  C   UNL     1       6.660   4.888  14.418  0.00  0.00    +0.000 A 
ATOM     26  C   UNL     1       5.807   3.857  14.000  0.00  0.00    +0.000 A 
ATOM     27  C   UNL     1       5.914   3.310  12.720  0.00  0.00    +0.000 A 
ATOM     28  C   UNL     1       6.871   3.801  11.837  0.00  0.00    +0.000 A 
ATOM     29  C   UNL     1       7.714   4.839  12.244  0.00  0.00    +0.000 A 
ATOM     30  C   UNL     1       7.611   5.384  13.531  0.00  0.00    +0.000 A 
ENDBRANCH  24  25
ENDBRANCH  23  24
ENDBRANCH  22  23
ENDBRANCH   9  22
TORSDOF 9
ENDMDL
MODEL 9
REMARK VINA RESULT:      -7.2      2.631      6.861
REMARK  Name = 
REMARK  10 active torsions:
REMARK  status: ('A' for Active; 'I' for Inactive)
REMARK    1  A    between atoms: C_1  and  C_2
REMARK    2  A    between atoms: C_2  and  O_3
REMARK    3  A    between atoms: O_3  and  C_4
REMARK    4  A    between atoms: C_7  and  N_8
REMARK    5  A    between atoms: N_8  and  C_9
REMARK    6  A    between atoms: C_9  and  C_10
REMARK    7  A    between atoms: N_18  and  C_19
REMARK    8  A    between atoms: C_19  and  C_20
REMARK    9  A    between atoms: C_20  and  O_21
REMARK   10  A    between atoms: O_21  and  C_22
REMARK                            x       y       z     vdW  Elec       q    Type
REMARK                         _______ _______ _______ _____ _____    ______ ____
ROOT
ATOM      1  C   UNL     1       5.639   5.631  16.094  0.00  0.00    +0.000 A 
ATOM      2  N   UNL     1       6.725   5.902  15.403  0.00  0.00    +0.000 NA
ATOM      3  C   UNL     1       6.694   5.059  14.330  0.00  0.00    +0.000 A 
ATOM      4  C   UNL     1       7.628   4.968  13.286  0.00  0.00    +0.000 A 
ATOM      5  C   UNL     1       7.361   4.116  12.216  0.00  0.00    +0.000 A 
ATOM      6  C   UNL     1       6.180   3.372  12.194  0.00  0.00    +0.000 A 
ATOM      7  C   UNL     1       5.259   3.406  13.260  0.00  0.00    +0.000 A 
ATOM      8  C   UNL     1       5.552   4.249  14.342  0.00  0.00    +0.000 A 
ATOM      9  N   UNL     1       4.962   4.532  15.554  0.00  0.00    +0.000 N 
ENDROOT
BRANCH   1  10
ATOM     10  C   UNL     1       5.189   6.390  17.317  0.00  0.00    +0.000 C 
BRANCH  10  11
ATOM     11  N   UNL     1       4.239   7.467  17.016  0.00  0.00    +0.000 N 
ATOM     12  H   UNL     1       4.752   8.323  16.803  0.00  0.00    +0.000 HD
BRANCH  11  16
ATOM     13  C   UNL     1       1.314   8.252  19.979  0.00  0.00    +0.000 A 
ATOM     14  C   UNL     1       2.136   7.129  20.057  0.00  0.00    +0.000 A 
ATOM     15  C   UNL     1       3.090   6.877  19.064  0.00  0.00    +0.000 A 
ATOM     16  C   UNL     1       3.211   7.709  17.942  0.00  0.00    +0.000 A 
ATOM     17  C   UNL     1       2.378   8.833  17.883  0.00  0.00    +0.000 A 
ATOM     18  C   UNL     1       1.424   9.093  18.877  0.00  0.00    +0.000 A 
BRANCH  13  19
ATOM     19  O   UNL     1       0.453   8.425  21.026  0.00  0.00    +0.000 OA
BRANCH  19  21
ATOM     20  C   UNL     1       0.136  10.575  22.002  0.00  0.00    +0.000 C 
ATOM     21  C   UNL     1       0.911   9.271  22.082  0.00  0.00    +0.000 C 
ENDBRANCH  19  21
ENDBRANCH  13  19
ENDBRANCH  11  16
ENDBRANCH  10  11
ENDBRANCH   1  10
BRANCH   9  22
ATOM     22  C   UNL     1       3.932   3.857  16.309  0.00  0.00    +0.000 C 
BRANCH  22  23
ATOM     23  C   UNL     1       4.171   2.791  17.381  0.00  0.00    +0.000 C 
BRANCH  23  24
ATOM     24  O   UNL     1       4.063   3.532  18.614  0.00  0.00    +0.000 OA
BRANCH  24  25
ATOM     25  C   UNL     1       3.047   3.297  19.488  0.00  0.00    +0.000 A 
ATOM     26  C   UNL     1       3.446   2.741  20.711  0.00  0.00    +0.000 A 
ATOM     27  C   UNL     1       2.514   2.477  21.718  0.00  0.00    +0.000 A 
ATOM     28  C   UNL     1       1.172   2.783  21.514  0.00  0.00    +0.000 A 
ATOM     29  C   UNL     1       0.772   3.352  20.302  0.00  0.00    +0.000 A 
ATOM     30  C   UNL     1       1.706   3.611  19.289  0.00  0.00    +0.000 A 
ENDBRANCH  24  25
ENDBRANCH  23  24
ENDBRANCH  22  23
ENDBRANCH   9  22
TORSDOF 9
ENDMDL
