MODEL 1
REMARK VINA RESULT:      -9.0      0.000      0.000
REMARK  Name = 
REMARK  7 active torsions:
REMARK  status: ('A' for Active; 'I' for Inactive)
REMARK    1  A    between atoms: C_1  and  C_2
REMARK    2  A    between atoms: C_3  and  C_4
REMARK    3  A    between atoms: C_4  and  C_5
REMARK    4  A    between atoms: C_5  and  O_7
REMARK    5  A    between atoms: C_16  and  C_17
REMARK    6  A    between atoms: C_20  and  S_21
REMARK    7  A    between atoms: S_21  and  C_22
REMARK                            x       y       z     vdW  Elec       q    Type
REMARK                         _______ _______ _______ _____ _____    ______ ____
ROOT
ATOM      1  C   UNL     1       5.375   7.021  15.975  0.00  0.00    +0.000 C 
ATOM      2  C   UNL     1       4.525   6.025  16.693  0.00  0.00    +0.000 C 
ATOM      3  C   UNL     1       4.639   4.675  16.664  0.00  0.00    +0.000 C 
ATOM      4  C   UNL     1       3.629   4.126  17.592  0.00  0.00    +0.000 A 
ATOM      5  C   UNL     1       3.387   2.815  17.980  0.00  0.00    +0.000 A 
ATOM      6  C   UNL     1       2.342   2.572  18.872  0.00  0.00    +0.000 A 
ATOM      7  F   UNL     1       2.103   1.316  19.273  0.00  0.00    +0.000 F 
ATOM      8  C   UNL     1       1.538   3.603  19.362  0.00  0.00    +0.000 A 
ATOM      9  C   UNL     1       1.795   4.923  18.994  0.00  0.00    +0.000 A 
ATOM     10  C   UNL     1       2.857   5.176  18.136  0.00  0.00    +0.000 A 
ATOM     11  C   UNL     1       3.444   6.416  17.614  0.00  0.00    +0.000 C 
ATOM     12  C   UNL     1       3.153   7.689  17.938  0.00  0.00    +0.000 C 
ENDROOT
BRANCH  12  13
ATOM     13  C   UNL     1       2.179   8.173  18.921  0.00  0.00    +0.000 A 
ATOM     14  C   UNL     1       2.127   7.600  20.196  0.00  0.00    +0.000 A 
ATOM     15  C   UNL     1       1.273   8.124  21.172  0.00  0.00    +0.000 A 
ATOM     16  C   UNL     1       0.465   9.228  20.882  0.00  0.00    +0.000 A 
ATOM     17  C   UNL     1       0.475   9.763  19.589  0.00  0.00    +0.000 A 
ATOM     18  C   UNL     1       1.337   9.245  18.616  0.00  0.00    +0.000 A 
BRANCH  16  19
ATOM     19  S   UNL     1      -0.596   9.960  22.155  0.00  0.00    +0.000 S 
ATOM     20  C   UNL     1      -0.497  11.681  21.589  0.00  0.00    +0.000 C 
ATOM     21  O   UNL     1       0.184   9.873  23.515  0.00  0.00    +0.000 OA
ENDBRANCH  16  19
ENDBRANCH  12  13
BRANCH   3  22
ATOM     22  C   UNL     1       5.636   3.845  15.913  0.00  0.00    +0.000 C 
BRANCH  22  23
ATOM     23  C   UNL     1       7.075   4.354  15.919  0.00  0.00    +0.000 C 
ATOM     24  O   UNL     1       7.794   4.297  16.909  0.00  0.00    +0.000 OA
BRANCH  23  25
ATOM     25  O   UNL     1       7.534   4.806  14.735  0.00  0.00    +0.000 OA
ATOM     26  H   UNL     1       7.401   4.182  13.992  0.00  0.00    +0.000 HD
ENDBRANCH  23  25
ENDBRANCH  22  23
ENDBRANCH   3  22
TORSDOF 5
ENDMDL
MODEL 2
REMARK VINA RESULT:      -8.9      1.134      1.337
REMARK  Name = 
REMARK  7 active torsions:
REMARK  status: ('A' for Active; 'I' for Inactive)
REMARK    1  A    between atoms: C_1  and  C_2
REMARK    2  A    between atoms: C_3  and  C_4
REMARK    3  A    between atoms: C_4  and  C_5
REMARK    4  A    between atoms: C_5  and  O_7
REMARK    5  A    between atoms: C_16  and  C_17
REMARK    6  A    between atoms: C_20  and  S_21
REMARK    7  A    between atoms: S_21  and  C_22
REMARK                            x       y       z     vdW  Elec       q    Type
REMARK                         _______ _______ _______ _____ _____    ______ ____
ROOT
ATOM      1  C   UNL     1       4.831   7.007  16.160  0.00  0.00    +0.000 C 
ATOM      2  C   UNL     1       4.197   6.180  17.230  0.00  0.00    +0.000 C 
ATOM      3  C   UNL     1       4.498   4.903  17.568  0.00  0.00    +0.000 C 
ATOM      4  C   UNL     1       3.661   4.545  18.732  0.00  0.00    +0.000 A 
ATOM      5  C   UNL     1       3.641   3.388  19.500  0.00  0.00    +0.000 A 
ATOM      6  C   UNL     1       2.724   3.306  20.547  0.00  0.00    +0.000 A 
ATOM      7  F   UNL     1       2.701   2.206  21.312  0.00  0.00    +0.000 F 
ATOM      8  C   UNL     1       1.828   4.340  20.825  0.00  0.00    +0.000 A 
ATOM      9  C   UNL     1       1.863   5.514  20.071  0.00  0.00    +0.000 A 
ATOM     10  C   UNL     1       2.799   5.617  19.051  0.00  0.00    +0.000 A 
ATOM     11  C   UNL     1       3.156   6.704  18.132  0.00  0.00    +0.000 C 
ATOM     12  C   UNL     1       2.718   7.976  18.119  0.00  0.00    +0.000 C 
ENDROOT
BRANCH  12  13
ATOM     13  C   UNL     1       1.776   8.618  19.040  0.00  0.00    +0.000 A 
ATOM     14  C   UNL     1       1.825   8.328  20.407  0.00  0.00    +0.000 A 
ATOM     15  C   UNL     1       0.999   9.013  21.305  0.00  0.00    +0.000 A 
ATOM     16  C   UNL     1       0.119   9.996  20.843  0.00  0.00    +0.000 A 
ATOM     17  C   UNL     1       0.029  10.244  19.469  0.00  0.00    +0.000 A 
ATOM     18  C   UNL     1       0.862   9.566  18.572  0.00  0.00    +0.000 A 
BRANCH  16  19
ATOM     19  S   UNL     1      -0.908  10.939  22.000  0.00  0.00    +0.000 S 
ATOM     20  C   UNL     1      -0.264  12.588  21.604  0.00  0.00    +0.000 C 
ATOM     21  O   UNL     1      -0.417  10.585  23.450  0.00  0.00    +0.000 OA
ENDBRANCH  16  19
ENDBRANCH  12  13
BRANCH   3  22
ATOM     22  C   UNL     1       5.532   4.003  16.962  0.00  0.00    +0.000 C 
BRANCH  22  23
ATOM     23  C   UNL     1       6.987   4.362  17.250  0.00  0.00    +0.000 C 
ATOM     24  O   UNL     1       7.833   4.457  16.369  0.00  0.00    +0.000 OA
BRANCH  23  25
ATOM     25  O   UNL     1       7.270   4.646  18.538  0.00  0.00    +0.000 OA
ATOM     26  H   UNL     1       8.181   4.974  18.682  0.00  0.00    +0.000 HD
ENDBRANCH  23  25
ENDBRANCH  22  23
ENDBRANCH   3  22
TORSDOF 5
ENDMDL
MODEL 3
REMARK VINA RESULT:      -8.4      1.149      1.648
REMARK  Name = 
REMARK  7 active torsions:
REMARK  status: ('A' for Active; 'I' for Inactive)
REMARK    1  A    between atoms: C_1  and  C_2
REMARK    2  A    between atoms: C_3  and  C_4
REMARK    3  A    between atoms: C_4  and  C_5
REMARK    4  A    between atoms: C_5  and  O_7
REMARK    5  A    between atoms: C_16  and  C_17
REMARK    6  A    between atoms: C_20  and  S_21
REMARK    7  A    between atoms: S_21  and  C_22
REMARK                            x       y       z     vdW  Elec       q    Type
REMARK                         _______ _______ _______ _____ _____    ______ ____
ROOT
ATOM      1  C   UNL     1       4.809   6.943  15.974  0.00  0.00    +0.000 C 
ATOM      2  C   UNL     1       4.185   6.175  17.092  0.00  0.00    +0.000 C 
ATOM      3  C   UNL     1       4.454   4.901  17.464  0.00  0.00    +0.000 C 
ATOM      4  C   UNL     1       3.647   4.611  18.667  0.00  0.00    +0.000 A 
ATOM      5  C   UNL     1       3.614   3.482  19.475  0.00  0.00    +0.000 A 
ATOM      6  C   UNL     1       2.732   3.468  20.555  0.00  0.00    +0.000 A 
ATOM      7  F   UNL     1       2.699   2.395  21.358  0.00  0.00    +0.000 F 
ATOM      8  C   UNL     1       1.882   4.541  20.826  0.00  0.00    +0.000 A 
ATOM      9  C   UNL     1       1.931   5.687  20.032  0.00  0.00    +0.000 A 
ATOM     10  C   UNL     1       2.833   5.723  18.977  0.00  0.00    +0.000 A 
ATOM     11  C   UNL     1       3.195   6.766  18.009  0.00  0.00    +0.000 C 
ATOM     12  C   UNL     1       2.800   8.051  17.967  0.00  0.00    +0.000 C 
ENDROOT
BRANCH  12  13
ATOM     13  C   UNL     1       1.913   8.756  18.897  0.00  0.00    +0.000 A 
ATOM     14  C   UNL     1       0.944   9.637  18.406  0.00  0.00    +0.000 A 
ATOM     15  C   UNL     1       0.026  10.235  19.277  0.00  0.00    +0.000 A 
ATOM     16  C   UNL     1       0.069   9.954  20.647  0.00  0.00    +0.000 A 
ATOM     17  C   UNL     1       1.075   9.118  21.143  0.00  0.00    +0.000 A 
ATOM     18  C   UNL     1       1.987   8.513  20.270  0.00  0.00    +0.000 A 
BRANCH  16  19
ATOM     19  S   UNL     1      -1.154  10.666  21.777  0.00  0.00    +0.000 S 
ATOM     20  C   UNL     1      -1.376  12.252  20.925  0.00  0.00    +0.000 C 
ATOM     21  O   UNL     1      -0.414  10.966  23.130  0.00  0.00    +0.000 OA
ENDBRANCH  16  19
ENDBRANCH  12  13
BRANCH   3  22
ATOM     22  C   UNL     1       5.435   3.944  16.855  0.00  0.00    +0.000 C 
BRANCH  22  23
ATOM     23  C   UNL     1       6.910   4.312  17.001  0.00  0.00    +0.000 C 
ATOM     24  O   UNL     1       7.590   4.709  16.063  0.00  0.00    +0.000 OA
BRANCH  23  25
ATOM     25  O   UNL     1       7.402   4.243  18.254  0.00  0.00    +0.000 OA
ATOM     26  H   UNL     1       8.086   4.917  18.450  0.00  0.00    +0.000 HD
ENDBRANCH  23  25
ENDBRANCH  22  23
ENDBRANCH   3  22
TORSDOF 5
ENDMDL
MODEL 4
REMARK VINA RESULT:      -8.3      1.748      2.062
REMARK  Name = 
REMARK  7 active torsions:
REMARK  status: ('A' for Active; 'I' for Inactive)
REMARK    1  A    between atoms: C_1  and  C_2
REMARK    2  A    between atoms: C_3  and  C_4
REMARK    3  A    between atoms: C_4  and  C_5
REMARK    4  A    between atoms: C_5  and  O_7
REMARK    5  A    between atoms: C_16  and  C_17
REMARK    6  A    between atoms: C_20  and  S_21
REMARK    7  A    between atoms: S_21  and  C_22
REMARK                            x       y       z     vdW  Elec       q    Type
REMARK                         _______ _______ _______ _____ _____    ______ ____
ROOT
ATOM      1  C   UNL     1       4.888   6.978  16.104  0.00  0.00    +0.000 C 
ATOM      2  C   UNL     1       4.156   6.355  17.247  0.00  0.00    +0.000 C 
ATOM      3  C   UNL     1       4.422   5.169  17.845  0.00  0.00    +0.000 C 
ATOM      4  C   UNL     1       3.480   5.021  18.973  0.00  0.00    +0.000 A 
ATOM      5  C   UNL     1       3.387   4.028  19.939  0.00  0.00    +0.000 A 
ATOM      6  C   UNL     1       2.376   4.129  20.895  0.00  0.00    +0.000 A 
ATOM      7  F   UNL     1       2.281   3.190  21.847  0.00  0.00    +0.000 F 
ATOM      8  C   UNL     1       1.460   5.182  20.890  0.00  0.00    +0.000 A 
ATOM      9  C   UNL     1       1.567   6.195  19.937  0.00  0.00    +0.000 A 
ATOM     10  C   UNL     1       2.593   6.120  19.005  0.00  0.00    +0.000 A 
ATOM     11  C   UNL     1       3.037   7.023  17.935  0.00  0.00    +0.000 C 
ATOM     12  C   UNL     1       2.604   8.263  17.644  0.00  0.00    +0.000 C 
ENDROOT
BRANCH  12  13
ATOM     13  C   UNL     1       1.581   9.050  18.338  0.00  0.00    +0.000 A 
ATOM     14  C   UNL     1       1.814   9.509  19.639  0.00  0.00    +0.000 A 
ATOM     15  C   UNL     1       0.888  10.348  20.269  0.00  0.00    +0.000 A 
ATOM     16  C   UNL     1      -0.279  10.736  19.602  0.00  0.00    +0.000 A 
ATOM     17  C   UNL     1      -0.537  10.229  18.323  0.00  0.00    +0.000 A 
ATOM     18  C   UNL     1       0.394   9.399  17.689  0.00  0.00    +0.000 A 
BRANCH  16  19
ATOM     19  S   UNL     1      -1.454  11.875  20.377  0.00  0.00    +0.000 S 
ATOM     20  C   UNL     1      -0.535  13.411  20.079  0.00  0.00    +0.000 C 
ATOM     21  O   UNL     1      -1.412  11.603  21.924  0.00  0.00    +0.000 OA
ENDBRANCH  16  19
ENDBRANCH  12  13
BRANCH   3  22
ATOM     22  C   UNL     1       5.506   4.188  17.515  0.00  0.00    +0.000 C 
BRANCH  22  23
ATOM     23  C   UNL     1       6.921   4.589  17.924  0.00  0.00    +0.000 C 
ATOM     24  O   UNL     1       7.857   4.618  17.133  0.00  0.00    +0.000 OA
BRANCH  23  25
ATOM     25  O   UNL     1       7.064   4.986  19.204  0.00  0.00    +0.000 OA
ATOM     26  H   UNL     1       7.169   5.954  19.311  0.00  0.00    +0.000 HD
ENDBRANCH  23  25
ENDBRANCH  22  23
ENDBRANCH   3  22
TORSDOF 5
ENDMDL
MODEL 5
REMARK VINA RESULT:      -8.2      2.148      2.420
REMARK  Name = 
REMARK  7 active torsions:
REMARK  status: ('A' for Active; 'I' for Inactive)
REMARK    1  A    between atoms: C_1  and  C_2
REMARK    2  A    between atoms: C_3  and  C_4
REMARK    3  A    between atoms: C_4  and  C_5
REMARK    4  A    between atoms: C_5  and  O_7
REMARK    5  A    between atoms: C_16  and  C_17
REMARK    6  A    between atoms: C_20  and  S_21
REMARK    7  A    between atoms: S_21  and  C_22
REMARK                            x       y       z     vdW  Elec       q    Type
REMARK                         _______ _______ _______ _____ _____    ______ ____
ROOT
ATOM      1  C   UNL     1       5.023   6.924  16.090  0.00  0.00    +0.000 C 
ATOM      2  C   UNL     1       4.268   6.413  17.272  0.00  0.00    +0.000 C 
ATOM      3  C   UNL     1       4.507   5.279  17.972  0.00  0.00    +0.000 C 
ATOM      4  C   UNL     1       3.549   5.242  19.096  0.00  0.00    +0.000 A 
ATOM      5  C   UNL     1       3.428   4.337  20.141  0.00  0.00    +0.000 A 
ATOM      6  C   UNL     1       2.407   4.533  21.071  0.00  0.00    +0.000 A 
ATOM      7  F   UNL     1       2.285   3.681  22.098  0.00  0.00    +0.000 F 
ATOM      8  C   UNL     1       1.508   5.596  20.964  0.00  0.00    +0.000 A 
ATOM      9  C   UNL     1       1.643   6.521  19.929  0.00  0.00    +0.000 A 
ATOM     10  C   UNL     1       2.680   6.352  19.021  0.00  0.00    +0.000 A 
ATOM     11  C   UNL     1       3.151   7.153  17.884  0.00  0.00    +0.000 C 
ATOM     12  C   UNL     1       2.741   8.369  17.483  0.00  0.00    +0.000 C 
ENDROOT
BRANCH  12  13
ATOM     13  C   UNL     1       1.722   9.229  18.092  0.00  0.00    +0.000 A 
ATOM     14  C   UNL     1       2.081  10.139  19.091  0.00  0.00    +0.000 A 
ATOM     15  C   UNL     1       1.135  11.034  19.605  0.00  0.00    +0.000 A 
ATOM     16  C   UNL     1      -0.177  11.027  19.121  0.00  0.00    +0.000 A 
ATOM     17  C   UNL     1      -0.548  10.077  18.163  0.00  0.00    +0.000 A 
ATOM     18  C   UNL     1       0.400   9.189  17.643  0.00  0.00    +0.000 A 
BRANCH  16  19
ATOM     19  S   UNL     1      -1.394  12.224  19.726  0.00  0.00    +0.000 S 
ATOM     20  C   UNL     1      -1.325  11.770  21.482  0.00  0.00    +0.000 C 
ATOM     21  O   UNL     1      -2.798  11.771  19.185  0.00  0.00    +0.000 OA
ENDBRANCH  16  19
ENDBRANCH  12  13
BRANCH   3  22
ATOM     22  C   UNL     1       5.580   4.257  17.743  0.00  0.00    +0.000 C 
BRANCH  22  23
ATOM     23  C   UNL     1       6.999   4.677  18.119  0.00  0.00    +0.000 C 
ATOM     24  O   UNL     1       7.282   5.154  19.211  0.00  0.00    +0.000 OA
BRANCH  23  25
ATOM     25  O   UNL     1       7.944   4.418  17.192  0.00  0.00    +0.000 OA
ATOM     26  H   UNL     1       8.861   4.513  17.523  0.00  0.00    +0.000 HD
ENDBRANCH  23  25
ENDBRANCH  22  23
ENDBRANCH   3  22
TORSDOF 5
ENDMDL
MODEL 6
REMARK VINA RESULT:      -8.2      1.203      1.299
REMARK  Name = 
REMARK  7 active torsions:
REMARK  status: ('A' for Active; 'I' for Inactive)
REMARK    1  A    between atoms: C_1  and  C_2
REMARK    2  A    between atoms: C_3  and  C_4
REMARK    3  A    between atoms: C_4  and  C_5
REMARK    4  A    between atoms: C_5  and  O_7
REMARK    5  A    between atoms: C_16  and  C_17
REMARK    6  A    between atoms: C_20  and  S_21
REMARK    7  A    between atoms: S_21  and  C_22
REMARK                            x       y       z     vdW  Elec       q    Type
REMARK                         _______ _______ _______ _____ _____    ______ ____
ROOT
ATOM      1  C   UNL     1       6.377   7.293  16.680  0.00  0.00    +0.000 C 
ATOM      2  C   UNL     1       5.262   6.332  16.937  0.00  0.00    +0.000 C 
ATOM      3  C   UNL     1       5.282   4.988  16.771  0.00  0.00    +0.000 C 
ATOM      4  C   UNL     1       3.977   4.468  17.229  0.00  0.00    +0.000 A 
ATOM      5  C   UNL     1       3.522   3.161  17.337  0.00  0.00    +0.000 A 
ATOM      6  C   UNL     1       2.219   2.950  17.790  0.00  0.00    +0.000 A 
ATOM      7  F   UNL     1       1.767   1.695  17.920  0.00  0.00    +0.000 F 
ATOM      8  C   UNL     1       1.372   4.010  18.115  0.00  0.00    +0.000 A 
ATOM      9  C   UNL     1       1.835   5.323  18.032  0.00  0.00    +0.000 A 
ATOM     10  C   UNL     1       3.143   5.539  17.617  0.00  0.00    +0.000 A 
ATOM     11  C   UNL     1       3.962   6.750  17.488  0.00  0.00    +0.000 C 
ATOM     12  C   UNL     1       3.669   8.009  17.861  0.00  0.00    +0.000 C 
ENDROOT
BRANCH  12  13
ATOM     13  C   UNL     1       2.454   8.500  18.518  0.00  0.00    +0.000 A 
ATOM     14  C   UNL     1       2.144   8.084  19.817  0.00  0.00    +0.000 A 
ATOM     15  C   UNL     1       1.043   8.627  20.488  0.00  0.00    +0.000 A 
ATOM     16  C   UNL     1       0.245   9.593  19.867  0.00  0.00    +0.000 A 
ATOM     17  C   UNL     1       0.523   9.965  18.547  0.00  0.00    +0.000 A 
ATOM     18  C   UNL     1       1.629   9.429  17.879  0.00  0.00    +0.000 A 
BRANCH  16  19
ATOM     19  S   UNL     1      -1.143  10.354  20.748  0.00  0.00    +0.000 S 
ATOM     20  C   UNL     1      -1.672  11.485  19.431  0.00  0.00    +0.000 C 
ATOM     21  O   UNL     1      -0.536  11.234  21.898  0.00  0.00    +0.000 OA
ENDBRANCH  16  19
ENDBRANCH  12  13
BRANCH   3  22
ATOM     22  C   UNL     1       6.413   4.129  16.292  0.00  0.00    +0.000 C 
BRANCH  22  23
ATOM     23  C   UNL     1       6.815   4.302  14.830  0.00  0.00    +0.000 C 
ATOM     24  O   UNL     1       7.612   5.155  14.458  0.00  0.00    +0.000 OA
BRANCH  23  25
ATOM     25  O   UNL     1       6.292   3.400  13.975  0.00  0.00    +0.000 OA
ATOM     26  H   UNL     1       5.315   3.427  13.918  0.00  0.00    +0.000 HD
ENDBRANCH  23  25
ENDBRANCH  22  23
ENDBRANCH   3  22
TORSDOF 5
ENDMDL
MODEL 7
REMARK VINA RESULT:      -8.0      1.894      2.353
REMARK  Name = 
REMARK  7 active torsions:
REMARK  status: ('A' for Active; 'I' for Inactive)
REMARK    1  A    between atoms: C_1  and  C_2
REMARK    2  A    between atoms: C_3  and  C_4
REMARK    3  A    between atoms: C_4  and  C_5
REMARK    4  A    between atoms: C_5  and  O_7
REMARK    5  A    between atoms: C_16  and  C_17
REMARK    6  A    between atoms: C_20  and  S_21
REMARK    7  A    between atoms: S_21  and  C_22
REMARK                            x       y       z     vdW  Elec       q    Type
REMARK                         _______ _______ _______ _____ _____    ______ ____
ROOT
ATOM      1  C   UNL     1       5.007   6.894  16.111  0.00  0.00    +0.000 C 
ATOM      2  C   UNL     1       4.242   6.389  17.290  0.00  0.00    +0.000 C 
ATOM      3  C   UNL     1       4.462   5.248  17.986  0.00  0.00    +0.000 C 
ATOM      4  C   UNL     1       3.502   5.222  19.108  0.00  0.00    +0.000 A 
ATOM      5  C   UNL     1       3.365   4.314  20.149  0.00  0.00    +0.000 A 
ATOM      6  C   UNL     1       2.346   4.523  21.079  0.00  0.00    +0.000 A 
ATOM      7  F   UNL     1       2.209   3.669  22.102  0.00  0.00    +0.000 F 
ATOM      8  C   UNL     1       1.464   5.601  20.975  0.00  0.00    +0.000 A 
ATOM      9  C   UNL     1       1.615   6.528  19.944  0.00  0.00    +0.000 A 
ATOM     10  C   UNL     1       2.650   6.346  19.037  0.00  0.00    +0.000 A 
ATOM     11  C   UNL     1       3.136   7.144  17.904  0.00  0.00    +0.000 C 
ATOM     12  C   UNL     1       2.746   8.369  17.507  0.00  0.00    +0.000 C 
ENDROOT
BRANCH  12  13
ATOM     13  C   UNL     1       1.740   9.242  18.119  0.00  0.00    +0.000 A 
ATOM     14  C   UNL     1       0.427   9.241  17.638  0.00  0.00    +0.000 A 
ATOM     15  C   UNL     1      -0.562   9.993  18.281  0.00  0.00    +0.000 A 
ATOM     16  C   UNL     1      -0.246  10.750  19.414  0.00  0.00    +0.000 A 
ATOM     17  C   UNL     1       1.080  10.796  19.859  0.00  0.00    +0.000 A 
ATOM     18  C   UNL     1       2.067  10.036  19.221  0.00  0.00    +0.000 A 
BRANCH  16  19
ATOM     19  S   UNL     1      -1.529  11.675  20.298  0.00  0.00    +0.000 S 
ATOM     20  C   UNL     1      -1.110  13.325  19.672  0.00  0.00    +0.000 C 
ATOM     21  O   UNL     1      -1.152  11.648  21.822  0.00  0.00    +0.000 OA
ENDBRANCH  16  19
ENDBRANCH  12  13
BRANCH   3  22
ATOM     22  C   UNL     1       5.519   4.210  17.754  0.00  0.00    +0.000 C 
BRANCH  22  23
ATOM     23  C   UNL     1       6.950   4.622  18.091  0.00  0.00    +0.000 C 
ATOM     24  O   UNL     1       7.867   4.554  17.282  0.00  0.00    +0.000 OA
BRANCH  23  25
ATOM     25  O   UNL     1       7.128   5.142  19.322  0.00  0.00    +0.000 OA
ATOM     26  H   UNL     1       7.940   5.681  19.412  0.00  0.00    +0.000 HD
ENDBRANCH  23  25
ENDBRANCH  22  23
ENDBRANCH   3  22
TORSDOF 5
ENDMDL
MODEL 8
REMARK VINA RESULT:      -8.0      0.270      1.187
REMARK  Name = 
REMARK  7 active torsions:
REMARK  status: ('A' for Active; 'I' for Inactive)
REMARK    1  A    between atoms: C_1  and  C_2
REMARK    2  A    between atoms: C_3  and  C_4
REMARK    3  A    between atoms: C_4  and  C_5
REMARK    4  A    between atoms: C_5  and  O_7
REMARK    5  A    between atoms: C_16  and  C_17
REMARK    6  A    between atoms: C_20  and  S_21
REMARK    7  A    between atoms: S_21  and  C_22
REMARK                            x       y       z     vdW  Elec       q    Type
REMARK                         _______ _______ _______ _____ _____    ______ ____
ROOT
ATOM      1  C   UNL     1       5.288   6.947  15.807  0.00  0.00    +0.000 C 
ATOM      2  C   UNL     1       4.478   6.010  16.642  0.00  0.00    +0.000 C 
ATOM      3  C   UNL     1       4.573   4.659  16.687  0.00  0.00    +0.000 C 
ATOM      4  C   UNL     1       3.624   4.184  17.715  0.00  0.00    +0.000 A 
ATOM      5  C   UNL     1       3.393   2.902  18.196  0.00  0.00    +0.000 A 
ATOM      6  C   UNL     1       2.410   2.731  19.172  0.00  0.00    +0.000 A 
ATOM      7  F   UNL     1       2.185   1.505  19.664  0.00  0.00    +0.000 F 
ATOM      8  C   UNL     1       1.656   3.802  19.654  0.00  0.00    +0.000 A 
ATOM      9  C   UNL     1       1.904   5.094  19.191  0.00  0.00    +0.000 A 
ATOM     10  C   UNL     1       2.905   5.277  18.246  0.00  0.00    +0.000 A 
ATOM     11  C   UNL     1       3.470   6.474  17.610  0.00  0.00    +0.000 C 
ATOM     12  C   UNL     1       3.219   7.768  17.877  0.00  0.00    +0.000 C 
ENDROOT
BRANCH  12  13
ATOM     13  C   UNL     1       2.323   8.326  18.894  0.00  0.00    +0.000 A 
ATOM     14  C   UNL     1       1.443   9.359  18.560  0.00  0.00    +0.000 A 
ATOM     15  C   UNL     1       0.513   9.826  19.496  0.00  0.00    +0.000 A 
ATOM     16  C   UNL     1       0.456   9.261  20.774  0.00  0.00    +0.000 A 
ATOM     17  C   UNL     1       1.376   8.268  21.125  0.00  0.00    +0.000 A 
ATOM     18  C   UNL     1       2.299   7.794  20.186  0.00  0.00    +0.000 A 
BRANCH  16  19
ATOM     19  S   UNL     1      -0.786   9.808  21.975  0.00  0.00    +0.000 S 
ATOM     20  C   UNL     1      -1.123  11.436  21.248  0.00  0.00    +0.000 C 
ATOM     21  O   UNL     1      -0.040  10.053  23.335  0.00  0.00    +0.000 OA
ENDBRANCH  16  19
ENDBRANCH  12  13
BRANCH   3  22
ATOM     22  C   UNL     1       5.503   3.769  15.920  0.00  0.00    +0.000 C 
BRANCH  22  23
ATOM     23  C   UNL     1       6.959   4.222  15.848  0.00  0.00    +0.000 C 
ATOM     24  O   UNL     1       7.446   4.732  14.846  0.00  0.00    +0.000 OA
BRANCH  23  25
ATOM     25  O   UNL     1       7.662   4.093  16.991  0.00  0.00    +0.000 OA
ATOM     26  H   UNL     1       7.800   4.936  17.469  0.00  0.00    +0.000 HD
ENDBRANCH  23  25
ENDBRANCH  22  23
ENDBRANCH   3  22
TORSDOF 5
ENDMDL
MODEL 9
REMARK VINA RESULT:      -8.0      2.719      3.986
REMARK  Name = 
REMARK  7 active torsions:
REMARK  status: ('A' for Active; 'I' for Inactive)
REMARK    1  A    between atoms: C_1  and  C_2
REMARK    2  A    between atoms: C_3  and  C_4
REMARK    3  A    between atoms: C_4  and  C_5
REMARK    4  A    between atoms: C_5  and  O_7
REMARK    5  A    between atoms: C_16  and  C_17
REMARK    6  A    between atoms: C_20  and  S_21
REMARK    7  A    between atoms: S_21  and  C_22
REMARK                            x       y       z     vdW  Elec       q    Type
REMARK                         _______ _______ _______ _____ _____    ______ ____
ROOT
ATOM      1  C   UNL     1       1.320   3.447  20.951  0.00  0.00    +0.000 C 
ATOM      2  C   UNL     1       2.162   4.164  19.947  0.00  0.00    +0.000 C 
ATOM      3  C   UNL     1       2.938   3.614  18.983  0.00  0.00    +0.000 C 
ATOM      4  C   UNL     1       3.512   4.721  18.191  0.00  0.00    +0.000 A 
ATOM      5  C   UNL     1       4.307   4.692  17.054  0.00  0.00    +0.000 A 
ATOM      6  C   UNL     1       4.730   5.905  16.511  0.00  0.00    +0.000 A 
ATOM      7  F   UNL     1       5.482   5.899  15.402  0.00  0.00    +0.000 F 
ATOM      8  C   UNL     1       4.388   7.129  17.089  0.00  0.00    +0.000 A 
ATOM      9  C   UNL     1       3.568   7.162  18.217  0.00  0.00    +0.000 A 
ATOM     10  C   UNL     1       3.114   5.960  18.741  0.00  0.00    +0.000 A 
ATOM     11  C   UNL     1       2.201   5.633  19.844  0.00  0.00    +0.000 C 
ATOM     12  C   UNL     1       1.454   6.463  20.593  0.00  0.00    +0.000 C 
ENDROOT
BRANCH  12  13
ATOM     13  C   UNL     1       1.339   7.920  20.491  0.00  0.00    +0.000 A 
ATOM     14  C   UNL     1       1.261   8.530  19.234  0.00  0.00    +0.000 A 
ATOM     15  C   UNL     1       1.048   9.909  19.129  0.00  0.00    +0.000 A 
ATOM     16  C   UNL     1       0.909  10.690  20.281  0.00  0.00    +0.000 A 
ATOM     17  C   UNL     1       1.046  10.088  21.537  0.00  0.00    +0.000 A 
ATOM     18  C   UNL     1       1.249   8.707  21.642  0.00  0.00    +0.000 A 
BRANCH  16  19
ATOM     19  S   UNL     1       0.565  12.464  20.162  0.00  0.00    +0.000 S 
ATOM     20  C   UNL     1      -0.161  12.680  21.811  0.00  0.00    +0.000 C 
ATOM     21  O   UNL     1      -0.594  12.643  19.118  0.00  0.00    +0.000 OA
ENDBRANCH  16  19
ENDBRANCH  12  13
BRANCH   3  22
ATOM     22  C   UNL     1       3.149   2.161  18.680  0.00  0.00    +0.000 C 
BRANCH  22  23
ATOM     23  C   UNL     1       4.349   1.501  19.355  0.00  0.00    +0.000 C 
ATOM     24  O   UNL     1       4.893   1.972  20.347  0.00  0.00    +0.000 OA
BRANCH  23  25
ATOM     25  O   UNL     1       4.729   0.318  18.832  0.00  0.00    +0.000 OA
ATOM     26  H   UNL     1       4.914   0.349  17.871  0.00  0.00    +0.000 HD
ENDBRANCH  23  25
ENDBRANCH  22  23
ENDBRANCH   3  22
TORSDOF 5
ENDMDL
