MODEL 1
REMARK VINA RESULT:      -5.9      0.000      0.000
REMARK  Name = 
REMARK  2 active torsions:
REMARK  status: ('A' for Active; 'I' for Inactive)
REMARK    1  A    between atoms: C_2  and  C_4
REMARK    2  A    between atoms: C_10  and  N_11
REMARK                            x       y       z     vdW  Elec       q    Type
REMARK                         _______ _______ _______ _____ _____    ______ ____
ROOT
ATOM      1  C   UNL     1       7.154   5.450  17.638  0.00  0.00    +0.000 A 
ATOM      2  N   UNL     1       7.653   6.011  16.513  0.00  0.00    +0.000 NA
ATOM      3  N   UNL     1       7.174   5.575  15.318  0.00  0.00    +0.000 NA
ATOM      4  C   UNL     1       6.230   4.608  15.287  0.00  0.00    +0.000 A 
ATOM      5  N   UNL     1       5.769   4.160  14.063  0.00  0.00    +0.000 N 
ATOM      6  N   UNL     1       5.734   4.010  16.378  0.00  0.00    +0.000 NA
ATOM      7  C   UNL     1       6.195   4.447  17.568  0.00  0.00    +0.000 A 
ATOM      8  H   UNL     1       6.449   4.332  13.335  0.00  0.00    +0.000 HD
ATOM      9  H   UNL     1       5.416   3.218  14.151  0.00  0.00    +0.000 HD
ENDROOT
BRANCH   1  11
ATOM     10  N   UNL     1       8.343   7.181  18.858  0.00  0.00    +0.000 N 
ATOM     11  C   UNL     1       7.650   5.999  18.926  0.00  0.00    +0.000 C 
ATOM     12  O   UNL     1       7.443   5.449  20.002  0.00  0.00    +0.000 OA
ATOM     13  H   UNL     1       8.676   7.602  19.715  0.00  0.00    +0.000 HD
ATOM     14  H   UNL     1       8.484   7.664  17.978  0.00  0.00    +0.000 HD
ENDBRANCH   1  11
BRANCH   7  15
ATOM     15  N   UNL     1       5.731   3.735  18.675  0.00  0.00    +0.000 N 
ATOM     16  H   UNL     1       5.021   3.069  18.392  0.00  0.00    +0.000 HD
ATOM     17  H   UNL     1       5.455   4.343  19.447  0.00  0.00    +0.000 HD
ENDBRANCH   7  15
TORSDOF 2
ENDMDL
MODEL 2
REMARK VINA RESULT:      -5.7      1.000      1.021
REMARK  Name = 
REMARK  2 active torsions:
REMARK  status: ('A' for Active; 'I' for Inactive)
REMARK    1  A    between atoms: C_2  and  C_4
REMARK    2  A    between atoms: C_10  and  N_11
REMARK                            x       y       z     vdW  Elec       q    Type
REMARK                         _______ _______ _______ _____ _____    ______ ____
ROOT
ATOM      1  C   UNL     1       7.166   5.635  16.751  0.00  0.00    +0.000 A 
ATOM      2  N   UNL     1       7.615   5.981  15.523  0.00  0.00    +0.000 NA
ATOM      3  N   UNL     1       7.265   5.195  14.472  0.00  0.00    +0.000 NA
ATOM      4  C   UNL     1       6.494   4.104  14.678  0.00  0.00    +0.000 A 
ATOM      5  N   UNL     1       6.164   3.303  13.602  0.00  0.00    +0.000 N 
ATOM      6  N   UNL     1       6.055   3.714  15.882  0.00  0.00    +0.000 NA
ATOM      7  C   UNL     1       6.387   4.498  16.928  0.00  0.00    +0.000 A 
ATOM      8  H   UNL     1       6.838   3.405  12.854  0.00  0.00    +0.000 HD
ATOM      9  H   UNL     1       5.965   2.364  13.918  0.00  0.00    +0.000 HD
ENDROOT
BRANCH   1  11
ATOM     10  N   UNL     1       7.632   7.882  17.543  0.00  0.00    +0.000 N 
ATOM     11  C   UNL     1       7.512   6.555  17.865  0.00  0.00    +0.000 C 
ATOM     12  O   UNL     1       7.664   6.167  19.018  0.00  0.00    +0.000 OA
ATOM     13  H   UNL     1       7.840   8.546  18.278  0.00  0.00    +0.000 HD
ATOM     14  H   UNL     1       7.468   8.218  16.601  0.00  0.00    +0.000 HD
ENDBRANCH   1  11
BRANCH   7  15
ATOM     15  N   UNL     1       5.999   4.008  18.176  0.00  0.00    +0.000 N 
ATOM     16  H   UNL     1       6.394   3.086  18.330  0.00  0.00    +0.000 HD
ATOM     17  H   UNL     1       4.990   4.064  18.324  0.00  0.00    +0.000 HD
ENDBRANCH   7  15
TORSDOF 2
ENDMDL
MODEL 3
REMARK VINA RESULT:      -5.7      2.538      4.237
REMARK  Name = 
REMARK  2 active torsions:
REMARK  status: ('A' for Active; 'I' for Inactive)
REMARK    1  A    between atoms: C_2  and  C_4
REMARK    2  A    between atoms: C_10  and  N_11
REMARK                            x       y       z     vdW  Elec       q    Type
REMARK                         _______ _______ _______ _____ _____    ______ ____
ROOT
ATOM      1  C   UNL     1       7.008   4.952  15.776  0.00  0.00    +0.000 A 
ATOM      2  N   UNL     1       7.906   4.240  16.495  0.00  0.00    +0.000 NA
ATOM      3  N   UNL     1       7.933   4.422  17.841  0.00  0.00    +0.000 NA
ATOM      4  C   UNL     1       7.078   5.297  18.416  0.00  0.00    +0.000 A 
ATOM      5  N   UNL     1       7.133   5.487  19.784  0.00  0.00    +0.000 N 
ATOM      6  N   UNL     1       6.196   6.040  17.734  0.00  0.00    +0.000 NA
ATOM      7  C   UNL     1       6.154   5.853  16.400  0.00  0.00    +0.000 A 
ATOM      8  H   UNL     1       8.043   5.240  20.148  0.00  0.00    +0.000 HD
ATOM      9  H   UNL     1       6.774   6.402  20.020  0.00  0.00    +0.000 HD
ENDROOT
BRANCH   1  11
ATOM     10  N   UNL     1       6.283   3.548  13.932  0.00  0.00    +0.000 N 
ATOM     11  C   UNL     1       6.961   4.676  14.318  0.00  0.00    +0.000 C 
ATOM     12  O   UNL     1       7.478   5.417  13.489  0.00  0.00    +0.000 OA
ATOM     13  H   UNL     1       6.204   3.338  12.946  0.00  0.00    +0.000 HD
ATOM     14  H   UNL     1       5.817   2.952  14.607  0.00  0.00    +0.000 HD
ENDBRANCH   1  11
BRANCH   7  15
ATOM     15  N   UNL     1       5.296   6.713  15.713  0.00  0.00    +0.000 N 
ATOM     16  H   UNL     1       5.705   6.981  14.824  0.00  0.00    +0.000 HD
ATOM     17  H   UNL     1       4.984   7.498  16.286  0.00  0.00    +0.000 HD
ENDBRANCH   7  15
TORSDOF 2
ENDMDL
MODEL 4
REMARK VINA RESULT:      -5.5      2.498      4.122
REMARK  Name = 
REMARK  2 active torsions:
REMARK  status: ('A' for Active; 'I' for Inactive)
REMARK    1  A    between atoms: C_2  and  C_4
REMARK    2  A    between atoms: C_10  and  N_11
REMARK                            x       y       z     vdW  Elec       q    Type
REMARK                         _______ _______ _______ _____ _____    ______ ____
ROOT
ATOM      1  C   UNL     1       6.992   5.115  16.122  0.00  0.00    +0.000 A 
ATOM      2  N   UNL     1       7.904   4.279  16.669  0.00  0.00    +0.000 NA
ATOM      3  N   UNL     1       8.185   4.419  17.991  0.00  0.00    +0.000 NA
ATOM      4  C   UNL     1       7.557   5.375  18.712  0.00  0.00    +0.000 A 
ATOM      5  N   UNL     1       7.869   5.519  20.050  0.00  0.00    +0.000 N 
ATOM      6  N   UNL     1       6.670   6.238  18.199  0.00  0.00    +0.000 NA
ATOM      7  C   UNL     1       6.376   6.095  16.891  0.00  0.00    +0.000 A 
ATOM      8  H   UNL     1       8.790   5.153  20.249  0.00  0.00    +0.000 HD
ATOM      9  H   UNL     1       7.673   6.463  20.351  0.00  0.00    +0.000 HD
ENDROOT
BRANCH   1  11
ATOM     10  N   UNL     1       7.618   5.251  13.780  0.00  0.00    +0.000 N 
ATOM     11  C   UNL     1       6.661   4.887  14.693  0.00  0.00    +0.000 C 
ATOM     12  O   UNL     1       5.603   4.384  14.331  0.00  0.00    +0.000 OA
ATOM     13  H   UNL     1       7.444   5.088  12.797  0.00  0.00    +0.000 HD
ATOM     14  H   UNL     1       8.513   5.629  14.071  0.00  0.00    +0.000 HD
ENDBRANCH   1  11
BRANCH   7  15
ATOM     15  N   UNL     1       5.526   7.072  16.369  0.00  0.00    +0.000 N 
ATOM     16  H   UNL     1       6.066   7.857  16.020  0.00  0.00    +0.000 HD
ATOM     17  H   UNL     1       4.779   7.329  17.015  0.00  0.00    +0.000 HD
ENDBRANCH   7  15
TORSDOF 2
ENDMDL
MODEL 5
REMARK VINA RESULT:      -5.5      1.561      2.833
REMARK  Name = 
REMARK  2 active torsions:
REMARK  status: ('A' for Active; 'I' for Inactive)
REMARK    1  A    between atoms: C_2  and  C_4
REMARK    2  A    between atoms: C_10  and  N_11
REMARK                            x       y       z     vdW  Elec       q    Type
REMARK                         _______ _______ _______ _____ _____    ______ ____
ROOT
ATOM      1  C   UNL     1       5.626   4.352  17.780  0.00  0.00    +0.000 A 
ATOM      2  N   UNL     1       4.961   4.181  16.615  0.00  0.00    +0.000 NA
ATOM      3  N   UNL     1       5.617   4.465  15.459  0.00  0.00    +0.000 NA
ATOM      4  C   UNL     1       6.894   4.906  15.504  0.00  0.00    +0.000 A 
ATOM      5  N   UNL     1       7.540   5.212  14.322  0.00  0.00    +0.000 N 
ATOM      6  N   UNL     1       7.574   5.115  16.640  0.00  0.00    +0.000 NA
ATOM      7  C   UNL     1       6.933   4.821  17.789  0.00  0.00    +0.000 A 
ATOM      8  H   UNL     1       6.876   5.431  13.592  0.00  0.00    +0.000 HD
ATOM      9  H   UNL     1       8.275   5.883  14.494  0.00  0.00    +0.000 HD
ENDROOT
BRANCH   1  11
ATOM     10  N   UNL     1       4.953   2.641  19.367  0.00  0.00    +0.000 N 
ATOM     11  C   UNL     1       4.900   3.966  19.017  0.00  0.00    +0.000 C 
ATOM     12  O   UNL     1       4.299   4.780  19.711  0.00  0.00    +0.000 OA
ATOM     13  H   UNL     1       4.494   2.342  20.217  0.00  0.00    +0.000 HD
ATOM     14  H   UNL     1       5.481   1.969  18.823  0.00  0.00    +0.000 HD
ENDBRANCH   1  11
BRANCH   7  15
ATOM     15  N   UNL     1       7.635   5.144  18.952  0.00  0.00    +0.000 N 
ATOM     16  H   UNL     1       8.372   5.809  18.744  0.00  0.00    +0.000 HD
ATOM     17  H   UNL     1       7.945   4.319  19.467  0.00  0.00    +0.000 HD
ENDBRANCH   7  15
TORSDOF 2
ENDMDL
MODEL 6
REMARK VINA RESULT:      -5.5      2.275      3.976
REMARK  Name = 
REMARK  2 active torsions:
REMARK  status: ('A' for Active; 'I' for Inactive)
REMARK    1  A    between atoms: C_2  and  C_4
REMARK    2  A    between atoms: C_10  and  N_11
REMARK                            x       y       z     vdW  Elec       q    Type
REMARK                         _______ _______ _______ _____ _____    ______ ____
ROOT
ATOM      1  C   UNL     1       6.050   4.811  16.412  0.00  0.00    +0.000 A 
ATOM      2  N   UNL     1       4.735   5.112  16.315  0.00  0.00    +0.000 NA
ATOM      3  N   UNL     1       4.050   5.354  17.464  0.00  0.00    +0.000 NA
ATOM      4  C   UNL     1       4.690   5.285  18.653  0.00  0.00    +0.000 A 
ATOM      5  N   UNL     1       3.975   5.512  19.813  0.00  0.00    +0.000 N 
ATOM      6  N   UNL     1       5.983   4.961  18.789  0.00  0.00    +0.000 NA
ATOM      7  C   UNL     1       6.671   4.734  17.653  0.00  0.00    +0.000 A 
ATOM      8  H   UNL     1       2.990   5.334  19.672  0.00  0.00    +0.000 HD
ATOM      9  H   UNL     1       4.422   5.047  20.591  0.00  0.00    +0.000 HD
ENDROOT
BRANCH   1  11
ATOM     10  N   UNL     1       6.320   3.623  14.311  0.00  0.00    +0.000 N 
ATOM     11  C   UNL     1       6.780   4.620  15.134  0.00  0.00    +0.000 C 
ATOM     12  O   UNL     1       7.732   5.321  14.806  0.00  0.00    +0.000 OA
ATOM     13  H   UNL     1       6.773   3.478  13.419  0.00  0.00    +0.000 HD
ATOM     14  H   UNL     1       5.509   3.066  14.555  0.00  0.00    +0.000 HD
ENDBRANCH   1  11
BRANCH   7  15
ATOM     15  N   UNL     1       7.986   4.302  17.838  0.00  0.00    +0.000 N 
ATOM     16  H   UNL     1       8.607   5.099  17.932  0.00  0.00    +0.000 HD
ATOM     17  H   UNL     1       8.279   3.620  17.138  0.00  0.00    +0.000 HD
ENDBRANCH   7  15
TORSDOF 2
ENDMDL
MODEL 7
REMARK VINA RESULT:      -5.4      2.145      3.841
REMARK  Name = 
REMARK  2 active torsions:
REMARK  status: ('A' for Active; 'I' for Inactive)
REMARK    1  A    between atoms: C_2  and  C_4
REMARK    2  A    between atoms: C_10  and  N_11
REMARK                            x       y       z     vdW  Elec       q    Type
REMARK                         _______ _______ _______ _____ _____    ______ ____
ROOT
ATOM      1  C   UNL     1       6.717   5.171  16.110  0.00  0.00    +0.000 A 
ATOM      2  N   UNL     1       7.520   6.214  16.417  0.00  0.00    +0.000 NA
ATOM      3  N   UNL     1       7.889   6.374  17.715  0.00  0.00    +0.000 NA
ATOM      4  C   UNL     1       7.448   5.502  18.649  0.00  0.00    +0.000 A 
ATOM      5  N   UNL     1       7.813   5.691  19.968  0.00  0.00    +0.000 N 
ATOM      6  N   UNL     1       6.628   4.476  18.387  0.00  0.00    +0.000 NA
ATOM      7  C   UNL     1       6.270   4.303  17.098  0.00  0.00    +0.000 A 
ATOM      8  H   UNL     1       8.054   6.657  20.143  0.00  0.00    +0.000 HD
ATOM      9  H   UNL     1       7.130   5.267  20.580  0.00  0.00    +0.000 HD
ENDROOT
BRANCH   1  11
ATOM     10  N   UNL     1       7.366   5.346  13.776  0.00  0.00    +0.000 N 
ATOM     11  C   UNL     1       6.391   4.989  14.672  0.00  0.00    +0.000 C 
ATOM     12  O   UNL     1       5.321   4.525  14.291  0.00  0.00    +0.000 OA
ATOM     13  H   UNL     1       7.194   5.213  12.788  0.00  0.00    +0.000 HD
ATOM     14  H   UNL     1       8.268   5.691  14.083  0.00  0.00    +0.000 HD
ENDBRANCH   1  11
BRANCH   7  15
ATOM     15  N   UNL     1       5.338   3.287  16.878  0.00  0.00    +0.000 N 
ATOM     16  H   UNL     1       4.863   3.053  17.743  0.00  0.00    +0.000 HD
ATOM     17  H   UNL     1       5.738   2.486  16.387  0.00  0.00    +0.000 HD
ENDBRANCH   7  15
TORSDOF 2
ENDMDL
MODEL 8
REMARK VINA RESULT:      -5.4      1.284      1.297
REMARK  Name = 
REMARK  2 active torsions:
REMARK  status: ('A' for Active; 'I' for Inactive)
REMARK    1  A    between atoms: C_2  and  C_4
REMARK    2  A    between atoms: C_10  and  N_11
REMARK                            x       y       z     vdW  Elec       q    Type
REMARK                         _______ _______ _______ _____ _____    ______ ____
ROOT
ATOM      1  C   UNL     1       6.477   4.954  17.432  0.00  0.00    +0.000 A 
ATOM      2  N   UNL     1       7.421   5.617  16.726  0.00  0.00    +0.000 NA
ATOM      3  N   UNL     1       7.492   5.392  15.387  0.00  0.00    +0.000 NA
ATOM      4  C   UNL     1       6.633   4.524  14.808  0.00  0.00    +0.000 A 
ATOM      5  N   UNL     1       6.731   4.289  13.450  0.00  0.00    +0.000 N 
ATOM      6  N   UNL     1       5.705   3.828  15.479  0.00  0.00    +0.000 NA
ATOM      7  C   UNL     1       5.620   4.058  16.805  0.00  0.00    +0.000 A 
ATOM      8  H   UNL     1       7.661   4.499  13.112  0.00  0.00    +0.000 HD
ATOM      9  H   UNL     1       6.355   3.378  13.229  0.00  0.00    +0.000 HD
ENDROOT
BRANCH   1  11
ATOM     10  N   UNL     1       7.575   5.436  19.544  0.00  0.00    +0.000 N 
ATOM     11  C   UNL     1       6.386   5.277  18.878  0.00  0.00    +0.000 C 
ATOM     12  O   UNL     1       5.314   5.418  19.457  0.00  0.00    +0.000 OA
ATOM     13  H   UNL     1       7.557   5.683  20.524  0.00  0.00    +0.000 HD
ATOM     14  H   UNL     1       8.465   5.363  19.065  0.00  0.00    +0.000 HD
ENDBRANCH   1  11
BRANCH   7  15
ATOM     15  N   UNL     1       4.713   3.245  17.485  0.00  0.00    +0.000 N 
ATOM     16  H   UNL     1       3.764   3.461  17.199  0.00  0.00    +0.000 HD
ATOM     17  H   UNL     1       4.860   3.251  18.495  0.00  0.00    +0.000 HD
ENDBRANCH   7  15
TORSDOF 2
ENDMDL
MODEL 9
REMARK VINA RESULT:      -5.4      3.914      5.461
REMARK  Name = 
REMARK  2 active torsions:
REMARK  status: ('A' for Active; 'I' for Inactive)
REMARK    1  A    between atoms: C_2  and  C_4
REMARK    2  A    between atoms: C_10  and  N_11
REMARK                            x       y       z     vdW  Elec       q    Type
REMARK                         _______ _______ _______ _____ _____    ______ ____
ROOT
ATOM      1  C   UNL     1       3.044   3.900  20.179  0.00  0.00    +0.000 A 
ATOM      2  N   UNL     1       3.777   2.792  19.924  0.00  0.00    +0.000 NA
ATOM      3  N   UNL     1       4.991   2.953  19.335  0.00  0.00    +0.000 NA
ATOM      4  C   UNL     1       5.425   4.194  19.022  0.00  0.00    +0.000 A 
ATOM      5  N   UNL     1       6.652   4.339  18.403  0.00  0.00    +0.000 N 
ATOM      6  N   UNL     1       4.715   5.310  19.232  0.00  0.00    +0.000 NA
ATOM      7  C   UNL     1       3.515   5.159  19.829  0.00  0.00    +0.000 A 
ATOM      8  H   UNL     1       6.916   3.492  17.918  0.00  0.00    +0.000 HD
ATOM      9  H   UNL     1       6.672   5.199  17.873  0.00  0.00    +0.000 HD
ENDROOT
BRANCH   1  11
ATOM     10  N   UNL     1       1.794   2.899  22.004  0.00  0.00    +0.000 N 
ATOM     11  C   UNL     1       1.754   3.691  20.885  0.00  0.00    +0.000 C 
ATOM     12  O   UNL     1       0.706   4.208  20.513  0.00  0.00    +0.000 OA
ATOM     13  H   UNL     1       0.942   2.753  22.529  0.00  0.00    +0.000 HD
ATOM     14  H   UNL     1       2.662   2.501  22.343  0.00  0.00    +0.000 HD
ENDBRANCH   1  11
BRANCH   7  15
ATOM     15  N   UNL     1       2.763   6.329  19.940  0.00  0.00    +0.000 N 
ATOM     16  H   UNL     1       1.933   6.162  20.500  0.00  0.00    +0.000 HD
ATOM     17  H   UNL     1       2.579   6.767  19.037  0.00  0.00    +0.000 HD
ENDBRANCH   7  15
TORSDOF 2
ENDMDL
