MODEL 1
REMARK VINA RESULT:      -8.0      0.000      0.000
REMARK  Name = 
REMARK  3 active torsions:
REMARK  status: ('A' for Active; 'I' for Inactive)
REMARK    1  A    between atoms: C_1  and  C_2
REMARK    2  A    between atoms: N_5  and  C_6
REMARK    3  A    between atoms: C_9  and  C_10
REMARK                            x       y       z     vdW  Elec       q    Type
REMARK                         _______ _______ _______ _____ _____    ______ ____
ROOT
ATOM      1  C   UNL     1       7.574   6.746  18.084  0.00  0.00    +0.000 C 
ATOM      2  C   UNL     1       7.069   5.858  16.990  0.00  0.00    +0.000 A 
ATOM      3  N   UNL     1       6.096   4.992  17.328  0.00  0.00    +0.000 NA
ATOM      4  C   UNL     1       5.554   4.160  16.404  0.00  0.00    +0.000 A 
ATOM      5  N   UNL     1       4.560   3.241  16.772  0.00  0.00    +0.000 N 
ATOM      6  C   UNL     1       6.050   4.248  15.094  0.00  0.00    +0.000 A 
ATOM      7  C   UNL     1       5.787   3.627  13.838  0.00  0.00    +0.000 A 
ATOM      8  C   UNL     1       6.628   4.197  12.904  0.00  0.00    +0.000 A 
ATOM      9  N   UNL     1       7.408   5.119  13.554  0.00  0.00    +0.000 N 
ATOM     10  C   UNL     1       7.057   5.174  14.873  0.00  0.00    +0.000 A 
ATOM     11  N   UNL     1       7.613   6.003  15.769  0.00  0.00    +0.000 NA
ATOM     12  H   UNL     1       4.377   2.527  16.082  0.00  0.00    +0.000 HD
ATOM     13  H   UNL     1       8.127   5.696  13.141  0.00  0.00    +0.000 HD
ENDROOT
BRANCH   5  14
ATOM     14  C   UNL     1       3.856   3.130  17.980  0.00  0.00    +0.000 A 
ATOM     15  C   UNL     1       4.455   2.671  19.163  0.00  0.00    +0.000 A 
ATOM     16  C   UNL     1       3.721   2.496  20.338  0.00  0.00    +0.000 A 
ATOM     17  C   UNL     1       2.362   2.784  20.348  0.00  0.00    +0.000 A 
ATOM     18  C   UNL     1       1.739   3.243  19.184  0.00  0.00    +0.000 A 
ATOM     19  C   UNL     1       2.485   3.413  18.010  0.00  0.00    +0.000 A 
BRANCH  17  20
ATOM     20  C   UNL     1       1.609   2.614  21.555  0.00  0.00    +0.000 C 
ATOM     21  N   UNL     1       1.010   2.481  22.536  0.00  0.00    +0.000 NA
ENDBRANCH  17  20
ENDBRANCH   5  14
TORSDOF 2
ENDMDL
MODEL 2
REMARK VINA RESULT:      -7.8      0.140      1.113
REMARK  Name = 
REMARK  3 active torsions:
REMARK  status: ('A' for Active; 'I' for Inactive)
REMARK    1  A    between atoms: C_1  and  C_2
REMARK    2  A    between atoms: N_5  and  C_6
REMARK    3  A    between atoms: C_9  and  C_10
REMARK                            x       y       z     vdW  Elec       q    Type
REMARK                         _______ _______ _______ _____ _____    ______ ____
ROOT
ATOM      1  C   UNL     1       7.446   6.721  18.156  0.00  0.00    +0.000 C 
ATOM      2  C   UNL     1       7.012   5.847  17.020  0.00  0.00    +0.000 A 
ATOM      3  N   UNL     1       6.052   4.945  17.296  0.00  0.00    +0.000 NA
ATOM      4  C   UNL     1       5.573   4.122  16.330  0.00  0.00    +0.000 A 
ATOM      5  N   UNL     1       4.592   3.166  16.633  0.00  0.00    +0.000 N 
ATOM      6  C   UNL     1       6.119   4.258  15.044  0.00  0.00    +0.000 A 
ATOM      7  C   UNL     1       5.926   3.663  13.763  0.00  0.00    +0.000 A 
ATOM      8  C   UNL     1       6.787   4.281  12.880  0.00  0.00    +0.000 A 
ATOM      9  N   UNL     1       7.513   5.207  13.584  0.00  0.00    +0.000 N 
ATOM     10  C   UNL     1       7.107   5.218  14.889  0.00  0.00    +0.000 A 
ATOM     11  N   UNL     1       7.601   6.039  15.827  0.00  0.00    +0.000 NA
ATOM     12  H   UNL     1       4.458   2.466  15.919  0.00  0.00    +0.000 HD
ATOM     13  H   UNL     1       8.231   5.815  13.216  0.00  0.00    +0.000 HD
ENDROOT
BRANCH   5  14
ATOM     14  C   UNL     1       3.843   3.005  17.808  0.00  0.00    +0.000 A 
ATOM     15  C   UNL     1       2.480   3.326  17.884  0.00  0.00    +0.000 A 
ATOM     16  C   UNL     1       1.768   3.230  19.082  0.00  0.00    +0.000 A 
ATOM     17  C   UNL     1       2.418   2.803  20.235  0.00  0.00    +0.000 A 
ATOM     18  C   UNL     1       3.776   2.478  20.188  0.00  0.00    +0.000 A 
ATOM     19  C   UNL     1       4.481   2.580  18.981  0.00  0.00    +0.000 A 
BRANCH  17  20
ATOM     20  C   UNL     1       1.688   2.696  21.463  0.00  0.00    +0.000 C 
ATOM     21  N   UNL     1       1.104   2.599  22.457  0.00  0.00    +0.000 NA
ENDBRANCH  17  20
ENDBRANCH   5  14
TORSDOF 2
ENDMDL
MODEL 3
REMARK VINA RESULT:      -7.5      3.926      4.248
REMARK  Name = 
REMARK  3 active torsions:
REMARK  status: ('A' for Active; 'I' for Inactive)
REMARK    1  A    between atoms: C_1  and  C_2
REMARK    2  A    between atoms: N_5  and  C_6
REMARK    3  A    between atoms: C_9  and  C_10
REMARK                            x       y       z     vdW  Elec       q    Type
REMARK                         _______ _______ _______ _____ _____    ______ ____
ROOT
ATOM      1  C   UNL     1       7.877   8.475  17.860  0.00  0.00    +0.000 C 
ATOM      2  C   UNL     1       7.077   7.353  17.274  0.00  0.00    +0.000 A 
ATOM      3  N   UNL     1       5.780   7.297  17.632  0.00  0.00    +0.000 NA
ATOM      4  C   UNL     1       4.964   6.333  17.137  0.00  0.00    +0.000 A 
ATOM      5  N   UNL     1       3.621   6.266  17.537  0.00  0.00    +0.000 N 
ATOM      6  C   UNL     1       5.531   5.410  16.244  0.00  0.00    +0.000 A 
ATOM      7  C   UNL     1       5.084   4.291  15.482  0.00  0.00    +0.000 A 
ATOM      8  C   UNL     1       6.162   3.818  14.762  0.00  0.00    +0.000 A 
ATOM      9  N   UNL     1       7.249   4.591  15.081  0.00  0.00    +0.000 N 
ATOM     10  C   UNL     1       6.878   5.570  15.961  0.00  0.00    +0.000 A 
ATOM     11  N   UNL     1       7.706   6.509  16.440  0.00  0.00    +0.000 NA
ATOM     12  H   UNL     1       3.157   5.403  17.294  0.00  0.00    +0.000 HD
ATOM     13  H   UNL     1       8.187   4.488  14.722  0.00  0.00    +0.000 HD
ENDROOT
BRANCH   5  14
ATOM     14  C   UNL     1       2.871   7.183  18.288  0.00  0.00    +0.000 A 
ATOM     15  C   UNL     1       2.501   6.944  19.620  0.00  0.00    +0.000 A 
ATOM     16  C   UNL     1       1.691   7.834  20.328  0.00  0.00    +0.000 A 
ATOM     17  C   UNL     1       1.236   8.992  19.708  0.00  0.00    +0.000 A 
ATOM     18  C   UNL     1       1.589   9.255  18.381  0.00  0.00    +0.000 A 
ATOM     19  C   UNL     1       2.401   8.354  17.679  0.00  0.00    +0.000 A 
BRANCH  17  20
ATOM     20  C   UNL     1       0.412   9.911  20.435  0.00  0.00    +0.000 C 
ATOM     21  N   UNL     1      -0.244  10.659  21.025  0.00  0.00    +0.000 NA
ENDBRANCH  17  20
ENDBRANCH   5  14
TORSDOF 2
ENDMDL
MODEL 4
REMARK VINA RESULT:      -7.5      3.874      4.269
REMARK  Name = 
REMARK  3 active torsions:
REMARK  status: ('A' for Active; 'I' for Inactive)
REMARK    1  A    between atoms: C_1  and  C_2
REMARK    2  A    between atoms: N_5  and  C_6
REMARK    3  A    between atoms: C_9  and  C_10
REMARK                            x       y       z     vdW  Elec       q    Type
REMARK                         _______ _______ _______ _____ _____    ______ ____
ROOT
ATOM      1  C   UNL     1       7.775   8.519  17.841  0.00  0.00    +0.000 C 
ATOM      2  C   UNL     1       7.014   7.372  17.252  0.00  0.00    +0.000 A 
ATOM      3  N   UNL     1       5.717   7.279  17.598  0.00  0.00    +0.000 NA
ATOM      4  C   UNL     1       4.934   6.289  17.099  0.00  0.00    +0.000 A 
ATOM      5  N   UNL     1       3.590   6.183  17.485  0.00  0.00    +0.000 N 
ATOM      6  C   UNL     1       5.537   5.380  16.215  0.00  0.00    +0.000 A 
ATOM      7  C   UNL     1       5.132   4.245  15.454  0.00  0.00    +0.000 A 
ATOM      8  C   UNL     1       6.230   3.801  14.747  0.00  0.00    +0.000 A 
ATOM      9  N   UNL     1       7.291   4.608  15.073  0.00  0.00    +0.000 N 
ATOM     10  C   UNL     1       6.882   5.578  15.945  0.00  0.00    +0.000 A 
ATOM     11  N   UNL     1       7.677   6.543  16.428  0.00  0.00    +0.000 NA
ATOM     12  H   UNL     1       3.154   5.306  17.241  0.00  0.00    +0.000 HD
ATOM     13  H   UNL     1       8.235   4.531  14.724  0.00  0.00    +0.000 HD
ENDROOT
BRANCH   5  14
ATOM     14  C   UNL     1       2.806   7.081  18.225  0.00  0.00    +0.000 A 
ATOM     15  C   UNL     1       2.357   8.301  17.698  0.00  0.00    +0.000 A 
ATOM     16  C   UNL     1       1.641   9.217  18.473  0.00  0.00    +0.000 A 
ATOM     17  C   UNL     1       1.357   8.919  19.801  0.00  0.00    +0.000 A 
ATOM     18  C   UNL     1       1.793   7.711  20.351  0.00  0.00    +0.000 A 
ATOM     19  C   UNL     1       2.512   6.801  19.566  0.00  0.00    +0.000 A 
BRANCH  17  20
ATOM     20  C   UNL     1       0.616   9.853  20.594  0.00  0.00    +0.000 C 
ATOM     21  N   UNL     1       0.022  10.603  21.246  0.00  0.00    +0.000 NA
ENDBRANCH  17  20
ENDBRANCH   5  14
TORSDOF 2
ENDMDL
MODEL 5
REMARK VINA RESULT:      -7.2      2.020      6.869
REMARK  Name = 
REMARK  3 active torsions:
REMARK  status: ('A' for Active; 'I' for Inactive)
REMARK    1  A    between atoms: C_1  and  C_2
REMARK    2  A    between atoms: N_5  and  C_6
REMARK    3  A    between atoms: C_9  and  C_10
REMARK                            x       y       z     vdW  Elec       q    Type
REMARK                         _______ _______ _______ _____ _____    ______ ____
ROOT
ATOM      1  C   UNL     1       2.382   7.695  18.612  0.00  0.00    +0.000 C 
ATOM      2  C   UNL     1       2.641   6.291  19.063  0.00  0.00    +0.000 A 
ATOM      3  N   UNL     1       3.498   5.574  18.313  0.00  0.00    +0.000 NA
ATOM      4  C   UNL     1       3.818   4.299  18.650  0.00  0.00    +0.000 A 
ATOM      5  N   UNL     1       4.691   3.550  17.847  0.00  0.00    +0.000 N 
ATOM      6  C   UNL     1       3.221   3.774  19.806  0.00  0.00    +0.000 A 
ATOM      7  C   UNL     1       3.268   2.551  20.537  0.00  0.00    +0.000 A 
ATOM      8  C   UNL     1       2.440   2.685  21.633  0.00  0.00    +0.000 A 
ATOM      9  N   UNL     1       1.873   3.933  21.576  0.00  0.00    +0.000 N 
ATOM     10  C   UNL     1       2.350   4.609  20.489  0.00  0.00    +0.000 A 
ATOM     11  N   UNL     1       2.014   5.868  20.174  0.00  0.00    +0.000 NA
ATOM     12  H   UNL     1       4.698   2.561  18.050  0.00  0.00    +0.000 HD
ATOM     13  H   UNL     1       1.215   4.325  22.234  0.00  0.00    +0.000 HD
ENDROOT
BRANCH   5  14
ATOM     14  C   UNL     1       5.479   3.967  16.764  0.00  0.00    +0.000 A 
ATOM     15  C   UNL     1       6.743   4.552  16.932  0.00  0.00    +0.000 A 
ATOM     16  C   UNL     1       7.482   5.029  15.847  0.00  0.00    +0.000 A 
ATOM     17  C   UNL     1       6.962   4.925  14.562  0.00  0.00    +0.000 A 
ATOM     18  C   UNL     1       5.705   4.348  14.366  0.00  0.00    +0.000 A 
ATOM     19  C   UNL     1       4.971   3.874  15.462  0.00  0.00    +0.000 A 
BRANCH  17  20
ATOM     20  C   UNL     1       7.721   5.407  13.448  0.00  0.00    +0.000 C 
ATOM     21  N   UNL     1       8.344   5.798  12.555  0.00  0.00    +0.000 NA
ENDBRANCH  17  20
ENDBRANCH   5  14
TORSDOF 2
ENDMDL
MODEL 6
REMARK VINA RESULT:      -7.1      3.302      3.596
REMARK  Name = 
REMARK  3 active torsions:
REMARK  status: ('A' for Active; 'I' for Inactive)
REMARK    1  A    between atoms: C_1  and  C_2
REMARK    2  A    between atoms: N_5  and  C_6
REMARK    3  A    between atoms: C_9  and  C_10
REMARK                            x       y       z     vdW  Elec       q    Type
REMARK                         _______ _______ _______ _____ _____    ______ ____
ROOT
ATOM      1  C   UNL     1       7.857   5.860  19.533  0.00  0.00    +0.000 C 
ATOM      2  C   UNL     1       7.065   5.540  18.303  0.00  0.00    +0.000 A 
ATOM      3  N   UNL     1       5.750   5.822  18.353  0.00  0.00    +0.000 NA
ATOM      4  C   UNL     1       4.948   5.592  17.283  0.00  0.00    +0.000 A 
ATOM      5  N   UNL     1       3.574   5.862  17.353  0.00  0.00    +0.000 N 
ATOM      6  C   UNL     1       5.552   5.053  16.135  0.00  0.00    +0.000 A 
ATOM      7  C   UNL     1       5.142   4.683  14.821  0.00  0.00    +0.000 A 
ATOM      8  C   UNL     1       6.257   4.229  14.147  0.00  0.00    +0.000 A 
ATOM      9  N   UNL     1       7.320   4.286  15.013  0.00  0.00    +0.000 N 
ATOM     10  C   UNL     1       6.913   4.800  16.212  0.00  0.00    +0.000 A 
ATOM     11  N   UNL     1       7.724   5.013  17.258  0.00  0.00    +0.000 NA
ATOM     12  H   UNL     1       3.031   5.462  16.602  0.00  0.00    +0.000 HD
ATOM     13  H   UNL     1       8.272   4.014  14.815  0.00  0.00    +0.000 HD
ENDROOT
BRANCH   5  14
ATOM     14  C   UNL     1       2.851   6.532  18.351  0.00  0.00    +0.000 A 
ATOM     15  C   UNL     1       2.511   7.890  18.254  0.00  0.00    +0.000 A 
ATOM     16  C   UNL     1       1.856   8.559  19.291  0.00  0.00    +0.000 A 
ATOM     17  C   UNL     1       1.526   7.871  20.453  0.00  0.00    +0.000 A 
ATOM     18  C   UNL     1       1.854   6.518  20.576  0.00  0.00    +0.000 A 
ATOM     19  C   UNL     1       2.513   5.857  19.531  0.00  0.00    +0.000 A 
BRANCH  17  20
ATOM     20  C   UNL     1       0.848   8.553  21.514  0.00  0.00    +0.000 C 
ATOM     21  N   UNL     1       0.291   9.095  22.371  0.00  0.00    +0.000 NA
ENDBRANCH  17  20
ENDBRANCH   5  14
TORSDOF 2
ENDMDL
MODEL 7
REMARK VINA RESULT:      -7.1      3.366      3.589
REMARK  Name = 
REMARK  3 active torsions:
REMARK  status: ('A' for Active; 'I' for Inactive)
REMARK    1  A    between atoms: C_1  and  C_2
REMARK    2  A    between atoms: N_5  and  C_6
REMARK    3  A    between atoms: C_9  and  C_10
REMARK                            x       y       z     vdW  Elec       q    Type
REMARK                         _______ _______ _______ _____ _____    ______ ____
ROOT
ATOM      1  C   UNL     1       7.858   5.568  19.716  0.00  0.00    +0.000 C 
ATOM      2  C   UNL     1       7.084   5.386  18.447  0.00  0.00    +0.000 A 
ATOM      3  N   UNL     1       5.788   5.747  18.485  0.00  0.00    +0.000 NA
ATOM      4  C   UNL     1       5.006   5.645  17.381  0.00  0.00    +0.000 A 
ATOM      5  N   UNL     1       3.649   5.998  17.436  0.00  0.00    +0.000 N 
ATOM      6  C   UNL     1       5.608   5.151  16.213  0.00  0.00    +0.000 A 
ATOM      7  C   UNL     1       5.215   4.902  14.865  0.00  0.00    +0.000 A 
ATOM      8  C   UNL     1       6.319   4.426  14.188  0.00  0.00    +0.000 A 
ATOM      9  N   UNL     1       7.357   4.353  15.082  0.00  0.00    +0.000 N 
ATOM     10  C   UNL     1       6.948   4.807  16.304  0.00  0.00    +0.000 A 
ATOM     11  N   UNL     1       7.740   4.894  17.382  0.00  0.00    +0.000 NA
ATOM     12  H   UNL     1       3.105   5.687  16.645  0.00  0.00    +0.000 HD
ATOM     13  H   UNL     1       8.296   4.035  14.889  0.00  0.00    +0.000 HD
ENDROOT
BRANCH   5  14
ATOM     14  C   UNL     1       2.940   6.640  18.462  0.00  0.00    +0.000 A 
ATOM     15  C   UNL     1       2.565   5.985  19.644  0.00  0.00    +0.000 A 
ATOM     16  C   UNL     1       1.794   6.619  20.622  0.00  0.00    +0.000 A 
ATOM     17  C   UNL     1       1.386   7.934  20.430  0.00  0.00    +0.000 A 
ATOM     18  C   UNL     1       1.746   8.610  19.262  0.00  0.00    +0.000 A 
ATOM     19  C   UNL     1       2.517   7.964  18.286  0.00  0.00    +0.000 A 
BRANCH  17  20
ATOM     20  C   UNL     1       0.603   8.588  21.435  0.00  0.00    +0.000 C 
ATOM     21  N   UNL     1      -0.021   9.114  22.256  0.00  0.00    +0.000 NA
ENDBRANCH  17  20
ENDBRANCH   5  14
TORSDOF 2
ENDMDL
MODEL 8
REMARK VINA RESULT:      -7.0      4.548      5.814
REMARK  Name = 
REMARK  3 active torsions:
REMARK  status: ('A' for Active; 'I' for Inactive)
REMARK    1  A    between atoms: C_1  and  C_2
REMARK    2  A    between atoms: N_5  and  C_6
REMARK    3  A    between atoms: C_9  and  C_10
REMARK                            x       y       z     vdW  Elec       q    Type
REMARK                         _______ _______ _______ _____ _____    ______ ____
ROOT
ATOM      1  C   UNL     1       1.106   3.011  18.972  0.00  0.00    +0.000 C 
ATOM      2  C   UNL     1       2.247   3.747  18.341  0.00  0.00    +0.000 A 
ATOM      3  N   UNL     1       2.187   5.091  18.389  0.00  0.00    +0.000 NA
ATOM      4  C   UNL     1       3.183   5.850  17.867  0.00  0.00    +0.000 A 
ATOM      5  N   UNL     1       3.099   7.250  17.897  0.00  0.00    +0.000 N 
ATOM      6  C   UNL     1       4.265   5.173  17.284  0.00  0.00    +0.000 A 
ATOM      7  C   UNL     1       5.498   5.525  16.659  0.00  0.00    +0.000 A 
ATOM      8  C   UNL     1       6.143   4.355  16.318  0.00  0.00    +0.000 A 
ATOM      9  N   UNL     1       5.335   3.309  16.687  0.00  0.00    +0.000 N 
ATOM     10  C   UNL     1       4.206   3.788  17.290  0.00  0.00    +0.000 A 
ATOM     11  N   UNL     1       3.232   3.016  17.793  0.00  0.00    +0.000 NA
ATOM     12  H   UNL     1       3.765   7.720  17.302  0.00  0.00    +0.000 HD
ATOM     13  H   UNL     1       5.529   2.326  16.563  0.00  0.00    +0.000 HD
ENDROOT
BRANCH   5  14
ATOM     14  C   UNL     1       2.178   8.070  18.566  0.00  0.00    +0.000 A 
ATOM     15  C   UNL     1       1.507   9.126  17.930  0.00  0.00    +0.000 A 
ATOM     16  C   UNL     1       0.651   9.979  18.630  0.00  0.00    +0.000 A 
ATOM     17  C   UNL     1       0.448   9.784  19.991  0.00  0.00    +0.000 A 
ATOM     18  C   UNL     1       1.103   8.740  20.649  0.00  0.00    +0.000 A 
ATOM     19  C   UNL     1       1.963   7.892  19.938  0.00  0.00    +0.000 A 
BRANCH  17  20
ATOM     20  C   UNL     1      -0.437  10.652  20.709  0.00  0.00    +0.000 C 
ATOM     21  N   UNL     1      -1.145  11.352  21.299  0.00  0.00    +0.000 NA
ENDBRANCH  17  20
ENDBRANCH   5  14
TORSDOF 2
ENDMDL
MODEL 9
REMARK VINA RESULT:      -7.0      2.006      6.973
REMARK  Name = 
REMARK  3 active torsions:
REMARK  status: ('A' for Active; 'I' for Inactive)
REMARK    1  A    between atoms: C_1  and  C_2
REMARK    2  A    between atoms: N_5  and  C_6
REMARK    3  A    between atoms: C_9  and  C_10
REMARK                            x       y       z     vdW  Elec       q    Type
REMARK                         _______ _______ _______ _____ _____    ______ ____
ROOT
ATOM      1  C   UNL     1       2.237   7.673  18.838  0.00  0.00    +0.000 C 
ATOM      2  C   UNL     1       2.548   6.261  19.225  0.00  0.00    +0.000 A 
ATOM      3  N   UNL     1       3.395   5.596  18.418  0.00  0.00    +0.000 NA
ATOM      4  C   UNL     1       3.760   4.318  18.695  0.00  0.00    +0.000 A 
ATOM      5  N   UNL     1       4.622   3.623  17.834  0.00  0.00    +0.000 N 
ATOM      6  C   UNL     1       3.218   3.733  19.850  0.00  0.00    +0.000 A 
ATOM      7  C   UNL     1       3.322   2.486  20.532  0.00  0.00    +0.000 A 
ATOM      8  C   UNL     1       2.531   2.557  21.659  0.00  0.00    +0.000 A 
ATOM      9  N   UNL     1       1.931   3.790  21.671  0.00  0.00    +0.000 N 
ATOM     10  C   UNL     1       2.351   4.519  20.594  0.00  0.00    +0.000 A 
ATOM     11  N   UNL     1       1.972   5.780  20.340  0.00  0.00    +0.000 NA
ATOM     12  H   UNL     1       4.661   2.628  17.998  0.00  0.00    +0.000 HD
ATOM     13  H   UNL     1       1.287   4.140  22.366  0.00  0.00    +0.000 HD
ENDROOT
BRANCH   5  14
ATOM     14  C   UNL     1       5.360   4.101  16.741  0.00  0.00    +0.000 A 
ATOM     15  C   UNL     1       4.931   3.945  15.414  0.00  0.00    +0.000 A 
ATOM     16  C   UNL     1       5.715   4.360  14.335  0.00  0.00    +0.000 A 
ATOM     17  C   UNL     1       6.953   4.948  14.571  0.00  0.00    +0.000 A 
ATOM     18  C   UNL     1       7.404   5.115  15.882  0.00  0.00    +0.000 A 
ATOM     19  C   UNL     1       6.611   4.693  16.958  0.00  0.00    +0.000 A 
BRANCH  17  20
ATOM     20  C   UNL     1       7.754   5.382  13.466  0.00  0.00    +0.000 C 
ATOM     21  N   UNL     1       8.402   5.721  12.569  0.00  0.00    +0.000 NA
ENDBRANCH  17  20
ENDBRANCH   5  14
TORSDOF 2
ENDMDL
