MODEL 1
REMARK VINA RESULT:      -8.9      0.000      0.000
REMARK  Name = 
REMARK  9 active torsions:
REMARK  status: ('A' for Active; 'I' for Inactive)
REMARK    1  A    between atoms: C_2  and  O_3
REMARK    2  A    between atoms: C_2  and  C_4
REMARK    3  A    between atoms: C_4  and  C_5
REMARK    4  A    between atoms: C_5  and  C_6
REMARK    5  A    between atoms: C_5  and  C_27
REMARK    6  A    between atoms: C_6  and  C_7
REMARK    7  A    between atoms: C_11  and  C_13
REMARK    8  A    between atoms: C_13  and  C_14
REMARK    9  A    between atoms: C_14  and  C_15
REMARK                            x       y       z     vdW  Elec       q    Type
REMARK                         _______ _______ _______ _____ _____    ______ ____
ROOT
ATOM      1  C   UNL     1       2.492   6.934  19.135  0.00  0.00    +0.000 C 
ATOM      2  C   UNL     1       2.571   5.888  18.007  0.00  0.00    +0.000 C 
ATOM      3  C   UNL     1       1.430   4.869  18.042  0.00  0.00    +0.000 C 
ATOM      4  N   UNL     1       1.309   4.283  19.374  0.00  0.00    +0.000 N 
ATOM      5  C   UNL     1       1.604   2.970  19.714  0.00  0.00    +0.000 C 
ATOM      6  O   UNL     1       1.499   2.554  20.868  0.00  0.00    +0.000 OA
ATOM      7  C   UNL     1       1.107   5.246  20.449  0.00  0.00    +0.000 C 
ATOM      8  C   UNL     1       2.313   6.187  20.484  0.00  0.00    +0.000 C 
ENDROOT
BRANCH   1   9
ATOM      9  C   UNL     1       1.376   7.996  18.999  0.00  0.00    +0.000 C 
BRANCH   9  10
ATOM     10  C   UNL     1       1.142   9.079  20.076  0.00  0.00    +0.000 C 
BRANCH  10  11
ATOM     11  C   UNL     1       0.658  10.396  19.482  0.00  0.00    +0.000 A 
ATOM     12  C   UNL     1      -0.708  10.619  19.179  0.00  0.00    +0.000 A 
ATOM     13  C   UNL     1      -1.164  11.875  18.774  0.00  0.00    +0.000 A 
ATOM     14  C   UNL     1      -0.241  12.892  18.707  0.00  0.00    +0.000 A 
ATOM     15  C   UNL     1       1.094  12.678  18.961  0.00  0.00    +0.000 A 
ATOM     16  C   UNL     1       1.579  11.444  19.323  0.00  0.00    +0.000 A 
ATOM     17  O   UNL     1       1.824  13.823  18.879  0.00  0.00    +0.000 OA
ATOM     18  C   UNL     1       0.754  14.786  18.820  0.00  0.00    +0.000 C 
ATOM     19  O   UNL     1      -0.510  14.201  18.452  0.00  0.00    +0.000 OA
ENDBRANCH  10  11
BRANCH  10  20
ATOM     20  C   UNL     1       0.311   8.752  21.329  0.00  0.00    +0.000 C 
BRANCH  20  22
ATOM     21  O   UNL     1       0.140   9.979  23.424  0.00  0.00    +0.000 OA
ATOM     22  C   UNL     1       0.811   9.365  22.613  0.00  0.00    +0.000 C 
BRANCH  22  23
ATOM     23  O   UNL     1       2.139   9.163  22.787  0.00  0.00    +0.000 OA
ATOM     24  H   UNL     1       2.363   8.620  23.568  0.00  0.00    +0.000 HD
ENDBRANCH  22  23
ENDBRANCH  20  22
ENDBRANCH  10  20
ENDBRANCH   9  10
ENDBRANCH   1   9
BRANCH   5  25
ATOM     25  C   UNL     1       2.102   2.073  18.600  0.00  0.00    +0.000 C 
BRANCH  25  26
ATOM     26  C   UNL     1       3.597   1.812  18.751  0.00  0.00    +0.000 C 
BRANCH  26  27
ATOM     27  C   UNL     1       4.485   2.910  18.222  0.00  0.00    +0.000 A 
ATOM     28  C   UNL     1       4.501   3.139  16.850  0.00  0.00    +0.000 A 
ATOM     29  C   UNL     1       5.310   4.146  16.348  0.00  0.00    +0.000 A 
ATOM     30  C   UNL     1       6.070   4.910  17.230  0.00  0.00    +0.000 A 
ATOM     31  C   UNL     1       6.009   4.612  18.594  0.00  0.00    +0.000 A 
ATOM     32  N   UNL     1       5.236   3.628  19.090  0.00  0.00    +0.000 NA
ATOM     33  N   UNL     1       6.716   5.369  19.520  0.00  0.00    +0.000 N 
ATOM     34  C   UNL     1       7.893   6.060  19.038  0.00  0.00    +0.000 C 
ATOM     35  C   UNL     1       7.521   6.882  17.811  0.00  0.00    +0.000 C 
ATOM     36  C   UNL     1       7.003   5.967  16.707  0.00  0.00    +0.000 C 
ATOM     37  H   UNL     1       6.752   4.886  20.410  0.00  0.00    +0.000 HD
ENDBRANCH  26  27
ENDBRANCH  25  26
ENDBRANCH   5  25
TORSDOF 9
ENDMDL
MODEL 2
REMARK VINA RESULT:      -8.2      3.497      9.226
REMARK  Name = 
REMARK  9 active torsions:
REMARK  status: ('A' for Active; 'I' for Inactive)
REMARK    1  A    between atoms: C_2  and  O_3
REMARK    2  A    between atoms: C_2  and  C_4
REMARK    3  A    between atoms: C_4  and  C_5
REMARK    4  A    between atoms: C_5  and  C_6
REMARK    5  A    between atoms: C_5  and  C_27
REMARK    6  A    between atoms: C_6  and  C_7
REMARK    7  A    between atoms: C_11  and  C_13
REMARK    8  A    between atoms: C_13  and  C_14
REMARK    9  A    between atoms: C_14  and  C_15
REMARK                            x       y       z     vdW  Elec       q    Type
REMARK                         _______ _______ _______ _____ _____    ______ ____
ROOT
ATOM      1  C   UNL     1       0.959   8.191  19.652  0.00  0.00    +0.000 C 
ATOM      2  C   UNL     1       0.850   9.642  19.150  0.00  0.00    +0.000 C 
ATOM      3  C   UNL     1       1.434  10.668  20.124  0.00  0.00    +0.000 C 
ATOM      4  N   UNL     1       0.885  10.471  21.463  0.00  0.00    +0.000 N 
ATOM      5  C   UNL     1       0.016  11.331  22.119  0.00  0.00    +0.000 C 
ATOM      6  O   UNL     1      -0.424  11.083  23.242  0.00  0.00    +0.000 OA
ATOM      7  C   UNL     1       1.086   9.137  22.014  0.00  0.00    +0.000 C 
ATOM      8  C   UNL     1       0.394   8.128  21.096  0.00  0.00    +0.000 C 
ENDROOT
BRANCH   1   9
ATOM      9  C   UNL     1       2.377   7.573  19.643  0.00  0.00    +0.000 C 
BRANCH   9  10
ATOM     10  C   UNL     1       2.632   6.116  19.197  0.00  0.00    +0.000 C 
BRANCH  10  11
ATOM     11  C   UNL     1       4.027   5.921  18.616  0.00  0.00    +0.000 A 
ATOM     12  C   UNL     1       5.085   5.374  19.383  0.00  0.00    +0.000 A 
ATOM     13  C   UNL     1       6.316   5.064  18.802  0.00  0.00    +0.000 A 
ATOM     14  C   UNL     1       6.452   5.284  17.452  0.00  0.00    +0.000 A 
ATOM     15  C   UNL     1       5.446   5.850  16.704  0.00  0.00    +0.000 A 
ATOM     16  C   UNL     1       4.237   6.203  17.256  0.00  0.00    +0.000 A 
ATOM     17  O   UNL     1       5.771   5.940  15.386  0.00  0.00    +0.000 OA
ATOM     18  C   UNL     1       6.959   5.125  15.376  0.00  0.00    +0.000 C 
ATOM     19  O   UNL     1       7.523   4.936  16.688  0.00  0.00    +0.000 OA
ENDBRANCH  10  11
BRANCH  10  20
ATOM     20  C   UNL     1       2.314   4.951  20.151  0.00  0.00    +0.000 C 
BRANCH  20  22
ATOM     21  O   UNL     1       1.206   3.597  18.460  0.00  0.00    +0.000 OA
ATOM     22  C   UNL     1       1.331   3.936  19.623  0.00  0.00    +0.000 C 
BRANCH  22  23
ATOM     23  O   UNL     1       0.563   3.416  20.610  0.00  0.00    +0.000 OA
ATOM     24  H   UNL     1      -0.222   2.928  20.292  0.00  0.00    +0.000 HD
ENDBRANCH  22  23
ENDBRANCH  20  22
ENDBRANCH  10  20
ENDBRANCH   9  10
ENDBRANCH   1   9
BRANCH   5  25
ATOM     25  C   UNL     1      -0.403  12.579  21.371  0.00  0.00    +0.000 C 
BRANCH  25  26
ATOM     26  C   UNL     1      -1.918  12.751  21.422  0.00  0.00    +0.000 C 
BRANCH  26  27
ATOM     27  C   UNL     1      -2.640  12.354  20.159  0.00  0.00    +0.000 A 
ATOM     28  C   UNL     1      -4.015  12.553  20.098  0.00  0.00    +0.000 A 
ATOM     29  C   UNL     1      -4.693  12.194  18.944  0.00  0.00    +0.000 A 
ATOM     30  C   UNL     1      -3.979  11.663  17.873  0.00  0.00    +0.000 A 
ATOM     31  C   UNL     1      -2.600  11.483  18.014  0.00  0.00    +0.000 A 
ATOM     32  N   UNL     1      -1.934  11.816  19.136  0.00  0.00    +0.000 NA
ATOM     33  N   UNL     1      -1.834  10.995  16.963  0.00  0.00    +0.000 N 
ATOM     34  C   UNL     1      -2.517  10.182  15.979  0.00  0.00    +0.000 C 
ATOM     35  C   UNL     1      -3.742  10.933  15.475  0.00  0.00    +0.000 C 
ATOM     36  C   UNL     1      -4.697  11.208  16.632  0.00  0.00    +0.000 C 
ATOM     37  H   UNL     1      -0.923  10.708  17.300  0.00  0.00    +0.000 HD
ENDBRANCH  26  27
ENDBRANCH  25  26
ENDBRANCH   5  25
TORSDOF 9
ENDMDL
MODEL 3
REMARK VINA RESULT:      -8.2      1.855      2.687
REMARK  Name = 
REMARK  9 active torsions:
REMARK  status: ('A' for Active; 'I' for Inactive)
REMARK    1  A    between atoms: C_2  and  O_3
REMARK    2  A    between atoms: C_2  and  C_4
REMARK    3  A    between atoms: C_4  and  C_5
REMARK    4  A    between atoms: C_5  and  C_6
REMARK    5  A    between atoms: C_5  and  C_27
REMARK    6  A    between atoms: C_6  and  C_7
REMARK    7  A    between atoms: C_11  and  C_13
REMARK    8  A    between atoms: C_13  and  C_14
REMARK    9  A    between atoms: C_14  and  C_15
REMARK                            x       y       z     vdW  Elec       q    Type
REMARK                         _______ _______ _______ _____ _____    ______ ____
ROOT
ATOM      1  C   UNL     1       2.338   6.319  20.515  0.00  0.00    +0.000 C 
ATOM      2  C   UNL     1       2.568   6.066  19.013  0.00  0.00    +0.000 C 
ATOM      3  C   UNL     1       1.502   5.171  18.378  0.00  0.00    +0.000 C 
ATOM      4  N   UNL     1       1.332   3.947  19.157  0.00  0.00    +0.000 N 
ATOM      5  C   UNL     1       1.694   2.670  18.753  0.00  0.00    +0.000 C 
ATOM      6  O   UNL     1       1.540   1.686  19.478  0.00  0.00    +0.000 OA
ATOM      7  C   UNL     1       0.989   4.158  20.557  0.00  0.00    +0.000 C 
ATOM      8  C   UNL     1       2.120   4.950  21.215  0.00  0.00    +0.000 C 
ENDROOT
BRANCH   1   9
ATOM      9  C   UNL     1       1.162   7.257  20.874  0.00  0.00    +0.000 C 
BRANCH   9  10
ATOM     10  C   UNL     1       0.939   8.603  20.149  0.00  0.00    +0.000 C 
BRANCH  10  11
ATOM     11  C   UNL     1       0.202   9.616  21.016  0.00  0.00    +0.000 A 
ATOM     12  C   UNL     1      -0.344   9.263  22.275  0.00  0.00    +0.000 A 
ATOM     13  C   UNL     1      -0.887  10.229  23.124  0.00  0.00    +0.000 A 
ATOM     14  C   UNL     1      -0.846  11.537  22.704  0.00  0.00    +0.000 A 
ATOM     15  C   UNL     1      -0.354  11.888  21.468  0.00  0.00    +0.000 A 
ATOM     16  C   UNL     1       0.151  10.955  20.593  0.00  0.00    +0.000 A 
ATOM     17  O   UNL     1      -0.368  13.233  21.270  0.00  0.00    +0.000 OA
ATOM     18  C   UNL     1      -0.661  13.670  22.611  0.00  0.00    +0.000 C 
ATOM     19  O   UNL     1      -1.212  12.624  23.436  0.00  0.00    +0.000 OA
ENDBRANCH  10  11
BRANCH  10  20
ATOM     20  C   UNL     1       2.113   9.301  19.440  0.00  0.00    +0.000 C 
BRANCH  20  22
ATOM     21  O   UNL     1       1.688   8.626  17.142  0.00  0.00    +0.000 OA
ATOM     22  C   UNL     1       1.946   9.496  17.954  0.00  0.00    +0.000 C 
BRANCH  22  23
ATOM     23  O   UNL     1       2.121  10.789  17.591  0.00  0.00    +0.000 OA
ATOM     24  H   UNL     1       2.991  10.977  17.187  0.00  0.00    +0.000 HD
ENDBRANCH  22  23
ENDBRANCH  20  22
ENDBRANCH  10  20
ENDBRANCH   9  10
ENDBRANCH   1   9
BRANCH   5  25
ATOM     25  C   UNL     1       2.329   2.543  17.384  0.00  0.00    +0.000 C 
BRANCH  25  26
ATOM     26  C   UNL     1       3.816   2.227  17.510  0.00  0.00    +0.000 C 
BRANCH  26  27
ATOM     27  C   UNL     1       4.726   3.425  17.406  0.00  0.00    +0.000 A 
ATOM     28  C   UNL     1       4.749   4.130  16.207  0.00  0.00    +0.000 A 
ATOM     29  C   UNL     1       5.578   5.235  16.095  0.00  0.00    +0.000 A 
ATOM     30  C   UNL     1       6.350   5.619  17.189  0.00  0.00    +0.000 A 
ATOM     31  C   UNL     1       6.280   4.853  18.357  0.00  0.00    +0.000 A 
ATOM     32  N   UNL     1       5.488   3.771  18.471  0.00  0.00    +0.000 NA
ATOM     33  N   UNL     1       6.999   5.214  19.489  0.00  0.00    +0.000 N 
ATOM     34  C   UNL     1       8.190   6.010  19.282  0.00  0.00    +0.000 C 
ATOM     35  C   UNL     1       7.837   7.225  18.433  0.00  0.00    +0.000 C 
ATOM     36  C   UNL     1       7.304   6.776  17.076  0.00  0.00    +0.000 C 
ATOM     37  H   UNL     1       7.023   4.444  20.147  0.00  0.00    +0.000 HD
ENDBRANCH  26  27
ENDBRANCH  25  26
ENDBRANCH   5  25
TORSDOF 9
ENDMDL
MODEL 4
REMARK VINA RESULT:      -8.2      4.006     10.126
REMARK  Name = 
REMARK  9 active torsions:
REMARK  status: ('A' for Active; 'I' for Inactive)
REMARK    1  A    between atoms: C_2  and  O_3
REMARK    2  A    between atoms: C_2  and  C_4
REMARK    3  A    between atoms: C_4  and  C_5
REMARK    4  A    between atoms: C_5  and  C_6
REMARK    5  A    between atoms: C_5  and  C_27
REMARK    6  A    between atoms: C_6  and  C_7
REMARK    7  A    between atoms: C_11  and  C_13
REMARK    8  A    between atoms: C_13  and  C_14
REMARK    9  A    between atoms: C_14  and  C_15
REMARK                            x       y       z     vdW  Elec       q    Type
REMARK                         _______ _______ _______ _____ _____    ______ ____
ROOT
ATOM      1  C   UNL     1       2.224   7.602  19.682  0.00  0.00    +0.000 C 
ATOM      2  C   UNL     1       1.566   8.164  20.956  0.00  0.00    +0.000 C 
ATOM      3  C   UNL     1       0.221   8.845  20.696  0.00  0.00    +0.000 C 
ATOM      4  N   UNL     1       0.345   9.827  19.622  0.00  0.00    +0.000 N 
ATOM      5  C   UNL     1       0.262  11.205  19.768  0.00  0.00    +0.000 C 
ATOM      6  O   UNL     1       0.401  11.972  18.814  0.00  0.00    +0.000 OA
ATOM      7  C   UNL     1       0.849   9.294  18.363  0.00  0.00    +0.000 C 
ATOM      8  C   UNL     1       2.247   8.723  18.608  0.00  0.00    +0.000 C 
ENDROOT
BRANCH   1   9
ATOM      9  C   UNL     1       1.564   6.342  19.076  0.00  0.00    +0.000 C 
BRANCH   9  10
ATOM     10  C   UNL     1       2.073   4.918  19.395  0.00  0.00    +0.000 C 
BRANCH  10  11
ATOM     11  C   UNL     1       3.349   4.573  18.639  0.00  0.00    +0.000 A 
ATOM     12  C   UNL     1       3.338   4.274  17.254  0.00  0.00    +0.000 A 
ATOM     13  C   UNL     1       4.526   4.102  16.541  0.00  0.00    +0.000 A 
ATOM     14  C   UNL     1       5.706   4.262  17.228  0.00  0.00    +0.000 A 
ATOM     15  C   UNL     1       5.730   4.513  18.581  0.00  0.00    +0.000 A 
ATOM     16  C   UNL     1       4.577   4.647  19.317  0.00  0.00    +0.000 A 
ATOM     17  O   UNL     1       6.995   4.676  19.052  0.00  0.00    +0.000 OA
ATOM     18  C   UNL     1       7.707   4.768  17.803  0.00  0.00    +0.000 C 
ATOM     19  O   UNL     1       6.954   4.254  16.687  0.00  0.00    +0.000 OA
ENDBRANCH  10  11
BRANCH  10  20
ATOM     20  C   UNL     1       2.211   4.459  20.857  0.00  0.00    +0.000 C 
BRANCH  20  22
ATOM     21  O   UNL     1       1.576   2.542  22.214  0.00  0.00    +0.000 OA
ATOM     22  C   UNL     1       1.407   3.238  21.229  0.00  0.00    +0.000 C 
BRANCH  22  23
ATOM     23  O   UNL     1       0.437   2.975  20.321  0.00  0.00    +0.000 OA
ATOM     24  H   UNL     1       0.255   2.024  20.194  0.00  0.00    +0.000 HD
ENDBRANCH  22  23
ENDBRANCH  20  22
ENDBRANCH  10  20
ENDBRANCH   9  10
ENDBRANCH   1   9
BRANCH   5  25
ATOM     25  C   UNL     1       0.029  11.729  21.169  0.00  0.00    +0.000 C 
BRANCH  25  26
ATOM     26  C   UNL     1      -0.735  13.050  21.126  0.00  0.00    +0.000 C 
BRANCH  26  27
ATOM     27  C   UNL     1      -2.232  12.916  21.238  0.00  0.00    +0.000 A 
ATOM     28  C   UNL     1      -2.791  12.830  22.509  0.00  0.00    +0.000 A 
ATOM     29  C   UNL     1      -4.166  12.708  22.630  0.00  0.00    +0.000 A 
ATOM     30  C   UNL     1      -4.951  12.692  21.479  0.00  0.00    +0.000 A 
ATOM     31  C   UNL     1      -4.314  12.771  20.237  0.00  0.00    +0.000 A 
ATOM     32  N   UNL     1      -2.979  12.877  20.109  0.00  0.00    +0.000 NA
ATOM     33  N   UNL     1      -5.052  12.799  19.060  0.00  0.00    +0.000 N 
ATOM     34  C   UNL     1      -6.370  12.201  19.100  0.00  0.00    +0.000 C 
ATOM     35  C   UNL     1      -7.152  12.796  20.264  0.00  0.00    +0.000 C 
ATOM     36  C   UNL     1      -6.439  12.498  21.578  0.00  0.00    +0.000 C 
ATOM     37  H   UNL     1      -4.449  12.620  18.266  0.00  0.00    +0.000 HD
ENDBRANCH  26  27
ENDBRANCH  25  26
ENDBRANCH   5  25
TORSDOF 9
ENDMDL
MODEL 5
REMARK VINA RESULT:      -8.1      4.489     10.026
REMARK  Name = 
REMARK  9 active torsions:
REMARK  status: ('A' for Active; 'I' for Inactive)
REMARK    1  A    between atoms: C_2  and  O_3
REMARK    2  A    between atoms: C_2  and  C_4
REMARK    3  A    between atoms: C_4  and  C_5
REMARK    4  A    between atoms: C_5  and  C_6
REMARK    5  A    between atoms: C_5  and  C_27
REMARK    6  A    between atoms: C_6  and  C_7
REMARK    7  A    between atoms: C_11  and  C_13
REMARK    8  A    between atoms: C_13  and  C_14
REMARK    9  A    between atoms: C_14  and  C_15
REMARK                            x       y       z     vdW  Elec       q    Type
REMARK                         _______ _______ _______ _____ _____    ______ ____
ROOT
ATOM      1  C   UNL     1       2.463   7.959  18.629  0.00  0.00    +0.000 C 
ATOM      2  C   UNL     1       2.137   8.159  20.121  0.00  0.00    +0.000 C 
ATOM      3  C   UNL     1       0.705   8.635  20.371  0.00  0.00    +0.000 C 
ATOM      4  N   UNL     1       0.402   9.801  19.545  0.00  0.00    +0.000 N 
ATOM      5  C   UNL     1       0.206  11.095  20.008  0.00  0.00    +0.000 C 
ATOM      6  O   UNL     1      -0.023  12.034  19.245  0.00  0.00    +0.000 OA
ATOM      7  C   UNL     1       0.583   9.599  18.114  0.00  0.00    +0.000 C 
ATOM      8  C   UNL     1       2.049   9.242  17.860  0.00  0.00    +0.000 C 
ENDROOT
BRANCH   1   9
ATOM      9  C   UNL     1       1.808   6.734  17.949  0.00  0.00    +0.000 C 
BRANCH   9  10
ATOM     10  C   UNL     1       2.222   5.287  18.296  0.00  0.00    +0.000 C 
BRANCH  10  11
ATOM     11  C   UNL     1       3.715   5.048  18.108  0.00  0.00    +0.000 A 
ATOM     12  C   UNL     1       4.271   4.762  16.837  0.00  0.00    +0.000 A 
ATOM     13  C   UNL     1       5.653   4.688  16.651  0.00  0.00    +0.000 A 
ATOM     14  C   UNL     1       6.453   4.932  17.742  0.00  0.00    +0.000 A 
ATOM     15  C   UNL     1       5.925   5.172  18.990  0.00  0.00    +0.000 A 
ATOM     16  C   UNL     1       4.568   5.210  19.212  0.00  0.00    +0.000 A 
ATOM     17  O   UNL     1       6.887   5.427  19.916  0.00  0.00    +0.000 OA
ATOM     18  C   UNL     1       8.023   5.585  19.045  0.00  0.00    +0.000 C 
ATOM     19  O   UNL     1       7.810   5.025  17.734  0.00  0.00    +0.000 OA
ENDBRANCH  10  11
BRANCH  10  20
ATOM     20  C   UNL     1       1.770   4.653  19.623  0.00  0.00    +0.000 C 
BRANCH  20  22
ATOM     21  O   UNL     1       0.784   2.760  18.457  0.00  0.00    +0.000 OA
ATOM     22  C   UNL     1       1.010   3.357  19.494  0.00  0.00    +0.000 C 
BRANCH  22  23
ATOM     23  O   UNL     1       0.579   2.902  20.694  0.00  0.00    +0.000 OA
ATOM     24  H   UNL     1      -0.066   2.170  20.637  0.00  0.00    +0.000 HD
ENDBRANCH  22  23
ENDBRANCH  20  22
ENDBRANCH  10  20
ENDBRANCH   9  10
ENDBRANCH   1   9
BRANCH   5  25
ATOM     25  C   UNL     1       0.323  11.310  21.502  0.00  0.00    +0.000 C 
BRANCH  25  26
ATOM     26  C   UNL     1      -1.002  11.004  22.194  0.00  0.00    +0.000 C 
BRANCH  26  27
ATOM     27  C   UNL     1      -1.624  12.175  22.910  0.00  0.00    +0.000 A 
ATOM     28  C   UNL     1      -2.937  12.052  23.354  0.00  0.00    +0.000 A 
ATOM     29  C   UNL     1      -3.523  13.120  24.016  0.00  0.00    +0.000 A 
ATOM     30  C   UNL     1      -2.778  14.277  24.233  0.00  0.00    +0.000 A 
ATOM     31  C   UNL     1      -1.468  14.328  23.747  0.00  0.00    +0.000 A 
ATOM     32  N   UNL     1      -0.894  13.302  23.092  0.00  0.00    +0.000 NA
ATOM     33  N   UNL     1      -0.669  15.442  23.971  0.00  0.00    +0.000 N 
ATOM     34  C   UNL     1      -1.349  16.700  24.197  0.00  0.00    +0.000 C 
ATOM     35  C   UNL     1      -2.378  16.519  25.305  0.00  0.00    +0.000 C 
ATOM     36  C   UNL     1      -3.408  15.472  24.894  0.00  0.00    +0.000 C 
ATOM     37  H   UNL     1       0.142  15.416  23.365  0.00  0.00    +0.000 HD
ENDBRANCH  26  27
ENDBRANCH  25  26
ENDBRANCH   5  25
TORSDOF 9
ENDMDL
MODEL 6
REMARK VINA RESULT:      -8.1      3.406      8.264
REMARK  Name = 
REMARK  9 active torsions:
REMARK  status: ('A' for Active; 'I' for Inactive)
REMARK    1  A    between atoms: C_2  and  O_3
REMARK    2  A    between atoms: C_2  and  C_4
REMARK    3  A    between atoms: C_4  and  C_5
REMARK    4  A    between atoms: C_5  and  C_6
REMARK    5  A    between atoms: C_5  and  C_27
REMARK    6  A    between atoms: C_6  and  C_7
REMARK    7  A    between atoms: C_11  and  C_13
REMARK    8  A    between atoms: C_13  and  C_14
REMARK    9  A    between atoms: C_14  and  C_15
REMARK                            x       y       z     vdW  Elec       q    Type
REMARK                         _______ _______ _______ _____ _____    ______ ____
ROOT
ATOM      1  C   UNL     1       3.583   3.025  17.091  0.00  0.00    +0.000 C 
ATOM      2  C   UNL     1       2.897   4.399  17.208  0.00  0.00    +0.000 C 
ATOM      3  C   UNL     1       3.362   5.208  18.422  0.00  0.00    +0.000 C 
ATOM      4  N   UNL     1       3.270   4.403  19.637  0.00  0.00    +0.000 N 
ATOM      5  C   UNL     1       2.376   4.605  20.679  0.00  0.00    +0.000 C 
ATOM      6  O   UNL     1       2.343   3.867  21.665  0.00  0.00    +0.000 OA
ATOM      7  C   UNL     1       4.014   3.151  19.598  0.00  0.00    +0.000 C 
ATOM      8  C   UNL     1       3.461   2.297  18.456  0.00  0.00    +0.000 C 
ENDROOT
BRANCH   1   9
ATOM      9  C   UNL     1       5.069   3.041  16.664  0.00  0.00    +0.000 C 
BRANCH   9  10
ATOM     10  C   UNL     1       5.696   4.247  15.929  0.00  0.00    +0.000 C 
BRANCH  10  11
ATOM     11  C   UNL     1       6.390   5.213  16.880  0.00  0.00    +0.000 A 
ATOM     12  C   UNL     1       7.206   4.755  17.944  0.00  0.00    +0.000 A 
ATOM     13  C   UNL     1       7.952   5.646  18.719  0.00  0.00    +0.000 A 
ATOM     14  C   UNL     1       7.886   6.979  18.392  0.00  0.00    +0.000 A 
ATOM     15  C   UNL     1       7.067   7.440  17.386  0.00  0.00    +0.000 A 
ATOM     16  C   UNL     1       6.291   6.592  16.633  0.00  0.00    +0.000 A 
ATOM     17  O   UNL     1       7.185   8.782  17.201  0.00  0.00    +0.000 OA
ATOM     18  C   UNL     1       8.351   9.035  18.008  0.00  0.00    +0.000 C 
ATOM     19  O   UNL     1       8.627   7.976  18.946  0.00  0.00    +0.000 OA
ENDBRANCH  10  11
BRANCH  10  20
ATOM     20  C   UNL     1       6.591   4.018  14.698  0.00  0.00    +0.000 C 
BRANCH  20  22
ATOM     21  O   UNL     1       4.718   4.025  13.145  0.00  0.00    +0.000 OA
ATOM     22  C   UNL     1       5.860   3.700  13.418  0.00  0.00    +0.000 C 
BRANCH  22  23
ATOM     23  O   UNL     1       6.626   2.983  12.562  0.00  0.00    +0.000 OA
ATOM     24  H   UNL     1       6.468   3.183  11.619  0.00  0.00    +0.000 HD
ENDBRANCH  22  23
ENDBRANCH  20  22
ENDBRANCH  10  20
ENDBRANCH   9  10
ENDBRANCH   1   9
BRANCH   5  25
ATOM     25  C   UNL     1       1.408   5.761  20.533  0.00  0.00    +0.000 C 
BRANCH  25  26
ATOM     26  C   UNL     1       2.165   7.079  20.400  0.00  0.00    +0.000 C 
BRANCH  26  27
ATOM     27  C   UNL     1       1.305   8.313  20.515  0.00  0.00    +0.000 A 
ATOM     28  C   UNL     1       0.733   8.602  21.749  0.00  0.00    +0.000 A 
ATOM     29  C   UNL     1      -0.059   9.733  21.872  0.00  0.00    +0.000 A 
ATOM     30  C   UNL     1      -0.245  10.556  20.763  0.00  0.00    +0.000 A 
ATOM     31  C   UNL     1       0.355  10.192  19.554  0.00  0.00    +0.000 A 
ATOM     32  N   UNL     1       1.114   9.089  19.421  0.00  0.00    +0.000 NA
ATOM     33  N   UNL     1       0.234  10.998  18.429  0.00  0.00    +0.000 N 
ATOM     34  C   UNL     1      -0.923  11.867  18.368  0.00  0.00    +0.000 C 
ATOM     35  C   UNL     1      -1.001  12.684  19.651  0.00  0.00    +0.000 C 
ATOM     36  C   UNL     1      -1.148  11.755  20.852  0.00  0.00    +0.000 C 
ATOM     37  H   UNL     1       0.515  10.486  17.602  0.00  0.00    +0.000 HD
ENDBRANCH  26  27
ENDBRANCH  25  26
ENDBRANCH   5  25
TORSDOF 9
ENDMDL
MODEL 7
REMARK VINA RESULT:      -8.1      3.511      9.265
REMARK  Name = 
REMARK  9 active torsions:
REMARK  status: ('A' for Active; 'I' for Inactive)
REMARK    1  A    between atoms: C_2  and  O_3
REMARK    2  A    between atoms: C_2  and  C_4
REMARK    3  A    between atoms: C_4  and  C_5
REMARK    4  A    between atoms: C_5  and  C_6
REMARK    5  A    between atoms: C_5  and  C_27
REMARK    6  A    between atoms: C_6  and  C_7
REMARK    7  A    between atoms: C_11  and  C_13
REMARK    8  A    between atoms: C_13  and  C_14
REMARK    9  A    between atoms: C_14  and  C_15
REMARK                            x       y       z     vdW  Elec       q    Type
REMARK                         _______ _______ _______ _____ _____    ______ ____
ROOT
ATOM      1  C   UNL     1       0.735   8.700  19.635  0.00  0.00    +0.000 C 
ATOM      2  C   UNL     1       0.652  10.153  19.131  0.00  0.00    +0.000 C 
ATOM      3  C   UNL     1       1.215  11.174  20.123  0.00  0.00    +0.000 C 
ATOM      4  N   UNL     1       0.625  10.979  21.445  0.00  0.00    +0.000 N 
ATOM      5  C   UNL     1      -0.256  11.845  22.076  0.00  0.00    +0.000 C 
ATOM      6  O   UNL     1      -0.731  11.600  23.186  0.00  0.00    +0.000 OA
ATOM      7  C   UNL     1       0.800   9.643  22.001  0.00  0.00    +0.000 C 
ATOM      8  C   UNL     1       0.127   8.640  21.062  0.00  0.00    +0.000 C 
ENDROOT
BRANCH   1   9
ATOM      9  C   UNL     1       2.148   8.072  19.667  0.00  0.00    +0.000 C 
BRANCH   9  10
ATOM     10  C   UNL     1       2.370   6.549  19.534  0.00  0.00    +0.000 C 
BRANCH  10  11
ATOM     11  C   UNL     1       3.567   6.209  18.655  0.00  0.00    +0.000 A 
ATOM     12  C   UNL     1       3.855   6.936  17.473  0.00  0.00    +0.000 A 
ATOM     13  C   UNL     1       5.031   6.713  16.755  0.00  0.00    +0.000 A 
ATOM     14  C   UNL     1       5.911   5.782  17.254  0.00  0.00    +0.000 A 
ATOM     15  C   UNL     1       5.625   5.043  18.379  0.00  0.00    +0.000 A 
ATOM     16  C   UNL     1       4.457   5.211  19.084  0.00  0.00    +0.000 A 
ATOM     17  O   UNL     1       6.646   4.212  18.722  0.00  0.00    +0.000 OA
ATOM     18  C   UNL     1       7.675   4.723  17.854  0.00  0.00    +0.000 C 
ATOM     19  O   UNL     1       7.153   5.514  16.768  0.00  0.00    +0.000 OA
ENDBRANCH  10  11
BRANCH  10  20
ATOM     20  C   UNL     1       2.396   5.661  20.790  0.00  0.00    +0.000 C 
BRANCH  20  22
ATOM     21  O   UNL     1       0.725   4.148  19.873  0.00  0.00    +0.000 OA
ATOM     22  C   UNL     1       1.585   4.392  20.701  0.00  0.00    +0.000 C 
BRANCH  22  23
ATOM     23  O   UNL     1       1.916   3.511  21.674  0.00  0.00    +0.000 OA
ATOM     24  H   UNL     1       2.802   3.113  21.570  0.00  0.00    +0.000 HD
ENDBRANCH  22  23
ENDBRANCH  20  22
ENDBRANCH  10  20
ENDBRANCH   9  10
ENDBRANCH   1   9
BRANCH   5  25
ATOM     25  C   UNL     1      -0.643  13.097  21.318  0.00  0.00    +0.000 C 
BRANCH  25  26
ATOM     26  C   UNL     1      -2.160  13.264  21.297  0.00  0.00    +0.000 C 
BRANCH  26  27
ATOM     27  C   UNL     1      -2.843  12.666  20.093  0.00  0.00    +0.000 A 
ATOM     28  C   UNL     1      -4.225  12.518  20.129  0.00  0.00    +0.000 A 
ATOM     29  C   UNL     1      -4.869  11.971  19.029  0.00  0.00    +0.000 A 
ATOM     30  C   UNL     1      -4.118  11.604  17.915  0.00  0.00    +0.000 A 
ATOM     31  C   UNL     1      -2.731  11.774  17.960  0.00  0.00    +0.000 A 
ATOM     32  N   UNL     1      -2.095  12.291  19.028  0.00  0.00    +0.000 NA
ATOM     33  N   UNL     1      -1.940  11.461  16.862  0.00  0.00    +0.000 N 
ATOM     34  C   UNL     1      -2.463  10.478  15.937  0.00  0.00    +0.000 C 
ATOM     35  C   UNL     1      -3.868  10.889  15.515  0.00  0.00    +0.000 C 
ATOM     36  C   UNL     1      -4.782  10.952  16.734  0.00  0.00    +0.000 C 
ATOM     37  H   UNL     1      -0.965  11.417  17.136  0.00  0.00    +0.000 HD
ENDBRANCH  26  27
ENDBRANCH  25  26
ENDBRANCH   5  25
TORSDOF 9
ENDMDL
MODEL 8
REMARK VINA RESULT:      -8.1      1.952      2.928
REMARK  Name = 
REMARK  9 active torsions:
REMARK  status: ('A' for Active; 'I' for Inactive)
REMARK    1  A    between atoms: C_2  and  O_3
REMARK    2  A    between atoms: C_2  and  C_4
REMARK    3  A    between atoms: C_4  and  C_5
REMARK    4  A    between atoms: C_5  and  C_6
REMARK    5  A    between atoms: C_5  and  C_27
REMARK    6  A    between atoms: C_6  and  C_7
REMARK    7  A    between atoms: C_11  and  C_13
REMARK    8  A    between atoms: C_13  and  C_14
REMARK    9  A    between atoms: C_14  and  C_15
REMARK                            x       y       z     vdW  Elec       q    Type
REMARK                         _______ _______ _______ _____ _____    ______ ____
ROOT
ATOM      1  C   UNL     1       2.440   7.484  19.094  0.00  0.00    +0.000 C 
ATOM      2  C   UNL     1       2.302   6.623  17.824  0.00  0.00    +0.000 C 
ATOM      3  C   UNL     1       1.279   5.493  17.964  0.00  0.00    +0.000 C 
ATOM      4  N   UNL     1       1.541   4.715  19.172  0.00  0.00    +0.000 N 
ATOM      5  C   UNL     1       2.001   3.406  19.211  0.00  0.00    +0.000 C 
ATOM      6  O   UNL     1       2.221   2.822  20.273  0.00  0.00    +0.000 OA
ATOM      7  C   UNL     1       1.552   5.489  20.407  0.00  0.00    +0.000 C 
ATOM      8  C   UNL     1       2.660   6.539  20.306  0.00  0.00    +0.000 C 
ENDROOT
BRANCH   1   9
ATOM      9  C   UNL     1       1.256   8.429  19.405  0.00  0.00    +0.000 C 
BRANCH   9  10
ATOM     10  C   UNL     1       1.115   9.813  18.732  0.00  0.00    +0.000 C 
BRANCH  10  11
ATOM     11  C   UNL     1      -0.332  10.151  18.395  0.00  0.00    +0.000 A 
ATOM     12  C   UNL     1      -1.080  11.076  19.165  0.00  0.00    +0.000 A 
ATOM     13  C   UNL     1      -2.353  11.489  18.765  0.00  0.00    +0.000 A 
ATOM     14  C   UNL     1      -2.839  10.985  17.582  0.00  0.00    +0.000 A 
ATOM     15  C   UNL     1      -2.139  10.057  16.846  0.00  0.00    +0.000 A 
ATOM     16  C   UNL     1      -0.901   9.601  17.235  0.00  0.00    +0.000 A 
ATOM     17  O   UNL     1      -2.779   9.724  15.693  0.00  0.00    +0.000 OA
ATOM     18  C   UNL     1      -3.797  10.743  15.680  0.00  0.00    +0.000 C 
ATOM     19  O   UNL     1      -3.995  11.357  16.969  0.00  0.00    +0.000 OA
ENDBRANCH  10  11
BRANCH  10  20
ATOM     20  C   UNL     1       1.791  11.046  19.356  0.00  0.00    +0.000 C 
BRANCH  20  22
ATOM     21  O   UNL     1       2.586  13.214  18.588  0.00  0.00    +0.000 OA
ATOM     22  C   UNL     1       2.361  12.036  18.372  0.00  0.00    +0.000 C 
BRANCH  22  23
ATOM     23  O   UNL     1       2.608  11.468  17.168  0.00  0.00    +0.000 OA
ATOM     24  H   UNL     1       3.317  11.904  16.657  0.00  0.00    +0.000 HD
ENDBRANCH  22  23
ENDBRANCH  20  22
ENDBRANCH  10  20
ENDBRANCH   9  10
ENDBRANCH   1   9
BRANCH   5  25
ATOM     25  C   UNL     1       2.260   2.735  17.879  0.00  0.00    +0.000 C 
BRANCH  25  26
ATOM     26  C   UNL     1       3.733   2.360  17.746  0.00  0.00    +0.000 C 
BRANCH  26  27
ATOM     27  C   UNL     1       4.667   3.531  17.574  0.00  0.00    +0.000 A 
ATOM     28  C   UNL     1       4.681   4.186  16.347  0.00  0.00    +0.000 A 
ATOM     29  C   UNL     1       5.533   5.265  16.173  0.00  0.00    +0.000 A 
ATOM     30  C   UNL     1       6.337   5.675  17.234  0.00  0.00    +0.000 A 
ATOM     31  C   UNL     1       6.274   4.959  18.433  0.00  0.00    +0.000 A 
ATOM     32  N   UNL     1       5.460   3.902  18.608  0.00  0.00    +0.000 NA
ATOM     33  N   UNL     1       7.024   5.350  19.535  0.00  0.00    +0.000 N 
ATOM     34  C   UNL     1       8.229   6.108  19.271  0.00  0.00    +0.000 C 
ATOM     35  C   UNL     1       7.886   7.295  18.380  0.00  0.00    +0.000 C 
ATOM     36  C   UNL     1       7.315   6.803  17.054  0.00  0.00    +0.000 C 
ATOM     37  H   UNL     1       7.045   4.607  20.224  0.00  0.00    +0.000 HD
ENDBRANCH  26  27
ENDBRANCH  25  26
ENDBRANCH   5  25
TORSDOF 9
ENDMDL
MODEL 9
REMARK VINA RESULT:      -8.0      4.092      9.976
REMARK  Name = 
REMARK  9 active torsions:
REMARK  status: ('A' for Active; 'I' for Inactive)
REMARK    1  A    between atoms: C_2  and  O_3
REMARK    2  A    between atoms: C_2  and  C_4
REMARK    3  A    between atoms: C_4  and  C_5
REMARK    4  A    between atoms: C_5  and  C_6
REMARK    5  A    between atoms: C_5  and  C_27
REMARK    6  A    between atoms: C_6  and  C_7
REMARK    7  A    between atoms: C_11  and  C_13
REMARK    8  A    between atoms: C_13  and  C_14
REMARK    9  A    between atoms: C_14  and  C_15
REMARK                            x       y       z     vdW  Elec       q    Type
REMARK                         _______ _______ _______ _____ _____    ______ ____
ROOT
ATOM      1  C   UNL     1       0.383   8.172  20.424  0.00  0.00    +0.000 C 
ATOM      2  C   UNL     1       0.456   9.574  19.791  0.00  0.00    +0.000 C 
ATOM      3  C   UNL     1       0.991  10.644  20.745  0.00  0.00    +0.000 C 
ATOM      4  N   UNL     1       0.260  10.612  22.009  0.00  0.00    +0.000 N 
ATOM      5  C   UNL     1      -0.614  11.587  22.467  0.00  0.00    +0.000 C 
ATOM      6  O   UNL     1      -1.213  11.478  23.537  0.00  0.00    +0.000 OA
ATOM      7  C   UNL     1       0.281   9.325  22.693  0.00  0.00    +0.000 C 
ATOM      8  C   UNL     1      -0.367   8.284  21.778  0.00  0.00    +0.000 C 
ENDROOT
BRANCH   1   9
ATOM      9  C   UNL     1       1.735   7.460  20.659  0.00  0.00    +0.000 C 
BRANCH   9  10
ATOM     10  C   UNL     1       2.028   6.052  20.094  0.00  0.00    +0.000 C 
BRANCH  10  11
ATOM     11  C   UNL     1       3.248   6.033  19.181  0.00  0.00    +0.000 A 
ATOM     12  C   UNL     1       3.283   6.763  17.967  0.00  0.00    +0.000 A 
ATOM     13  C   UNL     1       4.453   6.857  17.212  0.00  0.00    +0.000 A 
ATOM     14  C   UNL     1       5.577   6.237  17.705  0.00  0.00    +0.000 A 
ATOM     15  C   UNL     1       5.546   5.493  18.863  0.00  0.00    +0.000 A 
ATOM     16  C   UNL     1       4.399   5.349  19.606  0.00  0.00    +0.000 A 
ATOM     17  O   UNL     1       6.771   5.003  19.192  0.00  0.00    +0.000 OA
ATOM     18  C   UNL     1       7.586   5.751  18.270  0.00  0.00    +0.000 C 
ATOM     19  O   UNL     1       6.829   6.315  17.181  0.00  0.00    +0.000 OA
ENDBRANCH  10  11
BRANCH  10  20
ATOM     20  C   UNL     1       2.084   4.839  21.039  0.00  0.00    +0.000 C 
BRANCH  20  22
ATOM     21  O   UNL     1       2.342   2.587  20.153  0.00  0.00    +0.000 OA
ATOM     22  C   UNL     1       1.628   3.532  20.439  0.00  0.00    +0.000 C 
BRANCH  22  23
ATOM     23  O   UNL     1       0.290   3.509  20.235  0.00  0.00    +0.000 OA
ATOM     24  H   UNL     1      -0.091   2.611  20.179  0.00  0.00    +0.000 HD
ENDBRANCH  22  23
ENDBRANCH  20  22
ENDBRANCH  10  20
ENDBRANCH   9  10
ENDBRANCH   1   9
BRANCH   5  25
ATOM     25  C   UNL     1      -0.830  12.785  21.566  0.00  0.00    +0.000 C 
BRANCH  25  26
ATOM     26  C   UNL     1      -2.067  13.566  22.002  0.00  0.00    +0.000 C 
BRANCH  26  27
ATOM     27  C   UNL     1      -3.356  13.110  21.367  0.00  0.00    +0.000 A 
ATOM     28  C   UNL     1      -4.491  13.031  22.167  0.00  0.00    +0.000 A 
ATOM     29  C   UNL     1      -5.684  12.615  21.598  0.00  0.00    +0.000 A 
ATOM     30  C   UNL     1      -5.718  12.305  20.241  0.00  0.00    +0.000 A 
ATOM     31  C   UNL     1      -4.533  12.398  19.505  0.00  0.00    +0.000 A 
ATOM     32  N   UNL     1      -3.366  12.788  20.051  0.00  0.00    +0.000 NA
ATOM     33  N   UNL     1      -4.520  12.139  18.140  0.00  0.00    +0.000 N 
ATOM     34  C   UNL     1      -5.557  11.266  17.630  0.00  0.00    +0.000 C 
ATOM     35  C   UNL     1      -6.914  11.785  18.088  0.00  0.00    +0.000 C 
ATOM     36  C   UNL     1      -6.984  11.792  19.611  0.00  0.00    +0.000 C 
ATOM     37  H   UNL     1      -3.568  12.020  17.817  0.00  0.00    +0.000 HD
ENDBRANCH  26  27
ENDBRANCH  25  26
ENDBRANCH   5  25
TORSDOF 9
ENDMDL
