MODEL 1
REMARK VINA RESULT:      -9.2      0.000      0.000
REMARK  Name = 
REMARK  7 active torsions:
REMARK  status: ('A' for Active; 'I' for Inactive)
REMARK    1  A    between atoms: C_1  and  C_2
REMARK    2  A    between atoms: C_5  and  C_6
REMARK    3  A    between atoms: C_6  and  C_7
REMARK    4  A    between atoms: C_7  and  N_8
REMARK    5  A    between atoms: N_8  and  S_9
REMARK    6  A    between atoms: S_9  and  C_12
REMARK    7  A    between atoms: C_17  and  C_18
REMARK                            x       y       z     vdW  Elec       q    Type
REMARK                         _______ _______ _______ _____ _____    ______ ____
ROOT
ATOM      1  S   UNL     1       7.359   5.218  18.225  0.00  0.00    +0.000 S 
ATOM      2  O   UNL     1       8.022   4.451  17.188  0.00  0.00    +0.000 OA
ATOM      3  O   UNL     1       7.901   5.262  19.567  0.00  0.00    +0.000 OA
ENDROOT
BRANCH   1   4
ATOM      4  C   UNL     1       5.688   4.593  18.321  0.00  0.00    +0.000 A 
ATOM      5  C   UNL     1       5.137   4.016  19.475  0.00  0.00    +0.000 A 
ATOM      6  C   UNL     1       3.759   3.734  19.506  0.00  0.00    +0.000 A 
ATOM      7  C   UNL     1       2.944   4.196  18.462  0.00  0.00    +0.000 A 
ATOM      8  C   UNL     1       3.495   4.677  17.289  0.00  0.00    +0.000 A 
ATOM      9  C   UNL     1       4.883   4.798  17.178  0.00  0.00    +0.000 A 
ATOM     10  C   UNL     1       5.429   5.132  15.821  0.00  0.00    +0.000 C 
ATOM     11  N   UNL     1       1.545   4.117  18.569  0.00  0.00    +0.000 N 
ATOM     12  C   UNL     1       1.145   2.855  18.983  0.00  0.00    +0.000 C 
ATOM     13  O   UNL     1       0.221   2.251  18.469  0.00  0.00    +0.000 OA
ATOM     14  C   UNL     1       1.978   2.341  20.170  0.00  0.00    +0.000 C 
ATOM     15  O   UNL     1       3.192   3.038  20.538  0.00  0.00    +0.000 OA
ATOM     16  H   UNL     1       1.303   4.728  19.358  0.00  0.00    +0.000 HD
ENDBRANCH   1   4
BRANCH   1  17
ATOM     17  N   UNL     1       7.364   6.794  17.653  0.00  0.00    +0.000 NA
ATOM     18  H   UNL     1       7.519   6.748  16.645  0.00  0.00    +0.000 HD
BRANCH  17  19
ATOM     19  C   UNL     1       8.256   7.758  18.365  0.00  0.00    +0.000 C 
BRANCH  19  20
ATOM     20  C   UNL     1       8.010   9.180  17.870  0.00  0.00    +0.000 C 
BRANCH  20  25
ATOM     21  C   UNL     1      11.969  12.889  19.996  0.00  0.00    +0.000 C 
ATOM     22  C   UNL     1      10.945  11.932  19.459  0.00  0.00    +0.000 A 
ATOM     23  C   UNL     1      10.117  11.205  20.321  0.00  0.00    +0.000 A 
ATOM     24  C   UNL     1       9.176  10.307  19.811  0.00  0.00    +0.000 A 
ATOM     25  C   UNL     1       9.051  10.119  18.429  0.00  0.00    +0.000 A 
ATOM     26  C   UNL     1       9.872  10.856  17.567  0.00  0.00    +0.000 A 
ATOM     27  C   UNL     1      10.811  11.753  18.078  0.00  0.00    +0.000 A 
ENDBRANCH  20  25
ENDBRANCH  19  20
ENDBRANCH  17  19
ENDBRANCH   1  17
TORSDOF 5
ENDMDL
MODEL 2
REMARK VINA RESULT:      -8.6      4.589      7.439
REMARK  Name = 
REMARK  7 active torsions:
REMARK  status: ('A' for Active; 'I' for Inactive)
REMARK    1  A    between atoms: C_1  and  C_2
REMARK    2  A    between atoms: C_5  and  C_6
REMARK    3  A    between atoms: C_6  and  C_7
REMARK    4  A    between atoms: C_7  and  N_8
REMARK    5  A    between atoms: N_8  and  S_9
REMARK    6  A    between atoms: S_9  and  C_12
REMARK    7  A    between atoms: C_17  and  C_18
REMARK                            x       y       z     vdW  Elec       q    Type
REMARK                         _______ _______ _______ _____ _____    ______ ____
ROOT
ATOM      1  S   UNL     1       1.888   4.018  20.441  0.00  0.00    +0.000 S 
ATOM      2  O   UNL     1       2.539   3.792  21.717  0.00  0.00    +0.000 OA
ATOM      3  O   UNL     1       0.935   3.060  19.922  0.00  0.00    +0.000 OA
ENDROOT
BRANCH   1   4
ATOM      4  C   UNL     1       3.194   4.212  19.238  0.00  0.00    +0.000 A 
ATOM      5  C   UNL     1       4.557   4.246  19.566  0.00  0.00    +0.000 A 
ATOM      6  C   UNL     1       5.511   4.206  18.531  0.00  0.00    +0.000 A 
ATOM      7  C   UNL     1       5.082   3.956  17.219  0.00  0.00    +0.000 A 
ATOM      8  C   UNL     1       3.742   4.017  16.883  0.00  0.00    +0.000 A 
ATOM      9  C   UNL     1       2.790   4.233  17.883  0.00  0.00    +0.000 A 
ATOM     10  C   UNL     1       1.382   4.490  17.436  0.00  0.00    +0.000 C 
ATOM     11  N   UNL     1       6.022   3.701  16.206  0.00  0.00    +0.000 N 
ATOM     12  C   UNL     1       7.042   4.641  16.220  0.00  0.00    +0.000 C 
ATOM     13  O   UNL     1       7.466   5.175  15.210  0.00  0.00    +0.000 OA
ATOM     14  C   UNL     1       7.579   4.896  17.639  0.00  0.00    +0.000 C 
ATOM     15  O   UNL     1       6.843   4.386  18.776  0.00  0.00    +0.000 OA
ATOM     16  H   UNL     1       6.483   2.827  16.484  0.00  0.00    +0.000 HD
ENDBRANCH   1   4
BRANCH   1  17
ATOM     17  N   UNL     1       1.056   5.461  20.642  0.00  0.00    +0.000 NA
ATOM     18  H   UNL     1       0.505   5.610  19.796  0.00  0.00    +0.000 HD
BRANCH  17  19
ATOM     19  C   UNL     1       1.866   6.644  21.060  0.00  0.00    +0.000 C 
BRANCH  19  20
ATOM     20  C   UNL     1       1.588   7.834  20.147  0.00  0.00    +0.000 C 
BRANCH  20  25
ATOM     21  C   UNL     1      -1.510  11.881  22.969  0.00  0.00    +0.000 C 
ATOM     22  C   UNL     1      -0.711  10.833  22.252  0.00  0.00    +0.000 A 
ATOM     23  C   UNL     1      -0.067   9.810  22.957  0.00  0.00    +0.000 A 
ATOM     24  C   UNL     1       0.685   8.847  22.280  0.00  0.00    +0.000 A 
ATOM     25  C   UNL     1       0.809   8.894  20.886  0.00  0.00    +0.000 A 
ATOM     26  C   UNL     1       0.154   9.910  20.180  0.00  0.00    +0.000 A 
ATOM     27  C   UNL     1      -0.597  10.871  20.858  0.00  0.00    +0.000 A 
ENDBRANCH  20  25
ENDBRANCH  19  20
ENDBRANCH  17  19
ENDBRANCH   1  17
TORSDOF 5
ENDMDL
MODEL 3
REMARK VINA RESULT:      -8.6      4.382      6.853
REMARK  Name = 
REMARK  7 active torsions:
REMARK  status: ('A' for Active; 'I' for Inactive)
REMARK    1  A    between atoms: C_1  and  C_2
REMARK    2  A    between atoms: C_5  and  C_6
REMARK    3  A    between atoms: C_6  and  C_7
REMARK    4  A    between atoms: C_7  and  N_8
REMARK    5  A    between atoms: N_8  and  S_9
REMARK    6  A    between atoms: S_9  and  C_12
REMARK    7  A    between atoms: C_17  and  C_18
REMARK                            x       y       z     vdW  Elec       q    Type
REMARK                         _______ _______ _______ _____ _____    ______ ____
ROOT
ATOM      1  S   UNL     1       1.989   3.421  20.315  0.00  0.00    +0.000 S 
ATOM      2  O   UNL     1       2.645   3.321  21.603  0.00  0.00    +0.000 OA
ATOM      3  O   UNL     1       1.211   2.315  19.797  0.00  0.00    +0.000 OA
ENDROOT
BRANCH   1   4
ATOM      4  C   UNL     1       3.268   3.805  19.128  0.00  0.00    +0.000 A 
ATOM      5  C   UNL     1       4.630   3.893  19.452  0.00  0.00    +0.000 A 
ATOM      6  C   UNL     1       5.574   4.008  18.414  0.00  0.00    +0.000 A 
ATOM      7  C   UNL     1       5.148   3.852  17.086  0.00  0.00    +0.000 A 
ATOM      8  C   UNL     1       3.804   3.860  16.763  0.00  0.00    +0.000 A 
ATOM      9  C   UNL     1       2.851   3.924  17.783  0.00  0.00    +0.000 A 
ATOM     10  C   UNL     1       1.425   4.132  17.367  0.00  0.00    +0.000 C 
ATOM     11  N   UNL     1       6.092   3.749  16.050  0.00  0.00    +0.000 N 
ATOM     12  C   UNL     1       7.052   4.745  16.145  0.00  0.00    +0.000 C 
ATOM     13  O   UNL     1       7.432   5.394  15.187  0.00  0.00    +0.000 OA
ATOM     14  C   UNL     1       7.587   4.903  17.579  0.00  0.00    +0.000 C 
ATOM     15  O   UNL     1       6.895   4.248  18.669  0.00  0.00    +0.000 OA
ATOM     16  H   UNL     1       6.609   2.884  16.245  0.00  0.00    +0.000 HD
ENDBRANCH   1   4
BRANCH   1  17
ATOM     17  N   UNL     1       0.933   4.714  20.477  0.00  0.00    +0.000 NA
ATOM     18  H   UNL     1       0.437   4.811  19.590  0.00  0.00    +0.000 HD
BRANCH  17  19
ATOM     19  C   UNL     1       1.515   5.989  20.994  0.00  0.00    +0.000 C 
BRANCH  19  20
ATOM     20  C   UNL     1       2.336   6.681  19.910  0.00  0.00    +0.000 C 
BRANCH  20  25
ATOM     21  C   UNL     1       0.157  11.970  18.807  0.00  0.00    +0.000 C 
ATOM     22  C   UNL     1       0.713  10.608  19.102  0.00  0.00    +0.000 A 
ATOM     23  C   UNL     1       0.573  10.031  20.369  0.00  0.00    +0.000 A 
ATOM     24  C   UNL     1       1.107   8.767  20.636  0.00  0.00    +0.000 A 
ATOM     25  C   UNL     1       1.793   8.062  19.640  0.00  0.00    +0.000 A 
ATOM     26  C   UNL     1       1.922   8.634  18.369  0.00  0.00    +0.000 A 
ATOM     27  C   UNL     1       1.388   9.896  18.103  0.00  0.00    +0.000 A 
ENDBRANCH  20  25
ENDBRANCH  19  20
ENDBRANCH  17  19
ENDBRANCH   1  17
TORSDOF 5
ENDMDL
MODEL 4
REMARK VINA RESULT:      -8.5      3.995      5.353
REMARK  Name = 
REMARK  7 active torsions:
REMARK  status: ('A' for Active; 'I' for Inactive)
REMARK    1  A    between atoms: C_1  and  C_2
REMARK    2  A    between atoms: C_5  and  C_6
REMARK    3  A    between atoms: C_6  and  C_7
REMARK    4  A    between atoms: C_7  and  N_8
REMARK    5  A    between atoms: N_8  and  S_9
REMARK    6  A    between atoms: S_9  and  C_12
REMARK    7  A    between atoms: C_17  and  C_18
REMARK                            x       y       z     vdW  Elec       q    Type
REMARK                         _______ _______ _______ _____ _____    ______ ____
ROOT
ATOM      1  S   UNL     1       6.230   4.861  16.080  0.00  0.00    +0.000 S 
ATOM      2  O   UNL     1       5.769   4.364  14.799  0.00  0.00    +0.000 OA
ATOM      3  O   UNL     1       7.562   4.547  16.555  0.00  0.00    +0.000 OA
ENDROOT
BRANCH   1   4
ATOM      4  C   UNL     1       5.056   4.282  17.296  0.00  0.00    +0.000 A 
ATOM      5  C   UNL     1       3.815   3.713  16.971  0.00  0.00    +0.000 A 
ATOM      6  C   UNL     1       3.051   3.114  17.990  0.00  0.00    +0.000 A 
ATOM      7  C   UNL     1       3.622   2.943  19.260  0.00  0.00    +0.000 A 
ATOM      8  C   UNL     1       4.798   3.583  19.604  0.00  0.00    +0.000 A 
ATOM      9  C   UNL     1       5.482   4.332  18.642  0.00  0.00    +0.000 A 
ATOM     10  C   UNL     1       6.634   5.164  19.123  0.00  0.00    +0.000 C 
ATOM     11  N   UNL     1       2.968   2.163  20.229  0.00  0.00    +0.000 N 
ATOM     12  C   UNL     1       1.630   2.513  20.335  0.00  0.00    +0.000 C 
ATOM     13  O   UNL     1       1.067   2.666  21.404  0.00  0.00    +0.000 OA
ATOM     14  C   UNL     1       0.954   2.649  18.959  0.00  0.00    +0.000 C 
ATOM     15  O   UNL     1       1.775   2.678  17.767  0.00  0.00    +0.000 OA
ATOM     16  H   UNL     1       2.949   1.214  19.839  0.00  0.00    +0.000 HD
ENDBRANCH   1   4
BRANCH   1  17
ATOM     17  N   UNL     1       6.153   6.531  15.939  0.00  0.00    +0.000 NA
ATOM     18  H   UNL     1       7.109   6.867  15.822  0.00  0.00    +0.000 HD
BRANCH  17  19
ATOM     19  C   UNL     1       5.377   7.253  16.991  0.00  0.00    +0.000 C 
BRANCH  19  20
ATOM     20  C   UNL     1       3.900   7.325  16.612  0.00  0.00    +0.000 C 
BRANCH  20  25
ATOM     21  C   UNL     1       0.582   8.660  21.211  0.00  0.00    +0.000 C 
ATOM     22  C   UNL     1       1.439   8.305  20.031  0.00  0.00    +0.000 A 
ATOM     23  C   UNL     1       2.172   7.114  20.005  0.00  0.00    +0.000 A 
ATOM     24  C   UNL     1       2.977   6.800  18.907  0.00  0.00    +0.000 A 
ATOM     25  C   UNL     1       3.064   7.676  17.818  0.00  0.00    +0.000 A 
ATOM     26  C   UNL     1       2.321   8.862  17.839  0.00  0.00    +0.000 A 
ATOM     27  C   UNL     1       1.517   9.174  18.937  0.00  0.00    +0.000 A 
ENDBRANCH  20  25
ENDBRANCH  19  20
ENDBRANCH  17  19
ENDBRANCH   1  17
TORSDOF 5
ENDMDL
MODEL 5
REMARK VINA RESULT:      -8.5      0.717      1.108
REMARK  Name = 
REMARK  7 active torsions:
REMARK  status: ('A' for Active; 'I' for Inactive)
REMARK    1  A    between atoms: C_1  and  C_2
REMARK    2  A    between atoms: C_5  and  C_6
REMARK    3  A    between atoms: C_6  and  C_7
REMARK    4  A    between atoms: C_7  and  N_8
REMARK    5  A    between atoms: N_8  and  S_9
REMARK    6  A    between atoms: S_9  and  C_12
REMARK    7  A    between atoms: C_17  and  C_18
REMARK                            x       y       z     vdW  Elec       q    Type
REMARK                         _______ _______ _______ _____ _____    ______ ____
ROOT
ATOM      1  S   UNL     1       7.308   5.331  18.030  0.00  0.00    +0.000 S 
ATOM      2  O   UNL     1       8.095   4.401  17.244  0.00  0.00    +0.000 OA
ATOM      3  O   UNL     1       7.725   5.700  19.366  0.00  0.00    +0.000 OA
ENDROOT
BRANCH   1   4
ATOM      4  C   UNL     1       5.665   4.636  18.133  0.00  0.00    +0.000 A 
ATOM      5  C   UNL     1       4.916   4.578  19.318  0.00  0.00    +0.000 A 
ATOM      6  C   UNL     1       3.564   4.191  19.255  0.00  0.00    +0.000 A 
ATOM      7  C   UNL     1       2.955   4.048  17.999  0.00  0.00    +0.000 A 
ATOM      8  C   UNL     1       3.709   4.011  16.841  0.00  0.00    +0.000 A 
ATOM      9  C   UNL     1       5.090   4.221  16.911  0.00  0.00    +0.000 A 
ATOM     10  C   UNL     1       5.878   3.970  15.660  0.00  0.00    +0.000 C 
ATOM     11  N   UNL     1       1.564   3.872  17.906  0.00  0.00    +0.000 N 
ATOM     12  C   UNL     1       1.121   2.893  18.782  0.00  0.00    +0.000 C 
ATOM     13  O   UNL     1       0.329   2.025  18.462  0.00  0.00    +0.000 OA
ATOM     14  C   UNL     1       1.723   3.056  20.189  0.00  0.00    +0.000 C 
ATOM     15  O   UNL     1       2.827   3.972  20.385  0.00  0.00    +0.000 OA
ATOM     16  H   UNL     1       1.160   4.740  18.276  0.00  0.00    +0.000 HD
ENDBRANCH   1   4
BRANCH   1  17
ATOM     17  N   UNL     1       7.292   6.742  17.125  0.00  0.00    +0.000 NA
ATOM     18  H   UNL     1       7.355   6.471  16.143  0.00  0.00    +0.000 HD
BRANCH  17  19
ATOM     19  C   UNL     1       8.262   7.804  17.529  0.00  0.00    +0.000 C 
BRANCH  19  20
ATOM     20  C   UNL     1       7.546   9.135  17.730  0.00  0.00    +0.000 C 
BRANCH  20  25
ATOM     21  C   UNL     1      11.310  13.061  19.819  0.00  0.00    +0.000 C 
ATOM     22  C   UNL     1      10.339  12.057  19.272  0.00  0.00    +0.000 A 
ATOM     23  C   UNL     1       9.595  12.329  18.118  0.00  0.00    +0.000 A 
ATOM     24  C   UNL     1       8.683  11.391  17.625  0.00  0.00    +0.000 A 
ATOM     25  C   UNL     1       8.499  10.168  18.281  0.00  0.00    +0.000 A 
ATOM     26  C   UNL     1       9.253   9.891  19.427  0.00  0.00    +0.000 A 
ATOM     27  C   UNL     1      10.163  10.828  19.919  0.00  0.00    +0.000 A 
ENDBRANCH  20  25
ENDBRANCH  19  20
ENDBRANCH  17  19
ENDBRANCH   1  17
TORSDOF 5
ENDMDL
MODEL 6
REMARK VINA RESULT:      -8.5      3.444      5.492
REMARK  Name = 
REMARK  7 active torsions:
REMARK  status: ('A' for Active; 'I' for Inactive)
REMARK    1  A    between atoms: C_1  and  C_2
REMARK    2  A    between atoms: C_5  and  C_6
REMARK    3  A    between atoms: C_6  and  C_7
REMARK    4  A    between atoms: C_7  and  N_8
REMARK    5  A    between atoms: N_8  and  S_9
REMARK    6  A    between atoms: S_9  and  C_12
REMARK    7  A    between atoms: C_17  and  C_18
REMARK                            x       y       z     vdW  Elec       q    Type
REMARK                         _______ _______ _______ _____ _____    ______ ____
ROOT
ATOM      1  S   UNL     1       2.429   2.848  20.183  0.00  0.00    +0.000 S 
ATOM      2  O   UNL     1       1.515   2.047  19.391  0.00  0.00    +0.000 OA
ATOM      3  O   UNL     1       2.443   2.736  21.626  0.00  0.00    +0.000 OA
ENDROOT
BRANCH   1   4
ATOM      4  C   UNL     1       2.098   4.552  19.761  0.00  0.00    +0.000 A 
ATOM      5  C   UNL     1       1.925   5.570  20.711  0.00  0.00    +0.000 A 
ATOM      6  C   UNL     1       1.862   6.908  20.276  0.00  0.00    +0.000 A 
ATOM      7  C   UNL     1       2.151   7.202  18.935  0.00  0.00    +0.000 A 
ATOM      8  C   UNL     1       2.227   6.199  17.986  0.00  0.00    +0.000 A 
ATOM      9  C   UNL     1       2.114   4.864  18.383  0.00  0.00    +0.000 A 
ATOM     10  C   UNL     1       2.001   3.839  17.293  0.00  0.00    +0.000 C 
ATOM     11  N   UNL     1       2.304   8.536  18.522  0.00  0.00    +0.000 N 
ATOM     12  C   UNL     1       1.265   9.328  18.987  0.00  0.00    +0.000 C 
ATOM     13  O   UNL     1       0.687  10.141  18.288  0.00  0.00    +0.000 OA
ATOM     14  C   UNL     1       0.961   9.075  20.474  0.00  0.00    +0.000 C 
ATOM     15  O   UNL     1       1.547   7.926  21.131  0.00  0.00    +0.000 OA
ATOM     16  H   UNL     1       3.127   8.880  19.031  0.00  0.00    +0.000 HD
ENDBRANCH   1   4
BRANCH   1  17
ATOM     17  N   UNL     1       3.954   2.398  19.652  0.00  0.00    +0.000 NA
ATOM     18  H   UNL     1       4.232   1.579  20.193  0.00  0.00    +0.000 HD
BRANCH  17  19
ATOM     19  C   UNL     1       4.987   3.476  19.602  0.00  0.00    +0.000 C 
BRANCH  19  20
ATOM     20  C   UNL     1       5.465   3.694  18.169  0.00  0.00    +0.000 C 
BRANCH  20  25
ATOM     21  C   UNL     1       8.224   8.810  17.774  0.00  0.00    +0.000 C 
ATOM     22  C   UNL     1       7.520   7.490  17.885  0.00  0.00    +0.000 A 
ATOM     23  C   UNL     1       7.941   6.524  18.806  0.00  0.00    +0.000 A 
ATOM     24  C   UNL     1       7.286   5.292  18.891  0.00  0.00    +0.000 A 
ATOM     25  C   UNL     1       6.201   5.006  18.054  0.00  0.00    +0.000 A 
ATOM     26  C   UNL     1       5.772   5.978  17.143  0.00  0.00    +0.000 A 
ATOM     27  C   UNL     1       6.427   7.208  17.058  0.00  0.00    +0.000 A 
ENDBRANCH  20  25
ENDBRANCH  19  20
ENDBRANCH  17  19
ENDBRANCH   1  17
TORSDOF 5
ENDMDL
MODEL 7
REMARK VINA RESULT:      -8.3      5.098      7.616
REMARK  Name = 
REMARK  7 active torsions:
REMARK  status: ('A' for Active; 'I' for Inactive)
REMARK    1  A    between atoms: C_1  and  C_2
REMARK    2  A    between atoms: C_5  and  C_6
REMARK    3  A    between atoms: C_6  and  C_7
REMARK    4  A    between atoms: C_7  and  N_8
REMARK    5  A    between atoms: N_8  and  S_9
REMARK    6  A    between atoms: S_9  and  C_12
REMARK    7  A    between atoms: C_17  and  C_18
REMARK                            x       y       z     vdW  Elec       q    Type
REMARK                         _______ _______ _______ _____ _____    ______ ____
ROOT
ATOM      1  S   UNL     1       1.970   4.392  20.544  0.00  0.00    +0.000 S 
ATOM      2  O   UNL     1       2.626   3.529  21.507  0.00  0.00    +0.000 OA
ATOM      3  O   UNL     1       0.575   4.195  20.211  0.00  0.00    +0.000 OA
ENDROOT
BRANCH   1   4
ATOM      4  C   UNL     1       2.922   4.277  19.037  0.00  0.00    +0.000 A 
ATOM      5  C   UNL     1       3.629   5.353  18.478  0.00  0.00    +0.000 A 
ATOM      6  C   UNL     1       4.502   5.111  17.400  0.00  0.00    +0.000 A 
ATOM      7  C   UNL     1       4.777   3.786  17.030  0.00  0.00    +0.000 A 
ATOM      8  C   UNL     1       4.015   2.738  17.513  0.00  0.00    +0.000 A 
ATOM      9  C   UNL     1       3.019   2.990  18.461  0.00  0.00    +0.000 A 
ATOM     10  C   UNL     1       2.097   1.855  18.794  0.00  0.00    +0.000 C 
ATOM     11  N   UNL     1       5.799   3.509  16.106  0.00  0.00    +0.000 N 
ATOM     12  C   UNL     1       5.697   4.321  14.987  0.00  0.00    +0.000 C 
ATOM     13  O   UNL     1       5.812   3.900  13.850  0.00  0.00    +0.000 OA
ATOM     14  C   UNL     1       5.455   5.795  15.357  0.00  0.00    +0.000 C 
ATOM     15  O   UNL     1       5.101   6.133  16.719  0.00  0.00    +0.000 OA
ATOM     16  H   UNL     1       6.664   3.820  16.564  0.00  0.00    +0.000 HD
ENDBRANCH   1   4
BRANCH   1  17
ATOM     17  N   UNL     1       2.094   5.930  21.201  0.00  0.00    +0.000 NA
ATOM     18  H   UNL     1       2.205   5.819  22.209  0.00  0.00    +0.000 HD
BRANCH  17  19
ATOM     19  C   UNL     1       1.038   6.910  20.806  0.00  0.00    +0.000 C 
BRANCH  19  20
ATOM     20  C   UNL     1       1.624   8.314  20.699  0.00  0.00    +0.000 C 
BRANCH  20  25
ATOM     21  C   UNL     1      -2.058  12.161  23.064  0.00  0.00    +0.000 C 
ATOM     22  C   UNL     1      -1.110  11.164  22.465  0.00  0.00    +0.000 A 
ATOM     23  C   UNL     1      -0.604  10.104  23.225  0.00  0.00    +0.000 A 
ATOM     24  C   UNL     1       0.289   9.189  22.660  0.00  0.00    +0.000 A 
ATOM     25  C   UNL     1       0.692   9.322  21.326  0.00  0.00    +0.000 A 
ATOM     26  C   UNL     1       0.175  10.375  20.562  0.00  0.00    +0.000 A 
ATOM     27  C   UNL     1      -0.717  11.288  21.128  0.00  0.00    +0.000 A 
ENDBRANCH  20  25
ENDBRANCH  19  20
ENDBRANCH  17  19
ENDBRANCH   1  17
TORSDOF 5
ENDMDL
MODEL 8
REMARK VINA RESULT:      -8.3      1.123      1.233
REMARK  Name = 
REMARK  7 active torsions:
REMARK  status: ('A' for Active; 'I' for Inactive)
REMARK    1  A    between atoms: C_1  and  C_2
REMARK    2  A    between atoms: C_5  and  C_6
REMARK    3  A    between atoms: C_6  and  C_7
REMARK    4  A    between atoms: C_7  and  N_8
REMARK    5  A    between atoms: N_8  and  S_9
REMARK    6  A    between atoms: S_9  and  C_12
REMARK    7  A    between atoms: C_17  and  C_18
REMARK                            x       y       z     vdW  Elec       q    Type
REMARK                         _______ _______ _______ _____ _____    ______ ____
ROOT
ATOM      1  S   UNL     1       7.280   6.602  17.740  0.00  0.00    +0.000 S 
ATOM      2  O   UNL     1       7.699   6.366  16.373  0.00  0.00    +0.000 OA
ATOM      3  O   UNL     1       8.156   6.274  18.845  0.00  0.00    +0.000 OA
ENDROOT
BRANCH   1   4
ATOM      4  C   UNL     1       5.751   5.703  17.959  0.00  0.00    +0.000 A 
ATOM      5  C   UNL     1       5.568   4.699  18.921  0.00  0.00    +0.000 A 
ATOM      6  C   UNL     1       4.274   4.190  19.141  0.00  0.00    +0.000 A 
ATOM      7  C   UNL     1       3.181   4.819  18.526  0.00  0.00    +0.000 A 
ATOM      8  C   UNL     1       3.367   5.740  17.512  0.00  0.00    +0.000 A 
ATOM      9  C   UNL     1       4.664   6.126  17.161  0.00  0.00    +0.000 A 
ATOM     10  C   UNL     1       4.811   6.968  15.928  0.00  0.00    +0.000 C 
ATOM     11  N   UNL     1       1.869   4.471  18.891  0.00  0.00    +0.000 N 
ATOM     12  C   UNL     1       1.701   3.095  18.905  0.00  0.00    +0.000 C 
ATOM     13  O   UNL     1       0.733   2.540  18.416  0.00  0.00    +0.000 OA
ATOM     14  C   UNL     1       2.853   2.375  19.627  0.00  0.00    +0.000 C 
ATOM     15  O   UNL     1       4.055   3.113  19.952  0.00  0.00    +0.000 OA
ATOM     16  H   UNL     1       1.786   4.743  19.877  0.00  0.00    +0.000 HD
ENDBRANCH   1   4
BRANCH   1  17
ATOM     17  N   UNL     1       7.005   8.254  17.819  0.00  0.00    +0.000 NA
ATOM     18  H   UNL     1       6.268   8.469  17.148  0.00  0.00    +0.000 HD
BRANCH  17  19
ATOM     19  C   UNL     1       8.207   9.135  17.710  0.00  0.00    +0.000 C 
BRANCH  19  20
ATOM     20  C   UNL     1       8.866   9.313  19.075  0.00  0.00    +0.000 C 
BRANCH  20  25
ATOM     21  C   UNL     1      11.753  14.371  19.224  0.00  0.00    +0.000 C 
ATOM     22  C   UNL     1      11.008  13.069  19.198  0.00  0.00    +0.000 A 
ATOM     23  C   UNL     1      10.642  12.424  20.384  0.00  0.00    +0.000 A 
ATOM     24  C   UNL     1       9.960  11.205  20.347  0.00  0.00    +0.000 A 
ATOM     25  C   UNL     1       9.637  10.609  19.121  0.00  0.00    +0.000 A 
ATOM     26  C   UNL     1       9.992  11.261  17.935  0.00  0.00    +0.000 A 
ATOM     27  C   UNL     1      10.673  12.479  17.973  0.00  0.00    +0.000 A 
ENDBRANCH  20  25
ENDBRANCH  19  20
ENDBRANCH  17  19
ENDBRANCH   1  17
TORSDOF 5
ENDMDL
MODEL 9
REMARK VINA RESULT:      -8.3      1.541      2.334
REMARK  Name = 
REMARK  7 active torsions:
REMARK  status: ('A' for Active; 'I' for Inactive)
REMARK    1  A    between atoms: C_1  and  C_2
REMARK    2  A    between atoms: C_5  and  C_6
REMARK    3  A    between atoms: C_6  and  C_7
REMARK    4  A    between atoms: C_7  and  N_8
REMARK    5  A    between atoms: N_8  and  S_9
REMARK    6  A    between atoms: S_9  and  C_12
REMARK    7  A    between atoms: C_17  and  C_18
REMARK                            x       y       z     vdW  Elec       q    Type
REMARK                         _______ _______ _______ _____ _____    ______ ____
ROOT
ATOM      1  S   UNL     1       6.191   6.358  16.596  0.00  0.00    +0.000 S 
ATOM      2  O   UNL     1       5.430   6.740  15.423  0.00  0.00    +0.000 OA
ATOM      3  O   UNL     1       7.440   5.637  16.460  0.00  0.00    +0.000 OA
ENDROOT
BRANCH   1   4
ATOM      4  C   UNL     1       5.093   5.380  17.611  0.00  0.00    +0.000 A 
ATOM      5  C   UNL     1       3.784   5.039  17.238  0.00  0.00    +0.000 A 
ATOM      6  C   UNL     1       3.072   4.107  18.016  0.00  0.00    +0.000 A 
ATOM      7  C   UNL     1       3.745   3.413  19.033  0.00  0.00    +0.000 A 
ATOM      8  C   UNL     1       4.998   3.813  19.460  0.00  0.00    +0.000 A 
ATOM      9  C   UNL     1       5.647   4.862  18.803  0.00  0.00    +0.000 A 
ATOM     10  C   UNL     1       6.906   5.381  19.433  0.00  0.00    +0.000 C 
ATOM     11  N   UNL     1       3.123   2.333  19.681  0.00  0.00    +0.000 N 
ATOM     12  C   UNL     1       1.835   2.660  20.077  0.00  0.00    +0.000 C 
ATOM     13  O   UNL     1       1.390   2.387  21.178  0.00  0.00    +0.000 OA
ATOM     14  C   UNL     1       1.045   3.369  18.963  0.00  0.00    +0.000 C 
ATOM     15  O   UNL     1       1.749   3.849  17.793  0.00  0.00    +0.000 OA
ATOM     16  H   UNL     1       2.987   1.626  18.949  0.00  0.00    +0.000 HD
ENDBRANCH   1   4
BRANCH   1  17
ATOM     17  N   UNL     1       6.555   7.808  17.355  0.00  0.00    +0.000 NA
ATOM     18  H   UNL     1       5.887   8.501  17.016  0.00  0.00    +0.000 HD
BRANCH  17  19
ATOM     19  C   UNL     1       7.980   8.253  17.295  0.00  0.00    +0.000 C 
BRANCH  19  20
ATOM     20  C   UNL     1       8.511   8.540  18.696  0.00  0.00    +0.000 C 
BRANCH  20  25
ATOM     21  C   UNL     1      10.301  14.068  19.112  0.00  0.00    +0.000 C 
ATOM     22  C   UNL     1       9.837  12.646  18.994  0.00  0.00    +0.000 A 
ATOM     23  C   UNL     1       9.172  12.199  17.847  0.00  0.00    +0.000 A 
ATOM     24  C   UNL     1       8.733  10.876  17.753  0.00  0.00    +0.000 A 
ATOM     25  C   UNL     1       8.948   9.980  18.807  0.00  0.00    +0.000 A 
ATOM     26  C   UNL     1       9.625  10.425  19.949  0.00  0.00    +0.000 A 
ATOM     27  C   UNL     1      10.064  11.747  20.041  0.00  0.00    +0.000 A 
ENDBRANCH  20  25
ENDBRANCH  19  20
ENDBRANCH  17  19
ENDBRANCH   1  17
TORSDOF 5
ENDMDL
