MODEL 1
REMARK VINA RESULT:      -7.9      0.000      0.000
REMARK  Name = 
REMARK  7 active torsions:
REMARK  status: ('A' for Active; 'I' for Inactive)
REMARK    1  A    between atoms: C_1  and  C_2
REMARK    2  A    between atoms: C_2  and  C_3
REMARK    3  A    between atoms: C_8  and  C_9
REMARK    4  A    between atoms: C_11  and  C_12
REMARK    5  A    between atoms: C_14  and  N_15
REMARK    6  A    between atoms: C_18  and  C_19
REMARK    7  A    between atoms: C_18  and  C_20
REMARK                            x       y       z     vdW  Elec       q    Type
REMARK                         _______ _______ _______ _____ _____    ______ ____
ROOT
ATOM      1  C   UNL     1       5.775   4.256  14.130  0.00  0.00    +0.000 C 
ATOM      2  C   UNL     1       5.777   4.719  15.590  0.00  0.00    +0.000 C 
ATOM      3  C   UNL     1       7.069   4.197  16.243  0.00  0.00    +0.000 C 
ATOM      4  O   UNL     1       5.784   6.155  15.576  0.00  0.00    +0.000 OA
ATOM      5  C   UNL     1       5.761   6.726  16.889  0.00  0.00    +0.000 C 
ATOM      6  C   UNL     1       4.604   6.146  17.659  0.00  0.00    +0.000 C 
ATOM      7  O   UNL     1       4.545   6.288  19.085  0.00  0.00    +0.000 OA
ATOM      8  C   UNL     1       3.264   5.635  19.366  0.00  0.00    +0.000 C 
ATOM      9  O   UNL     1       3.112   4.895  20.575  0.00  0.00    +0.000 OA
ATOM     10  C   UNL     1       2.323   3.760  20.189  0.00  0.00    +0.000 C 
ATOM     11  C   UNL     1       0.829   4.065  19.922  0.00  0.00    +0.000 C 
ATOM     12  C   UNL     1       2.377   2.732  21.312  0.00  0.00    +0.000 C 
ATOM     13  O   UNL     1       2.887   3.320  18.950  0.00  0.00    +0.000 OA
ATOM     14  C   UNL     1       3.099   4.571  18.251  0.00  0.00    +0.000 C 
ATOM     15  C   UNL     1       4.457   4.652  17.542  0.00  0.00    +0.000 C 
ATOM     16  O   UNL     1       4.563   4.220  16.198  0.00  0.00    +0.000 OA
ENDROOT
BRANCH   8  17
ATOM     17  C   UNL     1       2.355   6.826  19.532  0.00  0.00    +0.000 A 
ATOM     18  N   UNL     1       2.010   7.794  18.703  0.00  0.00    +0.000 NA
ATOM     19  C   UNL     1       1.415   8.715  19.551  0.00  0.00    +0.000 A 
ATOM     20  C   UNL     1       1.421   8.278  20.851  0.00  0.00    +0.000 A 
ATOM     21  O   UNL     1       1.995   7.048  20.840  0.00  0.00    +0.000 OA
BRANCH  20  22
ATOM     22  N   UNL     1       1.053   8.735  22.059  0.00  0.00    +0.000 N 
ATOM     23  H   UNL     1       1.297   8.240  22.911  0.00  0.00    +0.000 HD
ATOM     24  H   UNL     1       0.176   9.259  22.130  0.00  0.00    +0.000 HD
ENDBRANCH  20  22
BRANCH  19  25
ATOM     25  C   UNL     1       0.938   9.968  19.079  0.00  0.00    +0.000 C 
ATOM     26  N   UNL     1       0.563  10.988  18.672  0.00  0.00    +0.000 NA
ENDBRANCH  19  25
ENDBRANCH   8  17
TORSDOF 3
ENDMDL
MODEL 2
REMARK VINA RESULT:      -7.2      0.939      1.433
REMARK  Name = 
REMARK  7 active torsions:
REMARK  status: ('A' for Active; 'I' for Inactive)
REMARK    1  A    between atoms: C_1  and  C_2
REMARK    2  A    between atoms: C_2  and  C_3
REMARK    3  A    between atoms: C_8  and  C_9
REMARK    4  A    between atoms: C_11  and  C_12
REMARK    5  A    between atoms: C_14  and  N_15
REMARK    6  A    between atoms: C_18  and  C_19
REMARK    7  A    between atoms: C_18  and  C_20
REMARK                            x       y       z     vdW  Elec       q    Type
REMARK                         _______ _______ _______ _____ _____    ______ ____
ROOT
ATOM      1  C   UNL     1       5.604   4.337  14.043  0.00  0.00    +0.000 C 
ATOM      2  C   UNL     1       5.688   4.729  15.522  0.00  0.00    +0.000 C 
ATOM      3  C   UNL     1       6.928   4.040  16.118  0.00  0.00    +0.000 C 
ATOM      4  O   UNL     1       5.854   6.155  15.569  0.00  0.00    +0.000 OA
ATOM      5  C   UNL     1       5.923   6.665  16.906  0.00  0.00    +0.000 C 
ATOM      6  C   UNL     1       4.725   6.181  17.680  0.00  0.00    +0.000 C 
ATOM      7  O   UNL     1       4.713   6.262  19.112  0.00  0.00    +0.000 OA
ATOM      8  C   UNL     1       3.373   5.742  19.398  0.00  0.00    +0.000 C 
ATOM      9  O   UNL     1       3.166   4.969  20.577  0.00  0.00    +0.000 OA
ATOM     10  C   UNL     1       2.248   3.946  20.164  0.00  0.00    +0.000 C 
ATOM     11  C   UNL     1       0.792   4.426  19.949  0.00  0.00    +0.000 C 
ATOM     12  C   UNL     1       2.211   2.868  21.239  0.00  0.00    +0.000 C 
ATOM     13  O   UNL     1       2.733   3.504  18.893  0.00  0.00    +0.000 OA
ATOM     14  C   UNL     1       3.067   4.754  18.243  0.00  0.00    +0.000 C 
ATOM     15  C   UNL     1       4.411   4.718  17.503  0.00  0.00    +0.000 C 
ATOM     16  O   UNL     1       4.440   4.339  16.140  0.00  0.00    +0.000 OA
ENDROOT
BRANCH   8  17
ATOM     17  C   UNL     1       2.606   7.016  19.639  0.00  0.00    +0.000 A 
ATOM     18  N   UNL     1       1.933   7.456  20.686  0.00  0.00    +0.000 NA
ATOM     19  C   UNL     1       1.223   8.523  20.160  0.00  0.00    +0.000 A 
ATOM     20  C   UNL     1       1.486   8.691  18.824  0.00  0.00    +0.000 A 
ATOM     21  O   UNL     1       2.400   7.745  18.490  0.00  0.00    +0.000 OA
BRANCH  20  22
ATOM     22  N   UNL     1       1.077   9.482  17.819  0.00  0.00    +0.000 N 
ATOM     23  H   UNL     1       1.584   9.529  16.940  0.00  0.00    +0.000 HD
ATOM     24  H   UNL     1       0.594  10.353  18.056  0.00  0.00    +0.000 HD
ENDBRANCH  20  22
BRANCH  19  25
ATOM     25  C   UNL     1       0.301   9.269  20.943  0.00  0.00    +0.000 C 
ATOM     26  N   UNL     1      -0.432   9.891  21.594  0.00  0.00    +0.000 NA
ENDBRANCH  19  25
ENDBRANCH   8  17
TORSDOF 3
ENDMDL
MODEL 3
REMARK VINA RESULT:      -7.2      3.773      6.790
REMARK  Name = 
REMARK  7 active torsions:
REMARK  status: ('A' for Active; 'I' for Inactive)
REMARK    1  A    between atoms: C_1  and  C_2
REMARK    2  A    between atoms: C_2  and  C_3
REMARK    3  A    between atoms: C_8  and  C_9
REMARK    4  A    between atoms: C_11  and  C_12
REMARK    5  A    between atoms: C_14  and  N_15
REMARK    6  A    between atoms: C_18  and  C_19
REMARK    7  A    between atoms: C_18  and  C_20
REMARK                            x       y       z     vdW  Elec       q    Type
REMARK                         _______ _______ _______ _____ _____    ______ ____
ROOT
ATOM      1  C   UNL     1       0.632   4.050  20.444  0.00  0.00    +0.000 C 
ATOM      2  C   UNL     1       1.975   3.491  19.966  0.00  0.00    +0.000 C 
ATOM      3  C   UNL     1       2.503   2.544  21.059  0.00  0.00    +0.000 C 
ATOM      4  O   UNL     1       1.718   2.749  18.763  0.00  0.00    +0.000 OA
ATOM      5  C   UNL     1       2.903   2.187  18.189  0.00  0.00    +0.000 C 
ATOM      6  C   UNL     1       3.927   3.275  18.007  0.00  0.00    +0.000 C 
ATOM      7  O   UNL     1       5.301   2.939  17.768  0.00  0.00    +0.000 OA
ATOM      8  C   UNL     1       5.880   4.275  17.610  0.00  0.00    +0.000 C 
ATOM      9  O   UNL     1       7.206   4.517  18.076  0.00  0.00    +0.000 OA
ATOM     10  C   UNL     1       7.142   5.839  18.630  0.00  0.00    +0.000 C 
ATOM     11  C   UNL     1       7.058   6.980  17.586  0.00  0.00    +0.000 C 
ATOM     12  C   UNL     1       8.402   6.077  19.453  0.00  0.00    +0.000 C 
ATOM     13  O   UNL     1       5.925   5.870  19.380  0.00  0.00    +0.000 OA
ATOM     14  C   UNL     1       5.000   5.204  18.485  0.00  0.00    +0.000 C 
ATOM     15  C   UNL     1       4.089   4.192  19.192  0.00  0.00    +0.000 C 
ATOM     16  O   UNL     1       2.837   4.620  19.695  0.00  0.00    +0.000 OA
ENDROOT
BRANCH   8  17
ATOM     17  C   UNL     1       5.979   4.380  16.110  0.00  0.00    +0.000 A 
ATOM     18  N   UNL     1       5.360   3.736  15.138  0.00  0.00    +0.000 NA
ATOM     19  C   UNL     1       6.115   4.074  14.026  0.00  0.00    +0.000 A 
ATOM     20  C   UNL     1       7.156   4.903  14.360  0.00  0.00    +0.000 A 
ATOM     21  O   UNL     1       7.054   5.130  15.694  0.00  0.00    +0.000 OA
BRANCH  20  22
ATOM     22  N   UNL     1       8.199   5.489  13.750  0.00  0.00    +0.000 N 
ATOM     23  H   UNL     1       8.576   6.374  14.075  0.00  0.00    +0.000 HD
ATOM     24  H   UNL     1       8.313   5.344  12.743  0.00  0.00    +0.000 HD
ENDBRANCH  20  22
BRANCH  19  25
ATOM     25  C   UNL     1       5.833   3.541  12.740  0.00  0.00    +0.000 C 
ATOM     26  N   UNL     1       5.626   3.115  11.679  0.00  0.00    +0.000 NA
ENDBRANCH  19  25
ENDBRANCH   8  17
TORSDOF 3
ENDMDL
MODEL 4
REMARK VINA RESULT:      -7.2      2.643      5.906
REMARK  Name = 
REMARK  7 active torsions:
REMARK  status: ('A' for Active; 'I' for Inactive)
REMARK    1  A    between atoms: C_1  and  C_2
REMARK    2  A    between atoms: C_2  and  C_3
REMARK    3  A    between atoms: C_8  and  C_9
REMARK    4  A    between atoms: C_11  and  C_12
REMARK    5  A    between atoms: C_14  and  N_15
REMARK    6  A    between atoms: C_18  and  C_19
REMARK    7  A    between atoms: C_18  and  C_20
REMARK                            x       y       z     vdW  Elec       q    Type
REMARK                         _______ _______ _______ _____ _____    ______ ____
ROOT
ATOM      1  C   UNL     1       0.664  11.243  21.200  0.00  0.00    +0.000 C 
ATOM      2  C   UNL     1       0.727  10.202  20.078  0.00  0.00    +0.000 C 
ATOM      3  C   UNL     1      -0.669  10.121  19.436  0.00  0.00    +0.000 C 
ATOM      4  O   UNL     1       1.679  10.680  19.115  0.00  0.00    +0.000 OA
ATOM      5  C   UNL     1       1.858   9.783  18.013  0.00  0.00    +0.000 C 
ATOM      6  C   UNL     1       2.187   8.412  18.542  0.00  0.00    +0.000 C 
ATOM      7  O   UNL     1       2.088   7.266  17.686  0.00  0.00    +0.000 OA
ATOM      8  C   UNL     1       2.541   6.212  18.596  0.00  0.00    +0.000 C 
ATOM      9  O   UNL     1       1.960   4.913  18.499  0.00  0.00    +0.000 OA
ATOM     10  C   UNL     1       1.844   4.483  19.863  0.00  0.00    +0.000 C 
ATOM     11  C   UNL     1       3.180   4.082  20.535  0.00  0.00    +0.000 C 
ATOM     12  C   UNL     1       0.936   3.261  19.908  0.00  0.00    +0.000 C 
ATOM     13  O   UNL     1       1.346   5.622  20.571  0.00  0.00    +0.000 OA
ATOM     14  C   UNL     1       2.139   6.698  20.012  0.00  0.00    +0.000 C 
ATOM     15  C   UNL     1       1.321   7.954  19.686  0.00  0.00    +0.000 C 
ATOM     16  O   UNL     1       1.179   8.962  20.670  0.00  0.00    +0.000 OA
ENDROOT
BRANCH   8  17
ATOM     17  C   UNL     1       3.967   6.024  18.146  0.00  0.00    +0.000 A 
ATOM     18  N   UNL     1       4.489   5.738  16.967  0.00  0.00    +0.000 NA
ATOM     19  C   UNL     1       5.795   5.405  17.291  0.00  0.00    +0.000 A 
ATOM     20  C   UNL     1       6.017   5.499  18.642  0.00  0.00    +0.000 A 
ATOM     21  O   UNL     1       4.853   5.928  19.193  0.00  0.00    +0.000 OA
BRANCH  20  22
ATOM     22  N   UNL     1       7.016   5.264  19.508  0.00  0.00    +0.000 N 
ATOM     23  H   UNL     1       7.852   5.839  19.523  0.00  0.00    +0.000 HD
ATOM     24  H   UNL     1       7.182   4.297  19.801  0.00  0.00    +0.000 HD
ENDBRANCH  20  22
BRANCH  19  25
ATOM     25  C   UNL     1       6.721   4.963  16.308  0.00  0.00    +0.000 C 
ATOM     26  N   UNL     1       7.498   4.604  15.523  0.00  0.00    +0.000 NA
ENDBRANCH  19  25
ENDBRANCH   8  17
TORSDOF 3
ENDMDL
MODEL 5
REMARK VINA RESULT:      -7.1      2.630      5.918
REMARK  Name = 
REMARK  7 active torsions:
REMARK  status: ('A' for Active; 'I' for Inactive)
REMARK    1  A    between atoms: C_1  and  C_2
REMARK    2  A    between atoms: C_2  and  C_3
REMARK    3  A    between atoms: C_8  and  C_9
REMARK    4  A    between atoms: C_11  and  C_12
REMARK    5  A    between atoms: C_14  and  N_15
REMARK    6  A    between atoms: C_18  and  C_19
REMARK    7  A    between atoms: C_18  and  C_20
REMARK                            x       y       z     vdW  Elec       q    Type
REMARK                         _______ _______ _______ _____ _____    ______ ____
ROOT
ATOM      1  C   UNL     1       0.728   9.343  22.821  0.00  0.00    +0.000 C 
ATOM      2  C   UNL     1       0.763   8.689  21.436  0.00  0.00    +0.000 C 
ATOM      3  C   UNL     1      -0.680   8.641  20.905  0.00  0.00    +0.000 C 
ATOM      4  O   UNL     1       1.563   9.533  20.594  0.00  0.00    +0.000 OA
ATOM      5  C   UNL     1       1.703   9.023  19.263  0.00  0.00    +0.000 C 
ATOM      6  C   UNL     1       2.204   7.604  19.329  0.00  0.00    +0.000 C 
ATOM      7  O   UNL     1       2.114   6.755  18.177  0.00  0.00    +0.000 OA
ATOM      8  C   UNL     1       2.750   5.539  18.690  0.00  0.00    +0.000 C 
ATOM      9  O   UNL     1       2.276   4.268  18.250  0.00  0.00    +0.000 OA
ATOM     10  C   UNL     1       2.342   3.449  19.426  0.00  0.00    +0.000 C 
ATOM     11  C   UNL     1       3.771   3.024  19.845  0.00  0.00    +0.000 C 
ATOM     12  C   UNL     1       1.552   2.171  19.168  0.00  0.00    +0.000 C 
ATOM     13  O   UNL     1       1.824   4.267  20.479  0.00  0.00    +0.000 OA
ATOM     14  C   UNL     1       2.458   5.542  20.213  0.00  0.00    +0.000 C 
ATOM     15  C   UNL     1       1.505   6.736  20.342  0.00  0.00    +0.000 C 
ATOM     16  O   UNL     1       1.380   7.390  21.592  0.00  0.00    +0.000 OA
ENDROOT
BRANCH   8  17
ATOM     17  C   UNL     1       4.132   5.655  18.100  0.00  0.00    +0.000 A 
ATOM     18  N   UNL     1       4.570   5.565  16.858  0.00  0.00    +0.000 NA
ATOM     19  C   UNL     1       5.941   5.454  17.031  0.00  0.00    +0.000 A 
ATOM     20  C   UNL     1       6.282   5.480  18.360  0.00  0.00    +0.000 A 
ATOM     21  O   UNL     1       5.125   5.641  19.051  0.00  0.00    +0.000 OA
BRANCH  20  22
ATOM     22  N   UNL     1       7.392   5.365  19.107  0.00  0.00    +0.000 N 
ATOM     23  H   UNL     1       7.438   5.736  20.051  0.00  0.00    +0.000 HD
ATOM     24  H   UNL     1       8.297   5.359  18.628  0.00  0.00    +0.000 HD
ENDBRANCH  20  22
BRANCH  19  25
ATOM     25  C   UNL     1       6.822   5.272  15.932  0.00  0.00    +0.000 C 
ATOM     26  N   UNL     1       7.522   5.124  15.017  0.00  0.00    +0.000 NA
ENDBRANCH  19  25
ENDBRANCH   8  17
TORSDOF 3
ENDMDL
MODEL 6
REMARK VINA RESULT:      -6.8      2.577      5.892
REMARK  Name = 
REMARK  7 active torsions:
REMARK  status: ('A' for Active; 'I' for Inactive)
REMARK    1  A    between atoms: C_1  and  C_2
REMARK    2  A    between atoms: C_2  and  C_3
REMARK    3  A    between atoms: C_8  and  C_9
REMARK    4  A    between atoms: C_11  and  C_12
REMARK    5  A    between atoms: C_14  and  N_15
REMARK    6  A    between atoms: C_18  and  C_19
REMARK    7  A    between atoms: C_18  and  C_20
REMARK                            x       y       z     vdW  Elec       q    Type
REMARK                         _______ _______ _______ _____ _____    ______ ____
ROOT
ATOM      1  C   UNL     1       0.654  11.383  20.796  0.00  0.00    +0.000 C 
ATOM      2  C   UNL     1       0.764  10.238  19.785  0.00  0.00    +0.000 C 
ATOM      3  C   UNL     1      -0.569  10.160  19.021  0.00  0.00    +0.000 C 
ATOM      4  O   UNL     1       1.825  10.578  18.879  0.00  0.00    +0.000 OA
ATOM      5  C   UNL     1       2.056   9.571  17.886  0.00  0.00    +0.000 C 
ATOM      6  C   UNL     1       2.259   8.244  18.568  0.00  0.00    +0.000 C 
ATOM      7  O   UNL     1       2.177   7.028  17.813  0.00  0.00    +0.000 OA
ATOM      8  C   UNL     1       2.486   6.045  18.855  0.00  0.00    +0.000 C 
ATOM      9  O   UNL     1       1.845   4.772  18.820  0.00  0.00    +0.000 OA
ATOM     10  C   UNL     1       1.580   4.480  20.200  0.00  0.00    +0.000 C 
ATOM     11  C   UNL     1       2.824   4.084  21.032  0.00  0.00    +0.000 C 
ATOM     12  C   UNL     1       0.606   3.310  20.267  0.00  0.00    +0.000 C 
ATOM     13  O   UNL     1       1.082   5.703  20.749  0.00  0.00    +0.000 OA
ATOM     14  C   UNL     1       1.981   6.682  20.175  0.00  0.00    +0.000 C 
ATOM     15  C   UNL     1       1.267   7.938  19.659  0.00  0.00    +0.000 C 
ATOM     16  O   UNL     1       1.090   9.041  20.528  0.00  0.00    +0.000 OA
ENDROOT
BRANCH   8  17
ATOM     17  C   UNL     1       3.934   5.750  18.564  0.00  0.00    +0.000 A 
ATOM     18  N   UNL     1       4.955   5.477  19.356  0.00  0.00    +0.000 NA
ATOM     19  C   UNL     1       6.040   5.617  18.506  0.00  0.00    +0.000 A 
ATOM     20  C   UNL     1       5.644   5.968  17.240  0.00  0.00    +0.000 A 
ATOM     21  O   UNL     1       4.288   6.023  17.263  0.00  0.00    +0.000 OA
BRANCH  20  22
ATOM     22  N   UNL     1       6.216   6.278  16.066  0.00  0.00    +0.000 N 
ATOM     23  H   UNL     1       6.203   5.633  15.281  0.00  0.00    +0.000 HD
ATOM     24  H   UNL     1       7.038   6.889  16.076  0.00  0.00    +0.000 HD
ENDBRANCH  20  22
BRANCH  19  25
ATOM     25  C   UNL     1       7.376   5.468  18.966  0.00  0.00    +0.000 C 
ATOM     26  N   UNL     1       8.462   5.322  19.350  0.00  0.00    +0.000 NA
ENDBRANCH  19  25
ENDBRANCH   8  17
TORSDOF 3
ENDMDL
MODEL 7
REMARK VINA RESULT:      -6.8      2.488      5.894
REMARK  Name = 
REMARK  7 active torsions:
REMARK  status: ('A' for Active; 'I' for Inactive)
REMARK    1  A    between atoms: C_1  and  C_2
REMARK    2  A    between atoms: C_2  and  C_3
REMARK    3  A    between atoms: C_8  and  C_9
REMARK    4  A    between atoms: C_11  and  C_12
REMARK    5  A    between atoms: C_14  and  N_15
REMARK    6  A    between atoms: C_18  and  C_19
REMARK    7  A    between atoms: C_18  and  C_20
REMARK                            x       y       z     vdW  Elec       q    Type
REMARK                         _______ _______ _______ _____ _____    ______ ____
ROOT
ATOM      1  C   UNL     1       0.771  11.379  20.968  0.00  0.00    +0.000 C 
ATOM      2  C   UNL     1       0.750  10.242  19.943  0.00  0.00    +0.000 C 
ATOM      3  C   UNL     1      -0.682  10.139  19.388  0.00  0.00    +0.000 C 
ATOM      4  O   UNL     1       1.655  10.608  18.890  0.00  0.00    +0.000 OA
ATOM      5  C   UNL     1       1.752   9.611  17.865  0.00  0.00    +0.000 C 
ATOM      6  C   UNL     1       2.083   8.286  18.497  0.00  0.00    +0.000 C 
ATOM      7  O   UNL     1       1.912   7.071  17.754  0.00  0.00    +0.000 OA
ATOM      8  C   UNL     1       2.394   6.090  18.729  0.00  0.00    +0.000 C 
ATOM      9  O   UNL     1       1.782   4.804  18.782  0.00  0.00    +0.000 OA
ATOM     10  C   UNL     1       1.735   4.500  20.183  0.00  0.00    +0.000 C 
ATOM     11  C   UNL     1       3.098   4.126  20.815  0.00  0.00    +0.000 C 
ATOM     12  C   UNL     1       0.806   3.310  20.388  0.00  0.00    +0.000 C 
ATOM     13  O   UNL     1       1.301   5.709  20.812  0.00  0.00    +0.000 OA
ATOM     14  C   UNL     1       2.083   6.710  20.116  0.00  0.00    +0.000 C 
ATOM     15  C   UNL     1       1.274   7.953  19.723  0.00  0.00    +0.000 C 
ATOM     16  O   UNL     1       1.209   9.048  20.618  0.00  0.00    +0.000 OA
ENDROOT
BRANCH   8  17
ATOM     17  C   UNL     1       3.788   5.827  18.221  0.00  0.00    +0.000 A 
ATOM     18  N   UNL     1       4.829   6.621  18.049  0.00  0.00    +0.000 NA
ATOM     19  C   UNL     1       5.675   5.843  17.276  0.00  0.00    +0.000 A 
ATOM     20  C   UNL     1       5.123   4.616  17.007  0.00  0.00    +0.000 A 
ATOM     21  O   UNL     1       3.923   4.588  17.639  0.00  0.00    +0.000 OA
BRANCH  20  22
ATOM     22  N   UNL     1       5.432   3.516  16.301  0.00  0.00    +0.000 N 
ATOM     23  H   UNL     1       5.840   3.577  15.373  0.00  0.00    +0.000 HD
ATOM     24  H   UNL     1       4.859   2.678  16.439  0.00  0.00    +0.000 HD
ENDBRANCH  20  22
BRANCH  19  25
ATOM     25  C   UNL     1       6.918   6.337  16.796  0.00  0.00    +0.000 C 
ATOM     26  N   UNL     1       7.946   6.728  16.424  0.00  0.00    +0.000 NA
ENDBRANCH  19  25
ENDBRANCH   8  17
TORSDOF 3
ENDMDL
MODEL 8
REMARK VINA RESULT:      -6.7      2.856      5.760
REMARK  Name = 
REMARK  7 active torsions:
REMARK  status: ('A' for Active; 'I' for Inactive)
REMARK    1  A    between atoms: C_1  and  C_2
REMARK    2  A    between atoms: C_2  and  C_3
REMARK    3  A    between atoms: C_8  and  C_9
REMARK    4  A    between atoms: C_11  and  C_12
REMARK    5  A    between atoms: C_14  and  N_15
REMARK    6  A    between atoms: C_18  and  C_19
REMARK    7  A    between atoms: C_18  and  C_20
REMARK                            x       y       z     vdW  Elec       q    Type
REMARK                         _______ _______ _______ _____ _____    ______ ____
ROOT
ATOM      1  C   UNL     1       1.688   1.781  20.243  0.00  0.00    +0.000 C 
ATOM      2  C   UNL     1       1.888   2.986  19.319  0.00  0.00    +0.000 C 
ATOM      3  C   UNL     1       0.638   3.106  18.431  0.00  0.00    +0.000 C 
ATOM      4  O   UNL     1       2.001   4.145  20.159  0.00  0.00    +0.000 OA
ATOM      5  C   UNL     1       2.219   5.353  19.420  0.00  0.00    +0.000 C 
ATOM      6  C   UNL     1       3.401   5.165  18.506  0.00  0.00    +0.000 C 
ATOM      7  O   UNL     1       3.630   6.081  17.428  0.00  0.00    +0.000 OA
ATOM      8  C   UNL     1       4.875   5.540  16.877  0.00  0.00    +0.000 C 
ATOM      9  O   UNL     1       5.098   5.606  15.470  0.00  0.00    +0.000 OA
ATOM     10  C   UNL     1       5.740   4.360  15.163  0.00  0.00    +0.000 C 
ATOM     11  C   UNL     1       7.215   4.257  15.621  0.00  0.00    +0.000 C 
ATOM     12  C   UNL     1       5.725   4.170  13.652  0.00  0.00    +0.000 C 
ATOM     13  O   UNL     1       5.006   3.374  15.895  0.00  0.00    +0.000 OA
ATOM     14  C   UNL     1       4.824   4.021  17.178  0.00  0.00    +0.000 C 
ATOM     15  C   UNL     1       3.407   3.865  17.745  0.00  0.00    +0.000 C 
ATOM     16  O   UNL     1       3.115   2.765  18.587  0.00  0.00    +0.000 OA
ENDROOT
BRANCH   8  17
ATOM     17  C   UNL     1       5.894   6.480  17.467  0.00  0.00    +0.000 A 
ATOM     18  N   UNL     1       6.274   7.697  17.125  0.00  0.00    +0.000 NA
ATOM     19  C   UNL     1       7.436   7.867  17.861  0.00  0.00    +0.000 A 
ATOM     20  C   UNL     1       7.718   6.757  18.617  0.00  0.00    +0.000 A 
ATOM     21  O   UNL     1       6.712   5.874  18.392  0.00  0.00    +0.000 OA
BRANCH  20  22
ATOM     22  N   UNL     1       8.685   6.334  19.446  0.00  0.00    +0.000 N 
ATOM     23  H   UNL     1       9.352   5.621  19.166  0.00  0.00    +0.000 HD
ATOM     24  H   UNL     1       8.494   6.338  20.453  0.00  0.00    +0.000 HD
ENDBRANCH  20  22
BRANCH  19  25
ATOM     25  C   UNL     1       8.228   9.042  17.751  0.00  0.00    +0.000 C 
ATOM     26  N   UNL     1       8.895   9.988  17.671  0.00  0.00    +0.000 NA
ENDBRANCH  19  25
ENDBRANCH   8  17
TORSDOF 3
ENDMDL
MODEL 9
REMARK VINA RESULT:      -6.6      6.602      8.378
REMARK  Name = 
REMARK  7 active torsions:
REMARK  status: ('A' for Active; 'I' for Inactive)
REMARK    1  A    between atoms: C_1  and  C_2
REMARK    2  A    between atoms: C_2  and  C_3
REMARK    3  A    between atoms: C_8  and  C_9
REMARK    4  A    between atoms: C_11  and  C_12
REMARK    5  A    between atoms: C_14  and  N_15
REMARK    6  A    between atoms: C_18  and  C_19
REMARK    7  A    between atoms: C_18  and  C_20
REMARK                            x       y       z     vdW  Elec       q    Type
REMARK                         _______ _______ _______ _____ _____    ______ ____
ROOT
ATOM      1  C   UNL     1       4.498  14.952  19.130  0.00  0.00    +0.000 C 
ATOM      2  C   UNL     1       3.060  14.834  19.645  0.00  0.00    +0.000 C 
ATOM      3  C   UNL     1       2.928  15.746  20.877  0.00  0.00    +0.000 C 
ATOM      4  O   UNL     1       2.198  15.303  18.597  0.00  0.00    +0.000 OA
ATOM      5  C   UNL     1       0.809  15.223  18.938  0.00  0.00    +0.000 C 
ATOM      6  C   UNL     1       0.491  13.820  19.383  0.00  0.00    +0.000 C 
ATOM      7  O   UNL     1      -0.727  13.548  20.089  0.00  0.00    +0.000 OA
ATOM      8  C   UNL     1      -0.621  12.097  20.257  0.00  0.00    +0.000 C 
ATOM      9  O   UNL     1      -1.136  11.495  21.443  0.00  0.00    +0.000 OA
ATOM     10  C   UNL     1      -0.182  10.470  21.754  0.00  0.00    +0.000 C 
ATOM     11  C   UNL     1      -0.235   9.228  20.830  0.00  0.00    +0.000 C 
ATOM     12  C   UNL     1      -0.443   9.983  23.173  0.00  0.00    +0.000 C 
ATOM     13  O   UNL     1       1.097  11.081  21.559  0.00  0.00    +0.000 OA
ATOM     14  C   UNL     1       0.901  11.807  20.321  0.00  0.00    +0.000 C 
ATOM     15  C   UNL     1       1.485  13.226  20.347  0.00  0.00    +0.000 C 
ATOM     16  O   UNL     1       2.817  13.434  19.917  0.00  0.00    +0.000 OA
ENDROOT
BRANCH   8  17
ATOM     17  C   UNL     1      -1.524  11.603  19.157  0.00  0.00    +0.000 A 
ATOM     18  N   UNL     1      -1.267  11.046  17.988  0.00  0.00    +0.000 NA
ATOM     19  C   UNL     1      -2.492  11.121  17.345  0.00  0.00    +0.000 A 
ATOM     20  C   UNL     1      -3.440  11.716  18.137  0.00  0.00    +0.000 A 
ATOM     21  O   UNL     1      -2.832  12.000  19.317  0.00  0.00    +0.000 OA
BRANCH  20  22
ATOM     22  N   UNL     1      -4.726  12.093  18.044  0.00  0.00    +0.000 N 
ATOM     23  H   UNL     1      -5.209  12.117  17.151  0.00  0.00    +0.000 HD
ATOM     24  H   UNL     1      -5.076  12.784  18.714  0.00  0.00    +0.000 HD
ENDBRANCH  20  22
BRANCH  19  25
ATOM     25  C   UNL     1      -2.662  10.679  16.005  0.00  0.00    +0.000 C 
ATOM     26  N   UNL     1      -2.823  10.305  14.917  0.00  0.00    +0.000 NA
ENDBRANCH  19  25
ENDBRANCH   8  17
TORSDOF 3
ENDMDL
