MODEL 1
REMARK VINA RESULT:      -8.3      0.000      0.000
REMARK  Name = 
REMARK  1 active torsions:
REMARK  status: ('A' for Active; 'I' for Inactive)
REMARK    1  A    between atoms: C_11  and  N_12
REMARK                            x       y       z     vdW  Elec       q    Type
REMARK                         _______ _______ _______ _____ _____    ______ ____
ROOT
ATOM      1  O   UNL     1      -0.803   8.995  16.893  0.00  0.00    +0.000 OA
ATOM      2  C   UNL     1      -1.388   9.840  17.547  0.00  0.00    +0.000 C 
ATOM      3  C   UNL     1      -2.654  10.425  17.153  0.00  0.00    +0.000 A 
ATOM      4  C   UNL     1      -3.262  10.242  15.920  0.00  0.00    +0.000 A 
ATOM      5  C   UNL     1      -4.412  10.968  15.683  0.00  0.00    +0.000 A 
ATOM      6  C   UNL     1      -4.917  11.815  16.686  0.00  0.00    +0.000 A 
ATOM      7  C   UNL     1      -4.263  11.978  17.935  0.00  0.00    +0.000 A 
ATOM      8  C   UNL     1      -3.089  11.298  18.177  0.00  0.00    +0.000 A 
ATOM      9  C   UNL     1      -2.058  11.351  19.220  0.00  0.00    +0.000 A 
ATOM     10  C   UNL     1      -1.004  10.514  18.800  0.00  0.00    +0.000 A 
ATOM     11  C   UNL     1       0.140  10.336  19.541  0.00  0.00    +0.000 A 
ATOM     12  N   UNL     1       0.389  11.176  20.544  0.00  0.00    +0.000 NA
ATOM     13  C   UNL     1      -0.594  11.955  20.977  0.00  0.00    +0.000 A 
ATOM     14  C   UNL     1      -0.251  12.692  22.073  0.00  0.00    +0.000 A 
ATOM     15  C   UNL     1      -1.167  12.717  23.098  0.00  0.00    +0.000 A 
ATOM     16  C   UNL     1      -2.508  12.657  22.761  0.00  0.00    +0.000 A 
ATOM     17 BR   UNL     1      -3.764  12.809  24.162  0.00  0.00    +0.000 Br
ATOM     18  C   UNL     1      -2.901  12.417  21.427  0.00  0.00    +0.000 A 
ATOM     19  C   UNL     1      -1.922  11.949  20.501  0.00  0.00    +0.000 A 
ENDROOT
BRANCH  11  20
ATOM     20  N   UNL     1       0.966   9.267  19.362  0.00  0.00    +0.000 N 
ATOM     21  C   UNL     1       1.436   8.506  20.538  0.00  0.00    +0.000 C 
ATOM     22  C   UNL     1       1.833   7.068  20.079  0.00  0.00    +0.000 C 
ATOM     23  N   UNL     1       2.753   7.194  18.938  0.00  0.00    +0.000 N 
ATOM     24  C   UNL     1       3.725   6.258  18.686  0.00  0.00    +0.000 A 
ATOM     25  C   UNL     1       4.859   6.661  17.978  0.00  0.00    +0.000 A 
ATOM     26  C   UNL     1       5.873   5.749  17.714  0.00  0.00    +0.000 A 
ATOM     27  C   UNL     1       5.736   4.457  18.158  0.00  0.00    +0.000 A 
ATOM     28  C   UNL     1       4.585   4.125  18.871  0.00  0.00    +0.000 A 
ATOM     29  N   UNL     1       3.599   5.004  19.157  0.00  0.00    +0.000 NA
ATOM     30  C   UNL     1       2.204   7.939  17.792  0.00  0.00    +0.000 C 
ATOM     31  C   UNL     1       1.947   9.369  18.282  0.00  0.00    +0.000 C 
ENDBRANCH  11  20
TORSDOF 1
ENDMDL
MODEL 2
REMARK VINA RESULT:      -8.3      3.632      9.217
REMARK  Name = 
REMARK  1 active torsions:
REMARK  status: ('A' for Active; 'I' for Inactive)
REMARK    1  A    between atoms: C_11  and  N_12
REMARK                            x       y       z     vdW  Elec       q    Type
REMARK                         _______ _______ _______ _____ _____    ______ ____
ROOT
ATOM      1  O   UNL     1       1.020   6.193  20.963  0.00  0.00    +0.000 OA
ATOM      2  C   UNL     1       1.900   5.636  20.330  0.00  0.00    +0.000 C 
ATOM      3  C   UNL     1       2.325   4.273  20.576  0.00  0.00    +0.000 A 
ATOM      4  C   UNL     1       1.926   3.501  21.657  0.00  0.00    +0.000 A 
ATOM      5  C   UNL     1       2.521   2.262  21.786  0.00  0.00    +0.000 A 
ATOM      6  C   UNL     1       3.457   1.839  20.826  0.00  0.00    +0.000 A 
ATOM      7  C   UNL     1       3.843   2.659  19.735  0.00  0.00    +0.000 A 
ATOM      8  C   UNL     1       3.295   3.919  19.610  0.00  0.00    +0.000 A 
ATOM      9  C   UNL     1       3.573   5.089  18.770  0.00  0.00    +0.000 A 
ATOM     10  C   UNL     1       2.769   6.142  19.253  0.00  0.00    +0.000 A 
ATOM     11  C   UNL     1       2.785   7.400  18.698  0.00  0.00    +0.000 A 
ATOM     12  N   UNL     1       3.773   7.718  17.864  0.00  0.00    +0.000 NA
ATOM     13  C   UNL     1       4.526   6.743  17.372  0.00  0.00    +0.000 A 
ATOM     14  C   UNL     1       5.433   7.177  16.450  0.00  0.00    +0.000 A 
ATOM     15  C   UNL     1       5.529   6.435  15.296  0.00  0.00    +0.000 A 
ATOM     16  C   UNL     1       5.319   5.070  15.394  0.00  0.00    +0.000 A 
ATOM     17 BR   UNL     1       5.566   4.039  13.832  0.00  0.00    +0.000 Br
ATOM     18  C   UNL     1       4.867   4.499  16.602  0.00  0.00    +0.000 A 
ATOM     19  C   UNL     1       4.351   5.364  17.614  0.00  0.00    +0.000 A 
ENDROOT
BRANCH  11  20
ATOM     20  N   UNL     1       1.768   8.289  18.878  0.00  0.00    +0.000 N 
ATOM     21  C   UNL     1       1.322   9.124  17.745  0.00  0.00    +0.000 C 
ATOM     22  C   UNL     1      -0.147   9.582  18.006  0.00  0.00    +0.000 C 
ATOM     23  N   UNL     1      -0.205  10.174  19.350  0.00  0.00    +0.000 N 
ATOM     24  C   UNL     1      -1.097  11.169  19.664  0.00  0.00    +0.000 A 
ATOM     25  C   UNL     1      -0.775  12.037  20.709  0.00  0.00    +0.000 A 
ATOM     26  C   UNL     1      -1.642  13.066  21.050  0.00  0.00    +0.000 A 
ATOM     27  C   UNL     1      -2.812  13.209  20.346  0.00  0.00    +0.000 A 
ATOM     28  C   UNL     1      -3.066  12.317  19.304  0.00  0.00    +0.000 A 
ATOM     29  N   UNL     1      -2.223  11.324  18.944  0.00  0.00    +0.000 NA
ATOM     30  C   UNL     1       0.226   9.273  20.433  0.00  0.00    +0.000 C 
ATOM     31  C   UNL     1       1.705   8.959  20.178  0.00  0.00    +0.000 C 
ENDBRANCH  11  20
TORSDOF 1
ENDMDL
MODEL 3
REMARK VINA RESULT:      -8.2      1.406      1.783
REMARK  Name = 
REMARK  1 active torsions:
REMARK  status: ('A' for Active; 'I' for Inactive)
REMARK    1  A    between atoms: C_11  and  N_12
REMARK                            x       y       z     vdW  Elec       q    Type
REMARK                         _______ _______ _______ _____ _____    ______ ____
ROOT
ATOM      1  O   UNL     1      -2.205   9.942  17.861  0.00  0.00    +0.000 OA
ATOM      2  C   UNL     1      -2.580  10.881  18.539  0.00  0.00    +0.000 C 
ATOM      3  C   UNL     1      -3.914  11.443  18.464  0.00  0.00    +0.000 A 
ATOM      4  C   UNL     1      -4.859  11.114  17.503  0.00  0.00    +0.000 A 
ATOM      5  C   UNL     1      -6.038  11.832  17.523  0.00  0.00    +0.000 A 
ATOM      6  C   UNL     1      -6.232  12.818  18.508  0.00  0.00    +0.000 A 
ATOM      7  C   UNL     1      -5.240  13.128  19.472  0.00  0.00    +0.000 A 
ATOM      8  C   UNL     1      -4.036  12.454  19.444  0.00  0.00    +0.000 A 
ATOM      9  C   UNL     1      -2.743  12.618  20.117  0.00  0.00    +0.000 A 
ATOM     10  C   UNL     1      -1.850  11.704  19.519  0.00  0.00    +0.000 A 
ATOM     11  C   UNL     1      -0.535  11.596  19.904  0.00  0.00    +0.000 A 
ATOM     12  N   UNL     1      -0.011  12.554  20.666  0.00  0.00    +0.000 NA
ATOM     13  C   UNL     1      -0.830  13.409  21.262  0.00  0.00    +0.000 A 
ATOM     14  C   UNL     1      -0.188  14.276  22.098  0.00  0.00    +0.000 A 
ATOM     15  C   UNL     1      -0.757  14.461  23.335  0.00  0.00    +0.000 A 
ATOM     16  C   UNL     1      -2.136  14.392  23.423  0.00  0.00    +0.000 A 
ATOM     17 BR   UNL     1      -2.921  14.762  25.100  0.00  0.00    +0.000 Br
ATOM     18  C   UNL     1      -2.906  13.989  22.311  0.00  0.00    +0.000 A 
ATOM     19  C   UNL     1      -2.240  13.376  21.208  0.00  0.00    +0.000 A 
ENDROOT
BRANCH  11  20
ATOM     20  N   UNL     1       0.215  10.491  19.634  0.00  0.00    +0.000 N 
ATOM     21  C   UNL     1       0.867   9.764  20.742  0.00  0.00    +0.000 C 
ATOM     22  C   UNL     1       1.135   8.295  20.290  0.00  0.00    +0.000 C 
ATOM     23  N   UNL     1       1.839   8.338  19.000  0.00  0.00    +0.000 N 
ATOM     24  C   UNL     1       2.723   7.358  18.625  0.00  0.00    +0.000 A 
ATOM     25  C   UNL     1       3.723   7.689  17.708  0.00  0.00    +0.000 A 
ATOM     26  C   UNL     1       4.648   6.731  17.313  0.00  0.00    +0.000 A 
ATOM     27  C   UNL     1       4.557   5.465  17.836  0.00  0.00    +0.000 A 
ATOM     28  C   UNL     1       3.543   5.205  18.758  0.00  0.00    +0.000 A 
ATOM     29  N   UNL     1       2.649   6.131  19.171  0.00  0.00    +0.000 NA
ATOM     30  C   UNL     1       1.115   9.053  17.935  0.00  0.00    +0.000 C 
ATOM     31  C   UNL     1       0.989  10.511  18.393  0.00  0.00    +0.000 C 
ENDBRANCH  11  20
TORSDOF 1
ENDMDL
MODEL 4
REMARK VINA RESULT:      -8.1      3.149      5.450
REMARK  Name = 
REMARK  1 active torsions:
REMARK  status: ('A' for Active; 'I' for Inactive)
REMARK    1  A    between atoms: C_11  and  N_12
REMARK                            x       y       z     vdW  Elec       q    Type
REMARK                         _______ _______ _______ _____ _____    ______ ____
ROOT
ATOM      1  O   UNL     1       1.418  13.526  21.498  0.00  0.00    +0.000 OA
ATOM      2  C   UNL     1       0.428  14.066  21.959  0.00  0.00    +0.000 C 
ATOM      3  C   UNL     1       0.280  15.503  22.078  0.00  0.00    +0.000 A 
ATOM      4  C   UNL     1       1.294  16.424  21.861  0.00  0.00    +0.000 A 
ATOM      5  C   UNL     1       0.997  17.746  22.129  0.00  0.00    +0.000 A 
ATOM      6  C   UNL     1      -0.293  18.090  22.571  0.00  0.00    +0.000 A 
ATOM      7  C   UNL     1      -1.303  17.117  22.785  0.00  0.00    +0.000 A 
ATOM      8  C   UNL     1      -1.016  15.786  22.566  0.00  0.00    +0.000 A 
ATOM      9  C   UNL     1      -1.700  14.520  22.851  0.00  0.00    +0.000 A 
ATOM     10  C   UNL     1      -0.795  13.485  22.538  0.00  0.00    +0.000 A 
ATOM     11  C   UNL     1      -1.108  12.155  22.697  0.00  0.00    +0.000 A 
ATOM     12  N   UNL     1      -2.182  11.833  23.415  0.00  0.00    +0.000 NA
ATOM     13  C   UNL     1      -3.064  12.783  23.698  0.00  0.00    +0.000 A 
ATOM     14  C   UNL     1      -4.171  12.313  24.343  0.00  0.00    +0.000 A 
ATOM     15  C   UNL     1      -5.383  12.763  23.876  0.00  0.00    +0.000 A 
ATOM     16  C   UNL     1      -5.436  14.049  23.367  0.00  0.00    +0.000 A 
ATOM     17 BR   UNL     1      -7.124  14.704  22.834  0.00  0.00    +0.000 Br
ATOM     18  C   UNL     1      -4.254  14.800  23.193  0.00  0.00    +0.000 A 
ATOM     19  C   UNL     1      -3.000  14.124  23.264  0.00  0.00    +0.000 A 
ENDROOT
BRANCH  11  20
ATOM     20  N   UNL     1      -0.430  11.165  22.052  0.00  0.00    +0.000 N 
ATOM     21  C   UNL     1      -0.703  10.906  20.624  0.00  0.00    +0.000 C 
ATOM     22  C   UNL     1       0.539  10.198  19.996  0.00  0.00    +0.000 C 
ATOM     23  N   UNL     1       0.879   9.045  20.842  0.00  0.00    +0.000 N 
ATOM     24  C   UNL     1       1.461   7.915  20.324  0.00  0.00    +0.000 A 
ATOM     25  C   UNL     1       1.273   6.708  21.001  0.00  0.00    +0.000 A 
ATOM     26  C   UNL     1       1.833   5.539  20.504  0.00  0.00    +0.000 A 
ATOM     27  C   UNL     1       2.567   5.594  19.345  0.00  0.00    +0.000 A 
ATOM     28  C   UNL     1       2.703   6.829  18.712  0.00  0.00    +0.000 A 
ATOM     29  N   UNL     1       2.148   7.973  19.169  0.00  0.00    +0.000 NA
ATOM     30  C   UNL     1       1.167   9.384  22.247  0.00  0.00    +0.000 C 
ATOM     31  C   UNL     1      -0.126   9.964  22.832  0.00  0.00    +0.000 C 
ENDBRANCH  11  20
TORSDOF 1
ENDMDL
MODEL 5
REMARK VINA RESULT:      -7.8      2.811      4.237
REMARK  Name = 
REMARK  1 active torsions:
REMARK  status: ('A' for Active; 'I' for Inactive)
REMARK    1  A    between atoms: C_11  and  N_12
REMARK                            x       y       z     vdW  Elec       q    Type
REMARK                         _______ _______ _______ _____ _____    ______ ____
ROOT
ATOM      1  O   UNL     1       1.941  12.725  19.248  0.00  0.00    +0.000 OA
ATOM      2  C   UNL     1       0.966  13.383  19.562  0.00  0.00    +0.000 C 
ATOM      3  C   UNL     1       0.785  14.774  19.198  0.00  0.00    +0.000 A 
ATOM      4  C   UNL     1       1.759  15.573  18.617  0.00  0.00    +0.000 A 
ATOM      5  C   UNL     1       1.443  16.906  18.441  0.00  0.00    +0.000 A 
ATOM      6  C   UNL     1       0.172  17.372  18.823  0.00  0.00    +0.000 A 
ATOM      7  C   UNL     1      -0.797  16.524  19.417  0.00  0.00    +0.000 A 
ATOM      8  C   UNL     1      -0.487  15.199  19.644  0.00  0.00    +0.000 A 
ATOM      9  C   UNL     1      -1.118  14.101  20.383  0.00  0.00    +0.000 A 
ATOM     10  C   UNL     1      -0.206  13.026  20.382  0.00  0.00    +0.000 A 
ATOM     11  C   UNL     1      -0.472  11.827  21.000  0.00  0.00    +0.000 A 
ATOM     12  N   UNL     1      -1.494  11.761  21.852  0.00  0.00    +0.000 NA
ATOM     13  C   UNL     1      -2.383  12.746  21.854  0.00  0.00    +0.000 A 
ATOM     14  C   UNL     1      -3.436  12.517  22.690  0.00  0.00    +0.000 A 
ATOM     15  C   UNL     1      -4.686  12.774  22.177  0.00  0.00    +0.000 A 
ATOM     16  C   UNL     1      -4.804  13.811  21.268  0.00  0.00    +0.000 A 
ATOM     17 BR   UNL     1      -6.538  14.237  20.654  0.00  0.00    +0.000 Br
ATOM     18  C   UNL     1      -3.655  14.465  20.774  0.00  0.00    +0.000 A 
ATOM     19  C   UNL     1      -2.380  13.860  20.989  0.00  0.00    +0.000 A 
ENDROOT
BRANCH  11  20
ATOM     20  N   UNL     1       0.193  10.681  20.686  0.00  0.00    +0.000 N 
ATOM     21  C   UNL     1       0.081  10.124  19.323  0.00  0.00    +0.000 C 
ATOM     22  C   UNL     1       1.326   9.224  19.044  0.00  0.00    +0.000 C 
ATOM     23  N   UNL     1       1.457   8.273  20.158  0.00  0.00    +0.000 N 
ATOM     24  C   UNL     1       1.999   7.025  19.983  0.00  0.00    +0.000 A 
ATOM     25  C   UNL     1       1.626   6.014  20.871  0.00  0.00    +0.000 A 
ATOM     26  C   UNL     1       2.140   4.732  20.721  0.00  0.00    +0.000 A 
ATOM     27  C   UNL     1       3.016   4.485  19.693  0.00  0.00    +0.000 A 
ATOM     28  C   UNL     1       3.337   5.536  18.835  0.00  0.00    +0.000 A 
ATOM     29  N   UNL     1       2.828   6.783  18.952  0.00  0.00    +0.000 NA
ATOM     30  C   UNL     1       1.594   8.902  21.483  0.00  0.00    +0.000 C 
ATOM     31  C   UNL     1       0.293   9.671  21.741  0.00  0.00    +0.000 C 
ENDBRANCH  11  20
TORSDOF 1
ENDMDL
MODEL 6
REMARK VINA RESULT:      -7.7      3.256      6.208
REMARK  Name = 
REMARK  1 active torsions:
REMARK  status: ('A' for Active; 'I' for Inactive)
REMARK    1  A    between atoms: C_11  and  N_12
REMARK                            x       y       z     vdW  Elec       q    Type
REMARK                         _______ _______ _______ _____ _____    ______ ____
ROOT
ATOM      1  O   UNL     1       0.780  14.285  22.313  0.00  0.00    +0.000 OA
ATOM      2  C   UNL     1      -0.250  14.651  22.850  0.00  0.00    +0.000 C 
ATOM      3  C   UNL     1      -0.454  15.990  23.367  0.00  0.00    +0.000 A 
ATOM      4  C   UNL     1       0.537  16.953  23.482  0.00  0.00    +0.000 A 
ATOM      5  C   UNL     1       0.182  18.136  24.100  0.00  0.00    +0.000 A 
ATOM      6  C   UNL     1      -1.140  18.315  24.546  0.00  0.00    +0.000 A 
ATOM      7  C   UNL     1      -2.125  17.303  24.413  0.00  0.00    +0.000 A 
ATOM      8  C   UNL     1      -1.782  16.097  23.839  0.00  0.00    +0.000 A 
ATOM      9  C   UNL     1      -2.436  14.791  23.708  0.00  0.00    +0.000 A 
ATOM     10  C   UNL     1      -1.481  13.905  23.166  0.00  0.00    +0.000 A 
ATOM     11  C   UNL     1      -1.756  12.581  22.918  0.00  0.00    +0.000 A 
ATOM     12  N   UNL     1      -2.854  12.046  23.449  0.00  0.00    +0.000 NA
ATOM     13  C   UNL     1      -3.780  12.858  23.940  0.00  0.00    +0.000 A 
ATOM     14  C   UNL     1      -4.902  12.202  24.358  0.00  0.00    +0.000 A 
ATOM     15  C   UNL     1      -6.103  12.746  23.968  0.00  0.00    +0.000 A 
ATOM     16  C   UNL     1      -6.175  14.123  23.847  0.00  0.00    +0.000 A 
ATOM     17 BR   UNL     1      -7.855  14.873  23.426  0.00  0.00    +0.000 Br
ATOM     18  C   UNL     1      -5.012  14.913  23.965  0.00  0.00    +0.000 A 
ATOM     19  C   UNL     1      -3.740  14.268  23.913  0.00  0.00    +0.000 A 
ENDROOT
BRANCH  11  20
ATOM     20  N   UNL     1      -1.012  11.831  22.058  0.00  0.00    +0.000 N 
ATOM     21  C   UNL     1      -1.521  11.565  20.697  0.00  0.00    +0.000 C 
ATOM     22  C   UNL     1      -0.314  11.235  19.765  0.00  0.00    +0.000 C 
ATOM     23  N   UNL     1       0.483  10.181  20.410  0.00  0.00    +0.000 N 
ATOM     24  C   UNL     1       1.199   9.266  19.679  0.00  0.00    +0.000 A 
ATOM     25  C   UNL     1       1.475   8.028  20.263  0.00  0.00    +0.000 A 
ATOM     26  C   UNL     1       2.184   7.068  19.553  0.00  0.00    +0.000 A 
ATOM     27  C   UNL     1       2.605   7.361  18.280  0.00  0.00    +0.000 A 
ATOM     28  C   UNL     1       2.284   8.611  17.752  0.00  0.00    +0.000 A 
ATOM     29  N   UNL     1       1.576   9.548  18.419  0.00  0.00    +0.000 NA
ATOM     30  C   UNL     1       0.982  10.530  21.752  0.00  0.00    +0.000 C 
ATOM     31  C   UNL     1      -0.252  10.725  22.641  0.00  0.00    +0.000 C 
ENDBRANCH  11  20
TORSDOF 1
ENDMDL
MODEL 7
REMARK VINA RESULT:      -7.5      1.285      1.968
REMARK  Name = 
REMARK  1 active torsions:
REMARK  status: ('A' for Active; 'I' for Inactive)
REMARK    1  A    between atoms: C_11  and  N_12
REMARK                            x       y       z     vdW  Elec       q    Type
REMARK                         _______ _______ _______ _____ _____    ______ ____
ROOT
ATOM      1  O   UNL     1      -1.817   9.739  17.703  0.00  0.00    +0.000 OA
ATOM      2  C   UNL     1      -2.250  10.667  18.363  0.00  0.00    +0.000 C 
ATOM      3  C   UNL     1      -3.586  11.207  18.207  0.00  0.00    +0.000 A 
ATOM      4  C   UNL     1      -4.462  10.871  17.185  0.00  0.00    +0.000 A 
ATOM      5  C   UNL     1      -5.651  11.570  17.134  0.00  0.00    +0.000 A 
ATOM      6  C   UNL     1      -5.925  12.544  18.112  0.00  0.00    +0.000 A 
ATOM      7  C   UNL     1      -5.001  12.862  19.140  0.00  0.00    +0.000 A 
ATOM      8  C   UNL     1      -3.787  12.208  19.184  0.00  0.00    +0.000 A 
ATOM      9  C   UNL     1      -2.543  12.388  19.939  0.00  0.00    +0.000 A 
ATOM     10  C   UNL     1      -1.598  11.493  19.394  0.00  0.00    +0.000 A 
ATOM     11  C   UNL     1      -0.308  11.403  19.861  0.00  0.00    +0.000 A 
ATOM     12  N   UNL     1       0.150  12.364  20.661  0.00  0.00    +0.000 NA
ATOM     13  C   UNL     1      -0.720  13.201  21.210  0.00  0.00    +0.000 A 
ATOM     14  C   UNL     1      -0.147  14.071  22.091  0.00  0.00    +0.000 A 
ATOM     15  C   UNL     1      -0.797  14.237  23.291  0.00  0.00    +0.000 A 
ATOM     16  C   UNL     1      -2.178  14.145  23.290  0.00  0.00    +0.000 A 
ATOM     17 BR   UNL     1      -3.074  14.488  24.916  0.00  0.00    +0.000 Br
ATOM     18  C   UNL     1      -2.868  13.738  22.128  0.00  0.00    +0.000 A 
ATOM     19  C   UNL     1      -2.123  13.145  21.065  0.00  0.00    +0.000 A 
ENDROOT
BRANCH  11  20
ATOM     20  N   UNL     1       0.475  10.313  19.631  0.00  0.00    +0.000 N 
ATOM     21  C   UNL     1       0.864   9.972  18.248  0.00  0.00    +0.000 C 
ATOM     22  C   UNL     1       2.167   9.115  18.288  0.00  0.00    +0.000 C 
ATOM     23  N   UNL     1       1.950   8.003  19.226  0.00  0.00    +0.000 N 
ATOM     24  C   UNL     1       2.576   6.792  19.068  0.00  0.00    +0.000 A 
ATOM     25  C   UNL     1       1.965   5.660  19.612  0.00  0.00    +0.000 A 
ATOM     26  C   UNL     1       2.557   4.413  19.463  0.00  0.00    +0.000 A 
ATOM     27  C   UNL     1       3.743   4.318  18.778  0.00  0.00    +0.000 A 
ATOM     28  C   UNL     1       4.292   5.486  18.248  0.00  0.00    +0.000 A 
ATOM     29  N   UNL     1       3.719   6.704  18.364  0.00  0.00    +0.000 NA
ATOM     30  C   UNL     1       1.596   8.420  20.594  0.00  0.00    +0.000 C 
ATOM     31  C   UNL     1       0.252   9.152  20.494  0.00  0.00    +0.000 C 
ENDBRANCH  11  20
TORSDOF 1
ENDMDL
MODEL 8
REMARK VINA RESULT:      -7.5      8.354     11.681
REMARK  Name = 
REMARK  1 active torsions:
REMARK  status: ('A' for Active; 'I' for Inactive)
REMARK    1  A    between atoms: C_11  and  N_12
REMARK                            x       y       z     vdW  Elec       q    Type
REMARK                         _______ _______ _______ _____ _____    ______ ____
ROOT
ATOM      1  O   UNL     1       7.147  14.187  17.757  0.00  0.00    +0.000 OA
ATOM      2  C   UNL     1       7.920  14.115  18.695  0.00  0.00    +0.000 C 
ATOM      3  C   UNL     1       9.271  13.602  18.584  0.00  0.00    +0.000 A 
ATOM      4  C   UNL     1       9.788  12.969  17.464  0.00  0.00    +0.000 A 
ATOM      5  C   UNL     1      11.061  12.447  17.580  0.00  0.00    +0.000 A 
ATOM      6  C   UNL     1      11.767  12.604  18.787  0.00  0.00    +0.000 A 
ATOM      7  C   UNL     1      11.202  13.256  19.913  0.00  0.00    +0.000 A 
ATOM      8  C   UNL     1       9.915  13.745  19.835  0.00  0.00    +0.000 A 
ATOM      9  C   UNL     1       8.952  14.282  20.802  0.00  0.00    +0.000 A 
ATOM     10  C   UNL     1       7.729  14.444  20.119  0.00  0.00    +0.000 A 
ATOM     11  C   UNL     1       6.595  14.922  20.732  0.00  0.00    +0.000 A 
ATOM     12  N   UNL     1       6.565  14.979  22.062  0.00  0.00    +0.000 NA
ATOM     13  C   UNL     1       7.705  14.858  22.729  0.00  0.00    +0.000 A 
ATOM     14  C   UNL     1       7.563  15.039  24.074  0.00  0.00    +0.000 A 
ATOM     15  C   UNL     1       8.492  15.853  24.678  0.00  0.00    +0.000 A 
ATOM     16  C   UNL     1       9.778  15.849  24.165  0.00  0.00    +0.000 A 
ATOM     17 BR   UNL     1      11.077  16.878  25.068  0.00  0.00    +0.000 Br
ATOM     18  C   UNL     1      10.070  15.157  22.971  0.00  0.00    +0.000 A 
ATOM     19  C   UNL     1       8.986  14.719  22.153  0.00  0.00    +0.000 A 
ENDROOT
BRANCH  11  20
ATOM     20  N   UNL     1       5.552  15.447  20.030  0.00  0.00    +0.000 N 
ATOM     21  C   UNL     1       5.536  16.892  19.722  0.00  0.00    +0.000 C 
ATOM     22  C   UNL     1       4.627  17.129  18.475  0.00  0.00    +0.000 C 
ATOM     23  N   UNL     1       3.335  16.473  18.725  0.00  0.00    +0.000 N 
ATOM     24  C   UNL     1       2.166  16.949  18.186  0.00  0.00    +0.000 A 
ATOM     25  C   UNL     1       0.970  16.657  18.844  0.00  0.00    +0.000 A 
ATOM     26  C   UNL     1      -0.234  17.132  18.341  0.00  0.00    +0.000 A 
ATOM     27  C   UNL     1      -0.223  17.884  17.192  0.00  0.00    +0.000 A 
ATOM     28  C   UNL     1       1.007  18.150  16.592  0.00  0.00    +0.000 A 
ATOM     29  N   UNL     1       2.190  17.715  17.081  0.00  0.00    +0.000 NA
ATOM     30  C   UNL     1       3.428  15.027  18.995  0.00  0.00    +0.000 C 
ATOM     31  C   UNL     1       4.232  14.875  20.292  0.00  0.00    +0.000 C 
ENDBRANCH  11  20
TORSDOF 1
ENDMDL
MODEL 9
REMARK VINA RESULT:      -7.4      7.775     11.505
REMARK  Name = 
REMARK  1 active torsions:
REMARK  status: ('A' for Active; 'I' for Inactive)
REMARK    1  A    between atoms: C_11  and  N_12
REMARK                            x       y       z     vdW  Elec       q    Type
REMARK                         _______ _______ _______ _____ _____    ______ ____
ROOT
ATOM      1  O   UNL     1       4.408  14.462  22.894  0.00  0.00    +0.000 OA
ATOM      2  C   UNL     1       5.551  14.119  22.650  0.00  0.00    +0.000 C 
ATOM      3  C   UNL     1       6.343  13.283  23.530  0.00  0.00    +0.000 A 
ATOM      4  C   UNL     1       5.980  12.924  24.819  0.00  0.00    +0.000 A 
ATOM      5  C   UNL     1       6.911  12.212  25.549  0.00  0.00    +0.000 A 
ATOM      6  C   UNL     1       8.140  11.868  24.957  0.00  0.00    +0.000 A 
ATOM      7  C   UNL     1       8.476  12.258  23.635  0.00  0.00    +0.000 A 
ATOM      8  C   UNL     1       7.579  13.008  22.903  0.00  0.00    +0.000 A 
ATOM      9  C   UNL     1       7.637  13.738  21.633  0.00  0.00    +0.000 A 
ATOM     10  C   UNL     1       6.429  14.458  21.517  0.00  0.00    +0.000 A 
ATOM     11  C   UNL     1       6.150  15.267  20.441  0.00  0.00    +0.000 A 
ATOM     12  N   UNL     1       7.142  15.600  19.617  0.00  0.00    +0.000 NA
ATOM     13  C   UNL     1       8.278  14.920  19.685  0.00  0.00    +0.000 A 
ATOM     14  C   UNL     1       9.178  15.279  18.724  0.00  0.00    +0.000 A 
ATOM     15  C   UNL     1       9.800  14.249  18.060  0.00  0.00    +0.000 A 
ATOM     16  C   UNL     1      10.052  13.088  18.770  0.00  0.00    +0.000 A 
ATOM     17 BR   UNL     1      11.010  11.720  17.890  0.00  0.00    +0.000 Br
ATOM     18  C   UNL     1       9.541  12.921  20.075  0.00  0.00    +0.000 A 
ATOM     19  C   UNL     1       8.531  13.820  20.532  0.00  0.00    +0.000 A 
ENDROOT
BRANCH  11  20
ATOM     20  N   UNL     1       4.879  15.643  20.122  0.00  0.00    +0.000 N 
ATOM     21  C   UNL     1       3.949  14.650  19.548  0.00  0.00    +0.000 C 
ATOM     22  C   UNL     1       2.485  15.116  19.822  0.00  0.00    +0.000 C 
ATOM     23  N   UNL     1       2.360  16.508  19.365  0.00  0.00    +0.000 N 
ATOM     24  C   UNL     1       1.171  17.012  18.899  0.00  0.00    +0.000 A 
ATOM     25  C   UNL     1       1.215  18.091  18.014  0.00  0.00    +0.000 A 
ATOM     26  C   UNL     1       0.036  18.622  17.507  0.00  0.00    +0.000 A 
ATOM     27  C   UNL     1      -1.160  18.070  17.892  0.00  0.00    +0.000 A 
ATOM     28  C   UNL     1      -1.132  16.985  18.767  0.00  0.00    +0.000 A 
ATOM     29  N   UNL     1       0.006  16.441  19.253  0.00  0.00    +0.000 NA
ATOM     30  C   UNL     1       3.300  17.446  20.003  0.00  0.00    +0.000 C 
ATOM     31  C   UNL     1       4.709  16.998  19.598  0.00  0.00    +0.000 C 
ENDBRANCH  11  20
TORSDOF 1
ENDMDL
