MODEL 1
REMARK VINA RESULT:      -8.4      0.000      0.000
REMARK  Name = 
REMARK  6 active torsions:
REMARK  status: ('A' for Active; 'I' for Inactive)
REMARK    1  A    between atoms: C_1  and  C_2
REMARK    2  A    between atoms: C_3  and  C_4
REMARK    3  A    between atoms: C_4  and  O_6
REMARK    4  A    between atoms: O_6  and  C_7
REMARK    5  A    between atoms: C_7  and  C_8
REMARK    6  A    between atoms: C_15  and  C_16
REMARK                            x       y       z     vdW  Elec       q    Type
REMARK                         _______ _______ _______ _____ _____    ______ ____
ROOT
ATOM      1  C   UNL     1       1.087   3.178  20.488  0.00  0.00    +0.000 C 
ATOM      2  C   UNL     1       2.520   3.359  20.062  0.00  0.00    +0.000 C 
ATOM      3  C   UNL     1       3.061   4.350  19.321  0.00  0.00    +0.000 C 
ATOM      4  C   UNL     1       4.556   4.427  19.089  0.00  0.00    +0.000 C 
ATOM      5  N   UNL     1       5.225   3.206  19.493  0.00  0.00    +0.000 N 
ATOM      6  C   UNL     1       4.695   2.283  20.330  0.00  0.00    +0.000 C 
ATOM      7  O   UNL     1       5.370   1.390  20.817  0.00  0.00    +0.000 OA
ATOM      8  N   UNL     1       3.361   2.393  20.571  0.00  0.00    +0.000 N 
ATOM      9  H   UNL     1       6.221   3.127  19.351  0.00  0.00    +0.000 HD
ATOM     10  H   UNL     1       2.992   1.665  21.173  0.00  0.00    +0.000 HD
ENDROOT
BRANCH   4  11
ATOM     11  C   UNL     1       4.972   4.745  17.662  0.00  0.00    +0.000 A 
ATOM     12  C   UNL     1       5.386   6.046  17.325  0.00  0.00    +0.000 A 
ATOM     13  C   UNL     1       5.728   6.365  16.012  0.00  0.00    +0.000 A 
ATOM     14  C   UNL     1       5.672   5.392  15.019  0.00  0.00    +0.000 A 
ATOM     15  C   UNL     1       5.295   4.088  15.342  0.00  0.00    +0.000 A 
ATOM     16  C   UNL     1       4.955   3.764  16.657  0.00  0.00    +0.000 A 
ENDBRANCH   4  11
BRANCH   3  17
ATOM     17  C   UNL     1       2.311   5.531  18.818  0.00  0.00    +0.000 C 
ATOM     18  O   UNL     1       1.607   5.492  17.820  0.00  0.00    +0.000 OA
BRANCH  17  19
ATOM     19  O   UNL     1       2.510   6.612  19.603  0.00  0.00    +0.000 OA
BRANCH  19  20
ATOM     20  C   UNL     1       2.201   7.892  19.026  0.00  0.00    +0.000 C 
BRANCH  20  21
ATOM     21  C   UNL     1       1.412   8.708  20.023  0.00  0.00    +0.000 A 
ATOM     22  C   UNL     1       0.757   9.891  19.638  0.00  0.00    +0.000 A 
ATOM     23  C   UNL     1       0.058  10.649  20.577  0.00  0.00    +0.000 A 
ATOM     24  C   UNL     1      -0.005  10.217  21.895  0.00  0.00    +0.000 A 
ATOM     25  F   UNL     1      -0.659  10.957  22.801  0.00  0.00    +0.000 F 
ATOM     26  C   UNL     1       0.600   9.030  22.290  0.00  0.00    +0.000 A 
ATOM     27  C   UNL     1       1.302   8.271  21.353  0.00  0.00    +0.000 A 
ENDBRANCH  20  21
ENDBRANCH  19  20
ENDBRANCH  17  19
ENDBRANCH   3  17
TORSDOF 5
ENDMDL
MODEL 2
REMARK VINA RESULT:      -8.4      0.827      1.014
REMARK  Name = 
REMARK  6 active torsions:
REMARK  status: ('A' for Active; 'I' for Inactive)
REMARK    1  A    between atoms: C_1  and  C_2
REMARK    2  A    between atoms: C_3  and  C_4
REMARK    3  A    between atoms: C_4  and  O_6
REMARK    4  A    between atoms: O_6  and  C_7
REMARK    5  A    between atoms: C_7  and  C_8
REMARK    6  A    between atoms: C_15  and  C_16
REMARK                            x       y       z     vdW  Elec       q    Type
REMARK                         _______ _______ _______ _____ _____    ______ ____
ROOT
ATOM      1  C   UNL     1       1.053   3.059  20.291  0.00  0.00    +0.000 C 
ATOM      2  C   UNL     1       2.498   3.272  19.924  0.00  0.00    +0.000 C 
ATOM      3  C   UNL     1       3.045   4.267  19.194  0.00  0.00    +0.000 C 
ATOM      4  C   UNL     1       4.546   4.380  19.023  0.00  0.00    +0.000 C 
ATOM      5  N   UNL     1       5.228   3.181  19.472  0.00  0.00    +0.000 N 
ATOM      6  C   UNL     1       4.686   2.256  20.298  0.00  0.00    +0.000 C 
ATOM      7  O   UNL     1       5.362   1.386  20.824  0.00  0.00    +0.000 OA
ATOM      8  N   UNL     1       3.341   2.334  20.480  0.00  0.00    +0.000 N 
ATOM      9  H   UNL     1       6.231   3.127  19.372  0.00  0.00    +0.000 HD
ATOM     10  H   UNL     1       2.965   1.604  21.077  0.00  0.00    +0.000 HD
ENDROOT
BRANCH   4  11
ATOM     11  C   UNL     1       5.015   4.691  17.611  0.00  0.00    +0.000 A 
ATOM     12  C   UNL     1       5.558   5.953  17.315  0.00  0.00    +0.000 A 
ATOM     13  C   UNL     1       5.951   6.270  16.015  0.00  0.00    +0.000 A 
ATOM     14  C   UNL     1       5.817   5.332  14.996  0.00  0.00    +0.000 A 
ATOM     15  C   UNL     1       5.310   4.064  15.280  0.00  0.00    +0.000 A 
ATOM     16  C   UNL     1       4.919   3.742  16.581  0.00  0.00    +0.000 A 
ENDBRANCH   4  11
BRANCH   3  17
ATOM     17  C   UNL     1       2.288   5.422  18.644  0.00  0.00    +0.000 C 
ATOM     18  O   UNL     1       1.556   5.331  17.669  0.00  0.00    +0.000 OA
BRANCH  17  19
ATOM     19  O   UNL     1       2.515   6.546  19.358  0.00  0.00    +0.000 OA
BRANCH  19  20
ATOM     20  C   UNL     1       2.635   7.770  18.613  0.00  0.00    +0.000 C 
BRANCH  20  21
ATOM     21  C   UNL     1       1.523   8.708  19.019  0.00  0.00    +0.000 A 
ATOM     22  C   UNL     1       0.829   9.470  18.063  0.00  0.00    +0.000 A 
ATOM     23  C   UNL     1      -0.174  10.355  18.456  0.00  0.00    +0.000 A 
ATOM     24  C   UNL     1      -0.499  10.466  19.801  0.00  0.00    +0.000 A 
ATOM     25  F   UNL     1      -1.448  11.332  20.181  0.00  0.00    +0.000 F 
ATOM     26  C   UNL     1       0.146   9.694  20.760  0.00  0.00    +0.000 A 
ATOM     27  C   UNL     1       1.151   8.809  20.369  0.00  0.00    +0.000 A 
ENDBRANCH  20  21
ENDBRANCH  19  20
ENDBRANCH  17  19
ENDBRANCH   3  17
TORSDOF 5
ENDMDL
MODEL 3
REMARK VINA RESULT:      -8.4      0.835      1.675
REMARK  Name = 
REMARK  6 active torsions:
REMARK  status: ('A' for Active; 'I' for Inactive)
REMARK    1  A    between atoms: C_1  and  C_2
REMARK    2  A    between atoms: C_3  and  C_4
REMARK    3  A    between atoms: C_4  and  O_6
REMARK    4  A    between atoms: O_6  and  C_7
REMARK    5  A    between atoms: C_7  and  C_8
REMARK    6  A    between atoms: C_15  and  C_16
REMARK                            x       y       z     vdW  Elec       q    Type
REMARK                         _______ _______ _______ _____ _____    ______ ____
ROOT
ATOM      1  C   UNL     1       1.034   3.041  20.089  0.00  0.00    +0.000 C 
ATOM      2  C   UNL     1       2.495   3.256  19.794  0.00  0.00    +0.000 C 
ATOM      3  C   UNL     1       3.076   4.258  19.100  0.00  0.00    +0.000 C 
ATOM      4  C   UNL     1       4.583   4.372  19.004  0.00  0.00    +0.000 C 
ATOM      5  N   UNL     1       5.244   3.169  19.475  0.00  0.00    +0.000 N 
ATOM      6  C   UNL     1       4.663   2.237  20.266  0.00  0.00    +0.000 C 
ATOM      7  O   UNL     1       5.312   1.363  20.817  0.00  0.00    +0.000 OA
ATOM      8  N   UNL     1       3.310   2.314  20.383  0.00  0.00    +0.000 N 
ATOM      9  H   UNL     1       6.250   3.116  19.424  0.00  0.00    +0.000 HD
ATOM     10  H   UNL     1       2.906   1.579  20.954  0.00  0.00    +0.000 HD
ENDROOT
BRANCH   4  11
ATOM     11  C   UNL     1       5.120   4.695  17.619  0.00  0.00    +0.000 A 
ATOM     12  C   UNL     1       4.962   3.772  16.572  0.00  0.00    +0.000 A 
ATOM     13  C   UNL     1       5.488   4.033  15.307  0.00  0.00    +0.000 A 
ATOM     14  C   UNL     1       6.170   5.222  15.067  0.00  0.00    +0.000 A 
ATOM     15  C   UNL     1       6.308   6.164  16.086  0.00  0.00    +0.000 A 
ATOM     16  C   UNL     1       5.780   5.907  17.353  0.00  0.00    +0.000 A 
ENDBRANCH   4  11
BRANCH   3  17
ATOM     17  C   UNL     1       2.346   5.418  18.524  0.00  0.00    +0.000 C 
ATOM     18  O   UNL     1       1.562   5.310  17.592  0.00  0.00    +0.000 OA
BRANCH  17  19
ATOM     19  O   UNL     1       2.661   6.565  19.163  0.00  0.00    +0.000 OA
BRANCH  19  20
ATOM     20  C   UNL     1       2.640   7.768  18.375  0.00  0.00    +0.000 C 
BRANCH  20  21
ATOM     21  C   UNL     1       1.578   8.696  18.916  0.00  0.00    +0.000 A 
ATOM     22  C   UNL     1       1.236   8.694  20.279  0.00  0.00    +0.000 A 
ATOM     23  C   UNL     1       0.231   9.535  20.758  0.00  0.00    +0.000 A 
ATOM     24  C   UNL     1      -0.418  10.393  19.881  0.00  0.00    +0.000 A 
ATOM     25  F   UNL     1      -1.397  11.186  20.337  0.00  0.00    +0.000 F 
ATOM     26  C   UNL     1      -0.069  10.442  18.536  0.00  0.00    +0.000 A 
ATOM     27  C   UNL     1       0.934   9.600  18.055  0.00  0.00    +0.000 A 
ENDBRANCH  20  21
ENDBRANCH  19  20
ENDBRANCH  17  19
ENDBRANCH   3  17
TORSDOF 5
ENDMDL
MODEL 4
REMARK VINA RESULT:      -8.1      1.003      1.545
REMARK  Name = 
REMARK  6 active torsions:
REMARK  status: ('A' for Active; 'I' for Inactive)
REMARK    1  A    between atoms: C_1  and  C_2
REMARK    2  A    between atoms: C_3  and  C_4
REMARK    3  A    between atoms: C_4  and  O_6
REMARK    4  A    between atoms: O_6  and  C_7
REMARK    5  A    between atoms: C_7  and  C_8
REMARK    6  A    between atoms: C_15  and  C_16
REMARK                            x       y       z     vdW  Elec       q    Type
REMARK                         _______ _______ _______ _____ _____    ______ ____
ROOT
ATOM      1  C   UNL     1       1.051   3.253  20.184  0.00  0.00    +0.000 C 
ATOM      2  C   UNL     1       2.527   3.392  19.916  0.00  0.00    +0.000 C 
ATOM      3  C   UNL     1       3.169   4.344  19.206  0.00  0.00    +0.000 C 
ATOM      4  C   UNL     1       4.682   4.386  19.141  0.00  0.00    +0.000 C 
ATOM      5  N   UNL     1       5.275   3.169  19.663  0.00  0.00    +0.000 N 
ATOM      6  C   UNL     1       4.634   2.290  20.468  0.00  0.00    +0.000 C 
ATOM      7  O   UNL     1       5.230   1.404  21.060  0.00  0.00    +0.000 OA
ATOM      8  N   UNL     1       3.285   2.432  20.552  0.00  0.00    +0.000 N 
ATOM      9  H   UNL     1       6.279   3.068  19.637  0.00  0.00    +0.000 HD
ATOM     10  H   UNL     1       2.834   1.734  21.135  0.00  0.00    +0.000 HD
ENDROOT
BRANCH   4  11
ATOM     11  C   UNL     1       5.263   4.641  17.760  0.00  0.00    +0.000 A 
ATOM     12  C   UNL     1       4.927   3.795  16.690  0.00  0.00    +0.000 A 
ATOM     13  C   UNL     1       5.486   3.988  15.427  0.00  0.00    +0.000 A 
ATOM     14  C   UNL     1       6.381   5.032  15.212  0.00  0.00    +0.000 A 
ATOM     15  C   UNL     1       6.700   5.901  16.255  0.00  0.00    +0.000 A 
ATOM     16  C   UNL     1       6.139   5.712  17.520  0.00  0.00    +0.000 A 
ENDBRANCH   4  11
BRANCH   3  17
ATOM     17  C   UNL     1       2.507   5.518  18.578  0.00  0.00    +0.000 C 
ATOM     18  O   UNL     1       1.758   5.420  17.617  0.00  0.00    +0.000 OA
BRANCH  17  19
ATOM     19  O   UNL     1       2.838   6.666  19.208  0.00  0.00    +0.000 OA
BRANCH  19  20
ATOM     20  C   UNL     1       2.006   7.057  20.314  0.00  0.00    +0.000 C 
BRANCH  20  21
ATOM     21  C   UNL     1       1.463   8.443  20.060  0.00  0.00    +0.000 A 
ATOM     22  C   UNL     1       1.551   9.037  18.789  0.00  0.00    +0.000 A 
ATOM     23  C   UNL     1       1.072  10.330  18.577  0.00  0.00    +0.000 A 
ATOM     24  C   UNL     1       0.487  11.023  19.628  0.00  0.00    +0.000 A 
ATOM     25  F   UNL     1       0.046  12.272  19.430  0.00  0.00    +0.000 F 
ATOM     26  C   UNL     1       0.352  10.441  20.883  0.00  0.00    +0.000 A 
ATOM     27  C   UNL     1       0.832   9.148  21.098  0.00  0.00    +0.000 A 
ENDBRANCH  20  21
ENDBRANCH  19  20
ENDBRANCH  17  19
ENDBRANCH   3  17
TORSDOF 5
ENDMDL
MODEL 5
REMARK VINA RESULT:      -8.0      2.118      4.028
REMARK  Name = 
REMARK  6 active torsions:
REMARK  status: ('A' for Active; 'I' for Inactive)
REMARK    1  A    between atoms: C_1  and  C_2
REMARK    2  A    between atoms: C_3  and  C_4
REMARK    3  A    between atoms: C_4  and  O_6
REMARK    4  A    between atoms: O_6  and  C_7
REMARK    5  A    between atoms: C_7  and  C_8
REMARK    6  A    between atoms: C_15  and  C_16
REMARK                            x       y       z     vdW  Elec       q    Type
REMARK                         _______ _______ _______ _____ _____    ______ ____
ROOT
ATOM      1  C   UNL     1       7.316   8.315  17.414  0.00  0.00    +0.000 C 
ATOM      2  C   UNL     1       6.823   6.893  17.465  0.00  0.00    +0.000 C 
ATOM      3  C   UNL     1       5.573   6.426  17.260  0.00  0.00    +0.000 C 
ATOM      4  C   UNL     1       5.286   4.939  17.239  0.00  0.00    +0.000 C 
ATOM      5  N   UNL     1       6.410   4.169  17.735  0.00  0.00    +0.000 N 
ATOM      6  C   UNL     1       7.678   4.634  17.822  0.00  0.00    +0.000 C 
ATOM      7  O   UNL     1       8.625   3.893  18.031  0.00  0.00    +0.000 OA
ATOM      8  N   UNL     1       7.830   5.979  17.694  0.00  0.00    +0.000 N 
ATOM      9  H   UNL     1       6.320   3.166  17.802  0.00  0.00    +0.000 HD
ATOM     10  H   UNL     1       8.788   6.296  17.800  0.00  0.00    +0.000 HD
ENDROOT
BRANCH   4  11
ATOM     11  C   UNL     1       4.044   4.510  18.003  0.00  0.00    +0.000 A 
ATOM     12  C   UNL     1       2.890   4.118  17.303  0.00  0.00    +0.000 A 
ATOM     13  C   UNL     1       1.728   3.764  17.988  0.00  0.00    +0.000 A 
ATOM     14  C   UNL     1       1.703   3.787  19.379  0.00  0.00    +0.000 A 
ATOM     15  C   UNL     1       2.849   4.142  20.090  0.00  0.00    +0.000 A 
ATOM     16  C   UNL     1       4.015   4.493  19.407  0.00  0.00    +0.000 A 
ENDBRANCH   4  11
BRANCH   3  17
ATOM     17  C   UNL     1       4.412   7.269  16.870  0.00  0.00    +0.000 C 
ATOM     18  O   UNL     1       4.121   7.496  15.705  0.00  0.00    +0.000 OA
BRANCH  17  19
ATOM     19  O   UNL     1       3.748   7.726  17.954  0.00  0.00    +0.000 OA
BRANCH  19  20
ATOM     20  C   UNL     1       2.520   8.432  17.707  0.00  0.00    +0.000 C 
BRANCH  20  21
ATOM     21  C   UNL     1       1.749   8.553  18.999  0.00  0.00    +0.000 A 
ATOM     22  C   UNL     1       1.933   7.631  20.045  0.00  0.00    +0.000 A 
ATOM     23  C   UNL     1       1.190   7.738  21.220  0.00  0.00    +0.000 A 
ATOM     24  C   UNL     1       0.278   8.775  21.362  0.00  0.00    +0.000 A 
ATOM     25  F   UNL     1      -0.450   8.865  22.483  0.00  0.00    +0.000 F 
ATOM     26  C   UNL     1       0.109   9.722  20.358  0.00  0.00    +0.000 A 
ATOM     27  C   UNL     1       0.849   9.616  19.181  0.00  0.00    +0.000 A 
ENDBRANCH  20  21
ENDBRANCH  19  20
ENDBRANCH  17  19
ENDBRANCH   3  17
TORSDOF 5
ENDMDL
MODEL 6
REMARK VINA RESULT:      -7.9      3.697      6.955
REMARK  Name = 
REMARK  6 active torsions:
REMARK  status: ('A' for Active; 'I' for Inactive)
REMARK    1  A    between atoms: C_1  and  C_2
REMARK    2  A    between atoms: C_3  and  C_4
REMARK    3  A    between atoms: C_4  and  O_6
REMARK    4  A    between atoms: O_6  and  C_7
REMARK    5  A    between atoms: C_7  and  C_8
REMARK    6  A    between atoms: C_15  and  C_16
REMARK                            x       y       z     vdW  Elec       q    Type
REMARK                         _______ _______ _______ _____ _____    ______ ____
ROOT
ATOM      1  C   UNL     1       4.651   1.843  20.073  0.00  0.00    +0.000 C 
ATOM      2  C   UNL     1       3.617   2.719  19.416  0.00  0.00    +0.000 C 
ATOM      3  C   UNL     1       3.767   3.959  18.903  0.00  0.00    +0.000 C 
ATOM      4  C   UNL     1       2.631   4.646  18.172  0.00  0.00    +0.000 C 
ATOM      5  N   UNL     1       1.373   3.950  18.360  0.00  0.00    +0.000 N 
ATOM      6  C   UNL     1       1.263   2.664  18.771  0.00  0.00    +0.000 C 
ATOM      7  O   UNL     1       0.209   2.053  18.703  0.00  0.00    +0.000 OA
ATOM      8  N   UNL     1       2.389   2.107  19.292  0.00  0.00    +0.000 N 
ATOM      9  H   UNL     1       0.537   4.337  17.948  0.00  0.00    +0.000 HD
ATOM     10  H   UNL     1       2.260   1.156  19.621  0.00  0.00    +0.000 HD
ENDROOT
BRANCH   4  11
ATOM     11  C   UNL     1       2.422   6.108  18.531  0.00  0.00    +0.000 A 
ATOM     12  C   UNL     1       2.063   6.464  19.842  0.00  0.00    +0.000 A 
ATOM     13  C   UNL     1       1.823   7.796  20.177  0.00  0.00    +0.000 A 
ATOM     14  C   UNL     1       1.946   8.792  19.212  0.00  0.00    +0.000 A 
ATOM     15  C   UNL     1       2.333   8.459  17.914  0.00  0.00    +0.000 A 
ATOM     16  C   UNL     1       2.578   7.127  17.577  0.00  0.00    +0.000 A 
ENDBRANCH   4  11
BRANCH   3  17
ATOM     17  C   UNL     1       5.057   4.694  18.838  0.00  0.00    +0.000 C 
ATOM     18  O   UNL     1       5.453   5.418  19.740  0.00  0.00    +0.000 OA
BRANCH  17  19
ATOM     19  O   UNL     1       5.706   4.449  17.679  0.00  0.00    +0.000 OA
BRANCH  19  20
ATOM     20  C   UNL     1       5.865   5.561  16.782  0.00  0.00    +0.000 C 
BRANCH  20  21
ATOM     21  C   UNL     1       6.186   5.041  15.400  0.00  0.00    +0.000 A 
ATOM     22  C   UNL     1       7.388   5.383  14.756  0.00  0.00    +0.000 A 
ATOM     23  C   UNL     1       7.656   4.920  13.468  0.00  0.00    +0.000 A 
ATOM     24  C   UNL     1       6.735   4.100  12.830  0.00  0.00    +0.000 A 
ATOM     25  F   UNL     1       6.984   3.673  11.585  0.00  0.00    +0.000 F 
ATOM     26  C   UNL     1       5.559   3.716  13.463  0.00  0.00    +0.000 A 
ATOM     27  C   UNL     1       5.288   4.179  14.751  0.00  0.00    +0.000 A 
ENDBRANCH  20  21
ENDBRANCH  19  20
ENDBRANCH  17  19
ENDBRANCH   3  17
TORSDOF 5
ENDMDL
MODEL 7
REMARK VINA RESULT:      -7.8      3.638      6.850
REMARK  Name = 
REMARK  6 active torsions:
REMARK  status: ('A' for Active; 'I' for Inactive)
REMARK    1  A    between atoms: C_1  and  C_2
REMARK    2  A    between atoms: C_3  and  C_4
REMARK    3  A    between atoms: C_4  and  O_6
REMARK    4  A    between atoms: O_6  and  C_7
REMARK    5  A    between atoms: C_7  and  C_8
REMARK    6  A    between atoms: C_15  and  C_16
REMARK                            x       y       z     vdW  Elec       q    Type
REMARK                         _______ _______ _______ _____ _____    ______ ____
ROOT
ATOM      1  C   UNL     1       4.587   1.961  20.388  0.00  0.00    +0.000 C 
ATOM      2  C   UNL     1       3.599   2.804  19.624  0.00  0.00    +0.000 C 
ATOM      3  C   UNL     1       3.791   4.005  19.038  0.00  0.00    +0.000 C 
ATOM      4  C   UNL     1       2.703   4.654  18.207  0.00  0.00    +0.000 C 
ATOM      5  N   UNL     1       1.427   3.986  18.379  0.00  0.00    +0.000 N 
ATOM      6  C   UNL     1       1.279   2.732  18.867  0.00  0.00    +0.000 C 
ATOM      7  O   UNL     1       0.221   2.130  18.788  0.00  0.00    +0.000 OA
ATOM      8  N   UNL     1       2.369   2.198  19.480  0.00  0.00    +0.000 N 
ATOM      9  H   UNL     1       0.618   4.354  17.901  0.00  0.00    +0.000 HD
ATOM     10  H   UNL     1       2.211   1.273  19.864  0.00  0.00    +0.000 HD
ENDROOT
BRANCH   4  11
ATOM     11  C   UNL     1       2.498   6.139  18.458  0.00  0.00    +0.000 A 
ATOM     12  C   UNL     1       2.067   6.585  19.720  0.00  0.00    +0.000 A 
ATOM     13  C   UNL     1       1.831   7.939  19.953  0.00  0.00    +0.000 A 
ATOM     14  C   UNL     1       2.029   8.868  18.935  0.00  0.00    +0.000 A 
ATOM     15  C   UNL     1       2.487   8.446  17.687  0.00  0.00    +0.000 A 
ATOM     16  C   UNL     1       2.728   7.091  17.452  0.00  0.00    +0.000 A 
ENDBRANCH   4  11
BRANCH   3  17
ATOM     17  C   UNL     1       5.094   4.720  18.989  0.00  0.00    +0.000 C 
ATOM     18  O   UNL     1       5.412   5.573  19.804  0.00  0.00    +0.000 OA
BRANCH  17  19
ATOM     19  O   UNL     1       5.849   4.298  17.951  0.00  0.00    +0.000 OA
BRANCH  19  20
ATOM     20  C   UNL     1       6.504   5.316  17.175  0.00  0.00    +0.000 C 
BRANCH  20  21
ATOM     21  C   UNL     1       6.476   4.923  15.717  0.00  0.00    +0.000 A 
ATOM     22  C   UNL     1       5.374   4.245  15.168  0.00  0.00    +0.000 A 
ATOM     23  C   UNL     1       5.377   3.861  13.827  0.00  0.00    +0.000 A 
ATOM     24  C   UNL     1       6.470   4.171  13.029  0.00  0.00    +0.000 A 
ATOM     25  F   UNL     1       6.482   3.784  11.746  0.00  0.00    +0.000 F 
ATOM     26  C   UNL     1       7.553   4.876  13.540  0.00  0.00    +0.000 A 
ATOM     27  C   UNL     1       7.554   5.260  14.881  0.00  0.00    +0.000 A 
ENDBRANCH  20  21
ENDBRANCH  19  20
ENDBRANCH  17  19
ENDBRANCH   3  17
TORSDOF 5
ENDMDL
MODEL 8
REMARK VINA RESULT:      -7.8      2.685      4.056
REMARK  Name = 
REMARK  6 active torsions:
REMARK  status: ('A' for Active; 'I' for Inactive)
REMARK    1  A    between atoms: C_1  and  C_2
REMARK    2  A    between atoms: C_3  and  C_4
REMARK    3  A    between atoms: C_4  and  O_6
REMARK    4  A    between atoms: O_6  and  C_7
REMARK    5  A    between atoms: C_7  and  C_8
REMARK    6  A    between atoms: C_15  and  C_16
REMARK                            x       y       z     vdW  Elec       q    Type
REMARK                         _______ _______ _______ _____ _____    ______ ____
ROOT
ATOM      1  C   UNL     1       2.778   3.417  17.044  0.00  0.00    +0.000 C 
ATOM      2  C   UNL     1       4.197   3.834  16.760  0.00  0.00    +0.000 C 
ATOM      3  C   UNL     1       5.138   4.267  17.626  0.00  0.00    +0.000 C 
ATOM      4  C   UNL     1       6.558   4.534  17.170  0.00  0.00    +0.000 C 
ATOM      5  N   UNL     1       6.664   4.546  15.723  0.00  0.00    +0.000 N 
ATOM      6  C   UNL     1       5.752   4.000  14.885  0.00  0.00    +0.000 C 
ATOM      7  O   UNL     1       5.984   3.835  13.698  0.00  0.00    +0.000 OA
ATOM      8  N   UNL     1       4.552   3.678  15.437  0.00  0.00    +0.000 N 
ATOM      9  H   UNL     1       7.558   4.751  15.303  0.00  0.00    +0.000 HD
ATOM     10  H   UNL     1       3.882   3.305  14.773  0.00  0.00    +0.000 HD
ENDROOT
BRANCH   4  11
ATOM     11  C   UNL     1       7.177   5.817  17.700  0.00  0.00    +0.000 A 
ATOM     12  C   UNL     1       6.990   7.025  17.006  0.00  0.00    +0.000 A 
ATOM     13  C   UNL     1       7.588   8.202  17.455  0.00  0.00    +0.000 A 
ATOM     14  C   UNL     1       8.372   8.194  18.605  0.00  0.00    +0.000 A 
ATOM     15  C   UNL     1       8.541   7.010  19.323  0.00  0.00    +0.000 A 
ATOM     16  C   UNL     1       7.940   5.830  18.879  0.00  0.00    +0.000 A 
ENDBRANCH   4  11
BRANCH   3  17
ATOM     17  C   UNL     1       4.951   4.358  19.098  0.00  0.00    +0.000 C 
ATOM     18  O   UNL     1       5.225   3.441  19.858  0.00  0.00    +0.000 OA
BRANCH  17  19
ATOM     19  O   UNL     1       4.456   5.562  19.458  0.00  0.00    +0.000 OA
BRANCH  19  20
ATOM     20  C   UNL     1       3.068   5.604  19.830  0.00  0.00    +0.000 C 
BRANCH  20  21
ATOM     21  C   UNL     1       2.486   6.937  19.423  0.00  0.00    +0.000 A 
ATOM     22  C   UNL     1       1.755   7.719  20.334  0.00  0.00    +0.000 A 
ATOM     23  C   UNL     1       1.196   8.933  19.935  0.00  0.00    +0.000 A 
ATOM     24  C   UNL     1       1.385   9.378  18.633  0.00  0.00    +0.000 A 
ATOM     25  F   UNL     1       0.831  10.534  18.244  0.00  0.00    +0.000 F 
ATOM     26  C   UNL     1       2.138   8.641  17.727  0.00  0.00    +0.000 A 
ATOM     27  C   UNL     1       2.696   7.425  18.123  0.00  0.00    +0.000 A 
ENDBRANCH  20  21
ENDBRANCH  19  20
ENDBRANCH  17  19
ENDBRANCH   3  17
TORSDOF 5
ENDMDL
MODEL 9
REMARK VINA RESULT:      -7.8      2.083      3.887
REMARK  Name = 
REMARK  6 active torsions:
REMARK  status: ('A' for Active; 'I' for Inactive)
REMARK    1  A    between atoms: C_1  and  C_2
REMARK    2  A    between atoms: C_3  and  C_4
REMARK    3  A    between atoms: C_4  and  O_6
REMARK    4  A    between atoms: O_6  and  C_7
REMARK    5  A    between atoms: C_7  and  C_8
REMARK    6  A    between atoms: C_15  and  C_16
REMARK                            x       y       z     vdW  Elec       q    Type
REMARK                         _______ _______ _______ _____ _____    ______ ____
ROOT
ATOM      1  C   UNL     1       7.386   8.296  17.472  0.00  0.00    +0.000 C 
ATOM      2  C   UNL     1       6.902   6.870  17.524  0.00  0.00    +0.000 C 
ATOM      3  C   UNL     1       5.659   6.393  17.300  0.00  0.00    +0.000 C 
ATOM      4  C   UNL     1       5.382   4.904  17.284  0.00  0.00    +0.000 C 
ATOM      5  N   UNL     1       6.503   4.145  17.804  0.00  0.00    +0.000 N 
ATOM      6  C   UNL     1       7.767   4.620  17.909  0.00  0.00    +0.000 C 
ATOM      7  O   UNL     1       8.714   3.886  18.140  0.00  0.00    +0.000 OA
ATOM      8  N   UNL     1       7.911   5.965  17.776  0.00  0.00    +0.000 N 
ATOM      9  H   UNL     1       6.419   3.142  17.875  0.00  0.00    +0.000 HD
ATOM     10  H   UNL     1       8.865   6.289  17.896  0.00  0.00    +0.000 HD
ENDROOT
BRANCH   4  11
ATOM     11  C   UNL     1       4.130   4.470  18.028  0.00  0.00    +0.000 A 
ATOM     12  C   UNL     1       3.043   3.931  17.319  0.00  0.00    +0.000 A 
ATOM     13  C   UNL     1       1.871   3.570  17.981  0.00  0.00    +0.000 A 
ATOM     14  C   UNL     1       1.769   3.733  19.360  0.00  0.00    +0.000 A 
ATOM     15  C   UNL     1       2.850   4.236  20.083  0.00  0.00    +0.000 A 
ATOM     16  C   UNL     1       4.027   4.595  19.424  0.00  0.00    +0.000 A 
ENDBRANCH   4  11
BRANCH   3  17
ATOM     17  C   UNL     1       4.499   7.226  16.885  0.00  0.00    +0.000 C 
ATOM     18  O   UNL     1       4.213   7.424  15.713  0.00  0.00    +0.000 OA
BRANCH  17  19
ATOM     19  O   UNL     1       3.829   7.707  17.954  0.00  0.00    +0.000 OA
BRANCH  19  20
ATOM     20  C   UNL     1       2.402   7.531  17.954  0.00  0.00    +0.000 C 
BRANCH  20  21
ATOM     21  C   UNL     1       1.804   8.326  19.090  0.00  0.00    +0.000 A 
ATOM     22  C   UNL     1       1.280   9.613  18.881  0.00  0.00    +0.000 A 
ATOM     23  C   UNL     1       0.759  10.347  19.946  0.00  0.00    +0.000 A 
ATOM     24  C   UNL     1       0.742   9.789  21.217  0.00  0.00    +0.000 A 
ATOM     25  F   UNL     1       0.261  10.502  22.244  0.00  0.00    +0.000 F 
ATOM     26  C   UNL     1       1.217   8.502  21.441  0.00  0.00    +0.000 A 
ATOM     27  C   UNL     1       1.741   7.767  20.377  0.00  0.00    +0.000 A 
ENDBRANCH  20  21
ENDBRANCH  19  20
ENDBRANCH  17  19
ENDBRANCH   3  17
TORSDOF 5
ENDMDL
