MODEL 1
REMARK VINA RESULT:      -8.8      0.000      0.000
REMARK  Name = 
REMARK  3 active torsions:
REMARK  status: ('A' for Active; 'I' for Inactive)
REMARK    1  A    between atoms: C_4  and  N_5
REMARK    2  A    between atoms: N_8  and  C_9
REMARK    3  A    between atoms: C_12  and  C_13
REMARK                            x       y       z     vdW  Elec       q    Type
REMARK                         _______ _______ _______ _____ _____    ______ ____
ROOT
ATOM      1  N   UNL     1       0.486  10.153  19.430  0.00  0.00    +0.000 N 
ATOM      2  C   UNL     1       0.858   9.522  18.134  0.00  0.00    +0.000 C 
ATOM      3  C   UNL     1       2.196   8.760  18.271  0.00  0.00    +0.000 C 
ATOM      4  N   UNL     1       2.201   7.829  19.418  0.00  0.00    +0.000 N 
ATOM      5  C   UNL     1       1.710   8.403  20.690  0.00  0.00    +0.000 C 
ATOM      6  C   UNL     1       0.358   9.123  20.491  0.00  0.00    +0.000 C 
ENDROOT
BRANCH   1  10
ATOM      7  O   UNL     1      -3.362  12.758  20.439  0.00  0.00    +0.000 OA
ATOM      8  C   UNL     1      -2.204  12.733  20.037  0.00  0.00    +0.000 A 
ATOM      9  C   UNL     1      -1.479  11.467  19.926  0.00  0.00    +0.000 A 
ATOM     10  C   UNL     1      -0.214  11.362  19.489  0.00  0.00    +0.000 A 
ATOM     11  C   UNL     1       0.493  12.615  19.141  0.00  0.00    +0.000 A 
ATOM     12  C   UNL     1       1.837  12.656  18.755  0.00  0.00    +0.000 A 
ATOM     13  C   UNL     1       2.468  13.866  18.437  0.00  0.00    +0.000 A 
ATOM     14  C   UNL     1       1.777  15.081  18.517  0.00  0.00    +0.000 A 
ATOM     15  C   UNL     1       2.410  16.296  18.201  0.00  0.00    +0.000 A 
ATOM     16  C   UNL     1       1.723  17.507  18.291  0.00  0.00    +0.000 A 
ATOM     17  C   UNL     1       0.394  17.518  18.700  0.00  0.00    +0.000 A 
ATOM     18  C   UNL     1      -0.245  16.319  19.019  0.00  0.00    +0.000 A 
ATOM     19  C   UNL     1       0.427  15.082  18.929  0.00  0.00    +0.000 A 
ATOM     20  C   UNL     1      -0.180  13.839  19.236  0.00  0.00    +0.000 A 
ATOM     21  O   UNL     1      -1.527  13.877  19.671  0.00  0.00    +0.000 OA
ENDBRANCH   1  10
BRANCH   4  22
ATOM     22  C   UNL     1       2.231   6.456  19.271  0.00  0.00    +0.000 A 
ATOM     23  C   UNL     1       2.578   5.888  18.034  0.00  0.00    +0.000 A 
ATOM     24  C   UNL     1       2.634   4.504  17.840  0.00  0.00    +0.000 A 
ATOM     25  C   UNL     1       2.343   3.633  18.893  0.00  0.00    +0.000 A 
ATOM     26  C   UNL     1       1.970   4.182  20.127  0.00  0.00    +0.000 A 
ATOM     27  C   UNL     1       1.911   5.571  20.306  0.00  0.00    +0.000 A 
BRANCH  25  28
ATOM     28  C   UNL     1       2.438   2.138  18.721  0.00  0.00    +0.000 C 
ATOM     29  F   UNL     1       1.481   1.449  19.405  0.00  0.00    +0.000 F 
ATOM     30  F   UNL     1       2.306   1.758  17.419  0.00  0.00    +0.000 F 
ATOM     31  F   UNL     1       3.631   1.635  19.139  0.00  0.00    +0.000 F 
ENDBRANCH  25  28
ENDBRANCH   4  22
TORSDOF 3
ENDMDL
MODEL 2
REMARK VINA RESULT:      -8.8      0.513      1.253
REMARK  Name = 
REMARK  3 active torsions:
REMARK  status: ('A' for Active; 'I' for Inactive)
REMARK    1  A    between atoms: C_4  and  N_5
REMARK    2  A    between atoms: N_8  and  C_9
REMARK    3  A    between atoms: C_12  and  C_13
REMARK                            x       y       z     vdW  Elec       q    Type
REMARK                         _______ _______ _______ _____ _____    ______ ____
ROOT
ATOM      1  N   UNL     1       0.567  10.285  19.479  0.00  0.00    +0.000 N 
ATOM      2  C   UNL     1       0.903   9.628  18.187  0.00  0.00    +0.000 C 
ATOM      3  C   UNL     1       2.179   8.767  18.337  0.00  0.00    +0.000 C 
ATOM      4  N   UNL     1       2.101   7.838  19.482  0.00  0.00    +0.000 N 
ATOM      5  C   UNL     1       1.643   8.447  20.751  0.00  0.00    +0.000 C 
ATOM      6  C   UNL     1       0.350   9.267  20.538  0.00  0.00    +0.000 C 
ENDROOT
BRANCH   1  10
ATOM      7  O   UNL     1      -3.026  13.194  20.591  0.00  0.00    +0.000 OA
ATOM      8  C   UNL     1      -1.896  13.072  20.133  0.00  0.00    +0.000 A 
ATOM      9  C   UNL     1      -1.270  11.754  20.028  0.00  0.00    +0.000 A 
ATOM     10  C   UNL     1      -0.040  11.543  19.533  0.00  0.00    +0.000 A 
ATOM     11  C   UNL     1       0.736  12.730  19.109  0.00  0.00    +0.000 A 
ATOM     12  C   UNL     1       2.058  12.661  18.655  0.00  0.00    +0.000 A 
ATOM     13  C   UNL     1       2.757  13.811  18.266  0.00  0.00    +0.000 A 
ATOM     14  C   UNL     1       2.160  15.075  18.339  0.00  0.00    +0.000 A 
ATOM     15  C   UNL     1       2.862  16.231  17.951  0.00  0.00    +0.000 A 
ATOM     16  C   UNL     1       2.269  17.490  18.035  0.00  0.00    +0.000 A 
ATOM     17  C   UNL     1       0.968  17.612  18.509  0.00  0.00    +0.000 A 
ATOM     18  C   UNL     1       0.261  16.473  18.900  0.00  0.00    +0.000 A 
ATOM     19  C   UNL     1       0.837  15.187  18.818  0.00  0.00    +0.000 A 
ATOM     20  C   UNL     1       0.159  14.002  19.195  0.00  0.00    +0.000 A 
ATOM     21  O   UNL     1      -1.157  14.152  19.696  0.00  0.00    +0.000 OA
ENDBRANCH   1  10
BRANCH   4  22
ATOM     22  C   UNL     1       2.029   6.466  19.334  0.00  0.00    +0.000 A 
ATOM     23  C   UNL     1       1.718   5.655  20.439  0.00  0.00    +0.000 A 
ATOM     24  C   UNL     1       1.622   4.264  20.335  0.00  0.00    +0.000 A 
ATOM     25  C   UNL     1       1.832   3.632  19.107  0.00  0.00    +0.000 A 
ATOM     26  C   UNL     1       2.168   4.423  18.002  0.00  0.00    +0.000 A 
ATOM     27  C   UNL     1       2.269   5.816  18.120  0.00  0.00    +0.000 A 
BRANCH  25  28
ATOM     28  C   UNL     1       1.692   2.138  18.962  0.00  0.00    +0.000 C 
ATOM     29  F   UNL     1       2.578   1.590  18.082  0.00  0.00    +0.000 F 
ATOM     30  F   UNL     1       1.890   1.483  20.140  0.00  0.00    +0.000 F 
ATOM     31  F   UNL     1       0.457   1.765  18.529  0.00  0.00    +0.000 F 
ENDBRANCH  25  28
ENDBRANCH   4  22
TORSDOF 3
ENDMDL
MODEL 3
REMARK VINA RESULT:      -8.1      5.877      9.701
REMARK  Name = 
REMARK  3 active torsions:
REMARK  status: ('A' for Active; 'I' for Inactive)
REMARK    1  A    between atoms: C_4  and  N_5
REMARK    2  A    between atoms: N_8  and  C_9
REMARK    3  A    between atoms: C_12  and  C_13
REMARK                            x       y       z     vdW  Elec       q    Type
REMARK                         _______ _______ _______ _____ _____    ______ ____
ROOT
ATOM      1  N   UNL     1       1.646   7.650  20.343  0.00  0.00    +0.000 N 
ATOM      2  C   UNL     1       1.176   7.900  21.732  0.00  0.00    +0.000 C 
ATOM      3  C   UNL     1       1.394   9.383  22.115  0.00  0.00    +0.000 C 
ATOM      4  N   UNL     1       0.834  10.312  21.113  0.00  0.00    +0.000 N 
ATOM      5  C   UNL     1       1.185  10.003  19.709  0.00  0.00    +0.000 C 
ATOM      6  C   UNL     1       0.916   8.516  19.384  0.00  0.00    +0.000 C 
ENDROOT
BRANCH   1  10
ATOM      7  O   UNL     1       2.123   2.934  20.730  0.00  0.00    +0.000 OA
ATOM      8  C   UNL     1       2.427   3.961  20.132  0.00  0.00    +0.000 A 
ATOM      9  C   UNL     1       1.899   5.258  20.558  0.00  0.00    +0.000 A 
ATOM     10  C   UNL     1       2.191   6.422  19.957  0.00  0.00    +0.000 A 
ATOM     11  C   UNL     1       3.070   6.371  18.766  0.00  0.00    +0.000 A 
ATOM     12  C   UNL     1       3.385   7.497  17.997  0.00  0.00    +0.000 A 
ATOM     13  C   UNL     1       4.219   7.404  16.876  0.00  0.00    +0.000 A 
ATOM     14  C   UNL     1       4.749   6.172  16.472  0.00  0.00    +0.000 A 
ATOM     15  C   UNL     1       5.583   6.077  15.345  0.00  0.00    +0.000 A 
ATOM     16  C   UNL     1       6.101   4.848  14.939  0.00  0.00    +0.000 A 
ATOM     17  C   UNL     1       5.792   3.697  15.655  0.00  0.00    +0.000 A 
ATOM     18  C   UNL     1       4.962   3.776  16.775  0.00  0.00    +0.000 A 
ATOM     19  C   UNL     1       4.431   5.010  17.208  0.00  0.00    +0.000 A 
ATOM     20  C   UNL     1       3.591   5.144  18.341  0.00  0.00    +0.000 A 
ATOM     21  O   UNL     1       3.270   3.956  19.041  0.00  0.00    +0.000 OA
ENDBRANCH   1  10
BRANCH   4  22
ATOM     22  C   UNL     1      -0.254  11.125  21.367  0.00  0.00    +0.000 A 
ATOM     23  C   UNL     1      -0.790  11.198  22.663  0.00  0.00    +0.000 A 
ATOM     24  C   UNL     1      -1.882  12.016  22.971  0.00  0.00    +0.000 A 
ATOM     25  C   UNL     1      -2.478  12.800  21.979  0.00  0.00    +0.000 A 
ATOM     26  C   UNL     1      -1.972  12.720  20.676  0.00  0.00    +0.000 A 
ATOM     27  C   UNL     1      -0.881  11.890  20.378  0.00  0.00    +0.000 A 
BRANCH  25  28
ATOM     28  C   UNL     1      -3.628  13.721  22.296  0.00  0.00    +0.000 C 
ATOM     29  F   UNL     1      -3.732  14.029  23.619  0.00  0.00    +0.000 F 
ATOM     30  F   UNL     1      -3.529  14.914  21.646  0.00  0.00    +0.000 F 
ATOM     31  F   UNL     1      -4.833  13.199  21.938  0.00  0.00    +0.000 F 
ENDBRANCH  25  28
ENDBRANCH   4  22
TORSDOF 3
ENDMDL
MODEL 4
REMARK VINA RESULT:      -8.1      5.852      9.635
REMARK  Name = 
REMARK  3 active torsions:
REMARK  status: ('A' for Active; 'I' for Inactive)
REMARK    1  A    between atoms: C_4  and  N_5
REMARK    2  A    between atoms: N_8  and  C_9
REMARK    3  A    between atoms: C_12  and  C_13
REMARK                            x       y       z     vdW  Elec       q    Type
REMARK                         _______ _______ _______ _____ _____    ______ ____
ROOT
ATOM      1  N   UNL     1       1.658   7.554  20.209  0.00  0.00    +0.000 N 
ATOM      2  C   UNL     1       1.195   7.791  21.603  0.00  0.00    +0.000 C 
ATOM      3  C   UNL     1       1.397   9.274  21.993  0.00  0.00    +0.000 C 
ATOM      4  N   UNL     1       0.818  10.201  21.000  0.00  0.00    +0.000 N 
ATOM      5  C   UNL     1       1.162   9.904  19.592  0.00  0.00    +0.000 C 
ATOM      6  C   UNL     1       0.909   8.416  19.260  0.00  0.00    +0.000 C 
ENDROOT
BRANCH   1  10
ATOM      7  O   UNL     1       2.145   2.834  20.522  0.00  0.00    +0.000 OA
ATOM      8  C   UNL     1       2.457   3.872  19.949  0.00  0.00    +0.000 A 
ATOM      9  C   UNL     1       1.916   5.159  20.387  0.00  0.00    +0.000 A 
ATOM     10  C   UNL     1       2.215   6.335  19.813  0.00  0.00    +0.000 A 
ATOM     11  C   UNL     1       3.116   6.309  18.638  0.00  0.00    +0.000 A 
ATOM     12  C   UNL     1       3.442   7.449  17.896  0.00  0.00    +0.000 A 
ATOM     13  C   UNL     1       4.298   7.379  16.789  0.00  0.00    +0.000 A 
ATOM     14  C   UNL     1       4.840   6.156  16.374  0.00  0.00    +0.000 A 
ATOM     15  C   UNL     1       5.697   6.084  15.262  0.00  0.00    +0.000 A 
ATOM     16  C   UNL     1       6.228   4.864  14.844  0.00  0.00    +0.000 A 
ATOM     17  C   UNL     1       5.909   3.699  15.533  0.00  0.00    +0.000 A 
ATOM     18  C   UNL     1       5.057   3.756  16.638  0.00  0.00    +0.000 A 
ATOM     19  C   UNL     1       4.513   4.980  17.083  0.00  0.00    +0.000 A 
ATOM     20  C   UNL     1       3.650   5.091  18.201  0.00  0.00    +0.000 A 
ATOM     21  O   UNL     1       3.321   3.889  18.874  0.00  0.00    +0.000 OA
ENDBRANCH   1  10
BRANCH   4  22
ATOM     22  C   UNL     1      -0.278  11.000  21.267  0.00  0.00    +0.000 A 
ATOM     23  C   UNL     1      -0.925  11.678  20.220  0.00  0.00    +0.000 A 
ATOM     24  C   UNL     1      -2.044  12.487  20.439  0.00  0.00    +0.000 A 
ATOM     25  C   UNL     1      -2.560  12.643  21.728  0.00  0.00    +0.000 A 
ATOM     26  C   UNL     1      -1.912  11.995  22.787  0.00  0.00    +0.000 A 
ATOM     27  C   UNL     1      -0.785  11.192  22.555  0.00  0.00    +0.000 A 
BRANCH  25  28
ATOM     28  C   UNL     1      -3.790  13.476  21.983  0.00  0.00    +0.000 C 
ATOM     29  F   UNL     1      -4.283  14.078  20.864  0.00  0.00    +0.000 F 
ATOM     30  F   UNL     1      -4.819  12.739  22.489  0.00  0.00    +0.000 F 
ATOM     31  F   UNL     1      -3.571  14.477  22.879  0.00  0.00    +0.000 F 
ENDBRANCH  25  28
ENDBRANCH   4  22
TORSDOF 3
ENDMDL
MODEL 5
REMARK VINA RESULT:      -8.0      1.465      2.045
REMARK  Name = 
REMARK  3 active torsions:
REMARK  status: ('A' for Active; 'I' for Inactive)
REMARK    1  A    between atoms: C_4  and  N_5
REMARK    2  A    between atoms: N_8  and  C_9
REMARK    3  A    between atoms: C_12  and  C_13
REMARK                            x       y       z     vdW  Elec       q    Type
REMARK                         _______ _______ _______ _____ _____    ______ ____
ROOT
ATOM      1  N   UNL     1      -0.004  10.211  20.816  0.00  0.00    +0.000 N 
ATOM      2  C   UNL     1       0.114   9.832  19.382  0.00  0.00    +0.000 C 
ATOM      3  C   UNL     1       1.492   9.187  19.108  0.00  0.00    +0.000 C 
ATOM      4  N   UNL     1       1.799   8.091  20.048  0.00  0.00    +0.000 N 
ATOM      5  C   UNL     1       1.564   8.406  21.474  0.00  0.00    +0.000 C 
ATOM      6  C   UNL     1       0.160   9.018  21.684  0.00  0.00    +0.000 C 
ENDROOT
BRANCH   1  10
ATOM      7  O   UNL     1      -2.973  12.443  23.785  0.00  0.00    +0.000 OA
ATOM      8  C   UNL     1      -2.269  12.505  22.784  0.00  0.00    +0.000 A 
ATOM      9  C   UNL     1      -1.529  11.333  22.317  0.00  0.00    +0.000 A 
ATOM     10  C   UNL     1      -0.744  11.324  21.228  0.00  0.00    +0.000 A 
ATOM     11  C   UNL     1      -0.594  12.597  20.486  0.00  0.00    +0.000 A 
ATOM     12  C   UNL     1       0.257  12.748  19.387  0.00  0.00    +0.000 A 
ATOM     13  C   UNL     1       0.370  13.972  18.715  0.00  0.00    +0.000 A 
ATOM     14  C   UNL     1      -0.351  15.095  19.138  0.00  0.00    +0.000 A 
ATOM     15  C   UNL     1      -0.236  16.325  18.466  0.00  0.00    +0.000 A 
ATOM     16  C   UNL     1      -0.948  17.445  18.896  0.00  0.00    +0.000 A 
ATOM     17  C   UNL     1      -1.784  17.350  20.003  0.00  0.00    +0.000 A 
ATOM     18  C   UNL     1      -1.905  16.136  20.681  0.00  0.00    +0.000 A 
ATOM     19  C   UNL     1      -1.200  14.987  20.261  0.00  0.00    +0.000 A 
ATOM     20  C   UNL     1      -1.295  13.732  20.910  0.00  0.00    +0.000 A 
ATOM     21  O   UNL     1      -2.134  13.664  22.049  0.00  0.00    +0.000 OA
ENDBRANCH   1  10
BRANCH   4  22
ATOM     22  C   UNL     1       1.877   6.767  19.659  0.00  0.00    +0.000 A 
ATOM     23  C   UNL     1       1.571   5.747  20.575  0.00  0.00    +0.000 A 
ATOM     24  C   UNL     1       1.623   4.393  20.225  0.00  0.00    +0.000 A 
ATOM     25  C   UNL     1       1.984   4.014  18.930  0.00  0.00    +0.000 A 
ATOM     26  C   UNL     1       2.317   5.017  18.011  0.00  0.00    +0.000 A 
ATOM     27  C   UNL     1       2.268   6.370  18.377  0.00  0.00    +0.000 A 
BRANCH  25  28
ATOM     28  C   UNL     1       2.007   2.564  18.517  0.00  0.00    +0.000 C 
ATOM     29  F   UNL     1       2.851   1.797  19.263  0.00  0.00    +0.000 F 
ATOM     30  F   UNL     1       0.782   1.977  18.625  0.00  0.00    +0.000 F 
ATOM     31  F   UNL     1       2.392   2.392  17.223  0.00  0.00    +0.000 F 
ENDBRANCH  25  28
ENDBRANCH   4  22
TORSDOF 3
ENDMDL
MODEL 6
REMARK VINA RESULT:      -7.8      1.440      1.892
REMARK  Name = 
REMARK  3 active torsions:
REMARK  status: ('A' for Active; 'I' for Inactive)
REMARK    1  A    between atoms: C_4  and  N_5
REMARK    2  A    between atoms: N_8  and  C_9
REMARK    3  A    between atoms: C_12  and  C_13
REMARK                            x       y       z     vdW  Elec       q    Type
REMARK                         _______ _______ _______ _____ _____    ______ ____
ROOT
ATOM      1  N   UNL     1      -0.019  10.209  20.861  0.00  0.00    +0.000 N 
ATOM      2  C   UNL     1       0.091   9.781  19.440  0.00  0.00    +0.000 C 
ATOM      3  C   UNL     1       1.482   9.160  19.171  0.00  0.00    +0.000 C 
ATOM      4  N   UNL     1       1.826   8.105  20.146  0.00  0.00    +0.000 N 
ATOM      5  C   UNL     1       1.601   8.466  21.563  0.00  0.00    +0.000 C 
ATOM      6  C   UNL     1       0.185   9.051  21.769  0.00  0.00    +0.000 C 
ENDROOT
BRANCH   1  10
ATOM      7  O   UNL     1      -3.082  12.439  23.734  0.00  0.00    +0.000 OA
ATOM      8  C   UNL     1      -2.355  12.498  22.749  0.00  0.00    +0.000 A 
ATOM      9  C   UNL     1      -1.591  11.329  22.313  0.00  0.00    +0.000 A 
ATOM     10  C   UNL     1      -0.780  11.317  21.243  0.00  0.00    +0.000 A 
ATOM     11  C   UNL     1      -0.627  12.583  20.491  0.00  0.00    +0.000 A 
ATOM     12  C   UNL     1       0.249  12.732  19.410  0.00  0.00    +0.000 A 
ATOM     13  C   UNL     1       0.365  13.950  18.727  0.00  0.00    +0.000 A 
ATOM     14  C   UNL     1      -0.379  15.069  19.120  0.00  0.00    +0.000 A 
ATOM     15  C   UNL     1      -0.261  16.293  18.438  0.00  0.00    +0.000 A 
ATOM     16  C   UNL     1      -0.995  17.409  18.837  0.00  0.00    +0.000 A 
ATOM     17  C   UNL     1      -1.856  17.317  19.925  0.00  0.00    +0.000 A 
ATOM     18  C   UNL     1      -1.980  16.109  20.614  0.00  0.00    +0.000 A 
ATOM     19  C   UNL     1      -1.253  14.964  20.224  0.00  0.00    +0.000 A 
ATOM     20  C   UNL     1      -1.349  13.715  20.885  0.00  0.00    +0.000 A 
ATOM     21  O   UNL     1      -2.215  13.651  22.004  0.00  0.00    +0.000 OA
ENDBRANCH   1  10
BRANCH   4  22
ATOM     22  C   UNL     1       1.931   6.771  19.804  0.00  0.00    +0.000 A 
ATOM     23  C   UNL     1       2.390   6.406  18.527  0.00  0.00    +0.000 A 
ATOM     24  C   UNL     1       2.524   5.069  18.139  0.00  0.00    +0.000 A 
ATOM     25  C   UNL     1       2.202   4.041  19.029  0.00  0.00    +0.000 A 
ATOM     26  C   UNL     1       1.719   4.387  20.297  0.00  0.00    +0.000 A 
ATOM     27  C   UNL     1       1.582   5.731  20.672  0.00  0.00    +0.000 A 
BRANCH  25  28
ATOM     28  C   UNL     1       2.379   2.593  18.649  0.00  0.00    +0.000 C 
ATOM     29  F   UNL     1       2.210   2.354  17.318  0.00  0.00    +0.000 F 
ATOM     30  F   UNL     1       3.623   2.126  18.953  0.00  0.00    +0.000 F 
ATOM     31  F   UNL     1       1.504   1.771  19.290  0.00  0.00    +0.000 F 
ENDBRANCH  25  28
ENDBRANCH   4  22
TORSDOF 3
ENDMDL
MODEL 7
REMARK VINA RESULT:      -7.8      5.925      9.798
REMARK  Name = 
REMARK  3 active torsions:
REMARK  status: ('A' for Active; 'I' for Inactive)
REMARK    1  A    between atoms: C_4  and  N_5
REMARK    2  A    between atoms: N_8  and  C_9
REMARK    3  A    between atoms: C_12  and  C_13
REMARK                            x       y       z     vdW  Elec       q    Type
REMARK                         _______ _______ _______ _____ _____    ______ ____
ROOT
ATOM      1  N   UNL     1       1.476   7.746  20.276  0.00  0.00    +0.000 N 
ATOM      2  C   UNL     1       1.631   8.952  19.417  0.00  0.00    +0.000 C 
ATOM      3  C   UNL     1       0.313   9.761  19.383  0.00  0.00    +0.000 C 
ATOM      4  N   UNL     1      -0.208  10.048  20.735  0.00  0.00    +0.000 N 
ATOM      5  C   UNL     1      -0.247   8.884  21.649  0.00  0.00    +0.000 C 
ATOM      6  C   UNL     1       1.106   8.139  21.659  0.00  0.00    +0.000 C 
ENDROOT
BRANCH   1  10
ATOM      7  O   UNL     1       2.514   3.189  21.148  0.00  0.00    +0.000 OA
ATOM      8  C   UNL     1       2.684   4.172  20.435  0.00  0.00    +0.000 A 
ATOM      9  C   UNL     1       2.014   5.438  20.737  0.00  0.00    +0.000 A 
ATOM     10  C   UNL     1       2.155   6.555  20.006  0.00  0.00    +0.000 A 
ATOM     11  C   UNL     1       3.011   6.476  18.800  0.00  0.00    +0.000 A 
ATOM     12  C   UNL     1       3.176   7.540  17.906  0.00  0.00    +0.000 A 
ATOM     13  C   UNL     1       3.994   7.421  16.775  0.00  0.00    +0.000 A 
ATOM     14  C   UNL     1       4.658   6.222  16.489  0.00  0.00    +0.000 A 
ATOM     15  C   UNL     1       5.477   6.101  15.352  0.00  0.00    +0.000 A 
ATOM     16  C   UNL     1       6.129   4.903  15.063  0.00  0.00    +0.000 A 
ATOM     17  C   UNL     1       5.971   3.809  15.907  0.00  0.00    +0.000 A 
ATOM     18  C   UNL     1       5.158   3.915  17.038  0.00  0.00    +0.000 A 
ATOM     19  C   UNL     1       4.494   5.119  17.354  0.00  0.00    +0.000 A 
ATOM     20  C   UNL     1       3.665   5.278  18.492  0.00  0.00    +0.000 A 
ATOM     21  O   UNL     1       3.501   4.144  19.325  0.00  0.00    +0.000 OA
ENDBRANCH   1  10
BRANCH   4  22
ATOM     22  C   UNL     1      -0.249  11.321  21.270  0.00  0.00    +0.000 A 
ATOM     23  C   UNL     1      -1.083  11.595  22.367  0.00  0.00    +0.000 A 
ATOM     24  C   UNL     1      -1.149  12.865  22.951  0.00  0.00    +0.000 A 
ATOM     25  C   UNL     1      -0.372  13.912  22.450  0.00  0.00    +0.000 A 
ATOM     26  C   UNL     1       0.445  13.662  21.341  0.00  0.00    +0.000 A 
ATOM     27  C   UNL     1       0.498  12.387  20.760  0.00  0.00    +0.000 A 
BRANCH  25  28
ATOM     28  C   UNL     1      -0.395  15.277  23.089  0.00  0.00    +0.000 C 
ATOM     29  F   UNL     1       0.810  15.913  23.060  0.00  0.00    +0.000 F 
ATOM     30  F   UNL     1      -1.272  16.121  22.475  0.00  0.00    +0.000 F 
ATOM     31  F   UNL     1      -0.766  15.240  24.397  0.00  0.00    +0.000 F 
ENDBRANCH  25  28
ENDBRANCH   4  22
TORSDOF 3
ENDMDL
MODEL 8
REMARK VINA RESULT:      -7.7      3.010      3.859
REMARK  Name = 
REMARK  3 active torsions:
REMARK  status: ('A' for Active; 'I' for Inactive)
REMARK    1  A    between atoms: C_4  and  N_5
REMARK    2  A    between atoms: N_8  and  C_9
REMARK    3  A    between atoms: C_12  and  C_13
REMARK                            x       y       z     vdW  Elec       q    Type
REMARK                         _______ _______ _______ _____ _____    ______ ____
ROOT
ATOM      1  N   UNL     1      -0.725  10.455  19.513  0.00  0.00    +0.000 N 
ATOM      2  C   UNL     1      -0.181  10.102  18.174  0.00  0.00    +0.000 C 
ATOM      3  C   UNL     1       1.351   9.901  18.251  0.00  0.00    +0.000 C 
ATOM      4  N   UNL     1       1.744   8.968  19.326  0.00  0.00    +0.000 N 
ATOM      5  C   UNL     1       1.111   9.224  20.639  0.00  0.00    +0.000 C 
ATOM      6  C   UNL     1      -0.420   9.385  20.496  0.00  0.00    +0.000 C 
ENDROOT
BRANCH   1  10
ATOM      7  O   UNL     1      -4.951  12.158  18.154  0.00  0.00    +0.000 OA
ATOM      8  C   UNL     1      -4.045  12.174  18.979  0.00  0.00    +0.000 A 
ATOM      9  C   UNL     1      -2.862  11.330  18.806  0.00  0.00    +0.000 A 
ATOM     10  C   UNL     1      -1.829  11.298  19.663  0.00  0.00    +0.000 A 
ATOM     11  C   UNL     1      -1.925  12.143  20.876  0.00  0.00    +0.000 A 
ATOM     12  C   UNL     1      -0.961  12.141  21.890  0.00  0.00    +0.000 A 
ATOM     13  C   UNL     1      -1.093  12.955  23.022  0.00  0.00    +0.000 A 
ATOM     14  C   UNL     1      -2.208  13.785  23.187  0.00  0.00    +0.000 A 
ATOM     15  C   UNL     1      -2.343  14.600  24.325  0.00  0.00    +0.000 A 
ATOM     16  C   UNL     1      -3.460  15.417  24.493  0.00  0.00    +0.000 A 
ATOM     17  C   UNL     1      -4.459  15.430  23.525  0.00  0.00    +0.000 A 
ATOM     18  C   UNL     1      -4.339  14.623  22.392  0.00  0.00    +0.000 A 
ATOM     19  C   UNL     1      -3.215  13.793  22.197  0.00  0.00    +0.000 A 
ATOM     20  C   UNL     1      -3.044  12.962  21.063  0.00  0.00    +0.000 A 
ATOM     21  O   UNL     1      -4.084  12.974  20.101  0.00  0.00    +0.000 OA
ENDBRANCH   1  10
BRANCH   4  22
ATOM     22  C   UNL     1       2.289   7.723  19.078  0.00  0.00    +0.000 A 
ATOM     23  C   UNL     1       2.127   6.686  20.012  0.00  0.00    +0.000 A 
ATOM     24  C   UNL     1       2.651   5.406  19.799  0.00  0.00    +0.000 A 
ATOM     25  C   UNL     1       3.359   5.119  18.630  0.00  0.00    +0.000 A 
ATOM     26  C   UNL     1       3.552   6.148  17.700  0.00  0.00    +0.000 A 
ATOM     27  C   UNL     1       3.029   7.429  17.928  0.00  0.00    +0.000 A 
BRANCH  25  28
ATOM     28  C   UNL     1       3.896   3.737  18.360  0.00  0.00    +0.000 C 
ATOM     29  F   UNL     1       4.093   3.477  17.036  0.00  0.00    +0.000 F 
ATOM     30  F   UNL     1       5.100   3.523  18.961  0.00  0.00    +0.000 F 
ATOM     31  F   UNL     1       3.071   2.754  18.814  0.00  0.00    +0.000 F 
ENDBRANCH  25  28
ENDBRANCH   4  22
TORSDOF 3
ENDMDL
MODEL 9
REMARK VINA RESULT:      -7.7      1.972      3.729
REMARK  Name = 
REMARK  3 active torsions:
REMARK  status: ('A' for Active; 'I' for Inactive)
REMARK    1  A    between atoms: C_4  and  N_5
REMARK    2  A    between atoms: N_8  and  C_9
REMARK    3  A    between atoms: C_12  and  C_13
REMARK                            x       y       z     vdW  Elec       q    Type
REMARK                         _______ _______ _______ _____ _____    ______ ____
ROOT
ATOM      1  N   UNL     1       0.671  10.459  19.725  0.00  0.00    +0.000 N 
ATOM      2  C   UNL     1       1.004   9.867  18.401  0.00  0.00    +0.000 C 
ATOM      3  C   UNL     1       2.238   8.944  18.519  0.00  0.00    +0.000 C 
ATOM      4  N   UNL     1       2.099   7.952  19.604  0.00  0.00    +0.000 N 
ATOM      5  C   UNL     1       1.643   8.502  20.899  0.00  0.00    +0.000 C 
ATOM      6  C   UNL     1       0.391   9.390  20.716  0.00  0.00    +0.000 C 
ENDROOT
BRANCH   1  10
ATOM      7  O   UNL     1      -0.176  14.860  18.136  0.00  0.00    +0.000 OA
ATOM      8  C   UNL     1      -0.353  14.024  19.015  0.00  0.00    +0.000 A 
ATOM      9  C   UNL     1       0.262  12.699  18.921  0.00  0.00    +0.000 A 
ATOM     10  C   UNL     1       0.118  11.737  19.846  0.00  0.00    +0.000 A 
ATOM     11  C   UNL     1      -0.753  12.033  21.007  0.00  0.00    +0.000 A 
ATOM     12  C   UNL     1      -1.056  11.092  21.997  0.00  0.00    +0.000 A 
ATOM     13  C   UNL     1      -1.887  11.414  23.078  0.00  0.00    +0.000 A 
ATOM     14  C   UNL     1      -2.462  12.686  23.191  0.00  0.00    +0.000 A 
ATOM     15  C   UNL     1      -3.299  13.009  24.274  0.00  0.00    +0.000 A 
ATOM     16  C   UNL     1      -3.878  14.273  24.379  0.00  0.00    +0.000 A 
ATOM     17  C   UNL     1      -3.630  15.231  23.402  0.00  0.00    +0.000 A 
ATOM     18  C   UNL     1      -2.803  14.922  22.320  0.00  0.00    +0.000 A 
ATOM     19  C   UNL     1      -2.200  13.652  22.196  0.00  0.00    +0.000 A 
ATOM     20  C   UNL     1      -1.349  13.294  21.122  0.00  0.00    +0.000 A 
ATOM     21  O   UNL     1      -1.128  14.277  20.127  0.00  0.00    +0.000 OA
ENDBRANCH   1  10
BRANCH   4  22
ATOM     22  C   UNL     1       1.971   6.596  19.371  0.00  0.00    +0.000 A 
ATOM     23  C   UNL     1       1.638   5.730  20.426  0.00  0.00    +0.000 A 
ATOM     24  C   UNL     1       1.486   4.352  20.237  0.00  0.00    +0.000 A 
ATOM     25  C   UNL     1       1.660   3.791  18.969  0.00  0.00    +0.000 A 
ATOM     26  C   UNL     1       2.017   4.636  17.911  0.00  0.00    +0.000 A 
ATOM     27  C   UNL     1       2.174   6.015  18.115  0.00  0.00    +0.000 A 
BRANCH  25  28
ATOM     28  C   UNL     1       1.459   2.316  18.732  0.00  0.00    +0.000 C 
ATOM     29  F   UNL     1       0.166   1.977  18.470  0.00  0.00    +0.000 F 
ATOM     30  F   UNL     1       2.183   1.859  17.672  0.00  0.00    +0.000 F 
ATOM     31  F   UNL     1       1.836   1.557  19.797  0.00  0.00    +0.000 F 
ENDBRANCH  25  28
ENDBRANCH   4  22
TORSDOF 3
ENDMDL
