MODEL 1
REMARK VINA RESULT:      -6.8      0.000      0.000
REMARK  Name = 
REMARK  5 active torsions:
REMARK  status: ('A' for Active; 'I' for Inactive)
REMARK    1  A    between atoms: C_1  and  O_2
REMARK    2  A    between atoms: O_2  and  C_3
REMARK    3  A    between atoms: C_5  and  O_6
REMARK    4  A    between atoms: N_11  and  C_12
REMARK    5  A    between atoms: C_15  and  O_16
REMARK                            x       y       z     vdW  Elec       q    Type
REMARK                         _______ _______ _______ _____ _____    ______ ____
ROOT
ATOM      1  C   UNL     1       0.789   9.769  21.121  0.00  0.00    +0.000 A 
ATOM      2  C   UNL     1       0.395  11.114  21.074  0.00  0.00    +0.000 A 
ATOM      3  C   UNL     1       0.509  11.827  19.887  0.00  0.00    +0.000 A 
ATOM      4  C   UNL     1       1.033  11.233  18.749  0.00  0.00    +0.000 A 
ATOM      5  C   UNL     1       1.450   9.899  18.781  0.00  0.00    +0.000 A 
ATOM      6  N   UNL     1       2.032   9.378  17.612  0.00  0.00    +0.000 NA
ATOM      7  C   UNL     1       2.453   8.160  17.645  0.00  0.00    +0.000 A 
ATOM      8  N   UNL     1       2.347   7.314  18.723  0.00  0.00    +0.000 N 
ATOM      9  C   UNL     1       1.720   7.723  19.906  0.00  0.00    +0.000 A 
ATOM     10  O   UNL     1       1.521   6.975  20.861  0.00  0.00    +0.000 OA
ATOM     11  C   UNL     1       1.311   9.158  19.961  0.00  0.00    +0.000 A 
ENDROOT
BRANCH   8  12
ATOM     12  C   UNL     1       2.850   5.988  18.605  0.00  0.00    +0.000 A 
ATOM     13  C   UNL     1       4.103   5.647  19.134  0.00  0.00    +0.000 A 
ATOM     14  C   UNL     1       4.595   4.344  19.008  0.00  0.00    +0.000 A 
ATOM     15  C   UNL     1       3.843   3.393  18.327  0.00  0.00    +0.000 A 
ATOM     16  C   UNL     1       2.599   3.713  17.798  0.00  0.00    +0.000 A 
ATOM     17  C   UNL     1       2.092   5.005  17.952  0.00  0.00    +0.000 A 
BRANCH  15  18
ATOM     18  O   UNL     1       4.304   2.123  18.142  0.00  0.00    +0.000 OA
ATOM     19  H   UNL     1       4.648   2.047  17.237  0.00  0.00    +0.000 HD
ENDBRANCH  15  18
ENDBRANCH   8  12
BRANCH   1  21
ATOM     20  C   UNL     1      -0.093   9.500  23.322  0.00  0.00    +0.000 C 
ATOM     21  O   UNL     1       0.764   9.043  22.283  0.00  0.00    +0.000 OA
ENDBRANCH   1  21
BRANCH   3  22
ATOM     22  O   UNL     1       0.129  13.134  19.808  0.00  0.00    +0.000 OA
ATOM     23  H   UNL     1      -0.268  13.406  20.653  0.00  0.00    +0.000 HD
ENDBRANCH   3  22
TORSDOF 4
ENDMDL
MODEL 2
REMARK VINA RESULT:      -6.8      0.064      1.057
REMARK  Name = 
REMARK  5 active torsions:
REMARK  status: ('A' for Active; 'I' for Inactive)
REMARK    1  A    between atoms: C_1  and  O_2
REMARK    2  A    between atoms: O_2  and  C_3
REMARK    3  A    between atoms: C_5  and  O_6
REMARK    4  A    between atoms: N_11  and  C_12
REMARK    5  A    between atoms: C_15  and  O_16
REMARK                            x       y       z     vdW  Elec       q    Type
REMARK                         _______ _______ _______ _____ _____    ______ ____
ROOT
ATOM      1  C   UNL     1       0.749   9.737  21.119  0.00  0.00    +0.000 A 
ATOM      2  C   UNL     1       0.347  11.079  21.080  0.00  0.00    +0.000 A 
ATOM      3  C   UNL     1       0.470  11.805  19.901  0.00  0.00    +0.000 A 
ATOM      4  C   UNL     1       1.012  11.224  18.764  0.00  0.00    +0.000 A 
ATOM      5  C   UNL     1       1.439   9.894  18.789  0.00  0.00    +0.000 A 
ATOM      6  N   UNL     1       2.038   9.387  17.622  0.00  0.00    +0.000 NA
ATOM      7  C   UNL     1       2.467   8.172  17.649  0.00  0.00    +0.000 A 
ATOM      8  N   UNL     1       2.354   7.316  18.718  0.00  0.00    +0.000 N 
ATOM      9  C   UNL     1       1.710   7.709  19.896  0.00  0.00    +0.000 A 
ATOM     10  O   UNL     1       1.504   6.951  20.842  0.00  0.00    +0.000 OA
ATOM     11  C   UNL     1       1.290   9.140  19.960  0.00  0.00    +0.000 A 
ENDROOT
BRANCH   8  12
ATOM     12  C   UNL     1       2.867   5.994  18.594  0.00  0.00    +0.000 A 
ATOM     13  C   UNL     1       2.134   4.999  17.931  0.00  0.00    +0.000 A 
ATOM     14  C   UNL     1       2.640   3.701  17.819  0.00  0.00    +0.000 A 
ATOM     15  C   UNL     1       3.867   3.394  18.397  0.00  0.00    +0.000 A 
ATOM     16  C   UNL     1       4.607   4.367  19.056  0.00  0.00    +0.000 A 
ATOM     17  C   UNL     1       4.118   5.673  19.140  0.00  0.00    +0.000 A 
BRANCH  15  18
ATOM     18  O   UNL     1       4.378   2.131  18.351  0.00  0.00    +0.000 OA
ATOM     19  H   UNL     1       3.748   1.526  18.776  0.00  0.00    +0.000 HD
ENDBRANCH  15  18
ENDBRANCH   8  12
BRANCH   1  21
ATOM     20  C   UNL     1      -0.047   9.516  23.358  0.00  0.00    +0.000 C 
ATOM     21  O   UNL     1       0.715   9.000  22.274  0.00  0.00    +0.000 OA
ENDBRANCH   1  21
BRANCH   3  22
ATOM     22  O   UNL     1       0.083  13.109  19.829  0.00  0.00    +0.000 OA
ATOM     23  H   UNL     1      -0.760  13.169  19.348  0.00  0.00    +0.000 HD
ENDBRANCH   3  22
TORSDOF 4
ENDMDL
MODEL 3
REMARK VINA RESULT:      -6.6      3.712      6.123
REMARK  Name = 
REMARK  5 active torsions:
REMARK  status: ('A' for Active; 'I' for Inactive)
REMARK    1  A    between atoms: C_1  and  O_2
REMARK    2  A    between atoms: O_2  and  C_3
REMARK    3  A    between atoms: C_5  and  O_6
REMARK    4  A    between atoms: N_11  and  C_12
REMARK    5  A    between atoms: C_15  and  O_16
REMARK                            x       y       z     vdW  Elec       q    Type
REMARK                         _______ _______ _______ _____ _____    ______ ____
ROOT
ATOM      1  C   UNL     1       2.517   5.119  20.155  0.00  0.00    +0.000 A 
ATOM      2  C   UNL     1       1.697   4.562  21.147  0.00  0.00    +0.000 A 
ATOM      3  C   UNL     1       1.616   3.181  21.284  0.00  0.00    +0.000 A 
ATOM      4  C   UNL     1       2.318   2.341  20.432  0.00  0.00    +0.000 A 
ATOM      5  C   UNL     1       3.124   2.877  19.424  0.00  0.00    +0.000 A 
ATOM      6  N   UNL     1       3.756   1.969  18.555  0.00  0.00    +0.000 NA
ATOM      7  C   UNL     1       4.471   2.456  17.600  0.00  0.00    +0.000 A 
ATOM      8  N   UNL     1       4.698   3.794  17.382  0.00  0.00    +0.000 N 
ATOM      9  C   UNL     1       4.167   4.767  18.236  0.00  0.00    +0.000 A 
ATOM     10  O   UNL     1       4.416   5.967  18.135  0.00  0.00    +0.000 OA
ATOM     11  C   UNL     1       3.242   4.266  19.295  0.00  0.00    +0.000 A 
ENDROOT
BRANCH   8  12
ATOM     12  C   UNL     1       5.524   4.180  16.288  0.00  0.00    +0.000 A 
ATOM     13  C   UNL     1       6.817   4.676  16.507  0.00  0.00    +0.000 A 
ATOM     14  C   UNL     1       7.620   5.061  15.429  0.00  0.00    +0.000 A 
ATOM     15  C   UNL     1       7.115   4.975  14.137  0.00  0.00    +0.000 A 
ATOM     16  C   UNL     1       5.837   4.484  13.902  0.00  0.00    +0.000 A 
ATOM     17  C   UNL     1       5.046   4.068  14.974  0.00  0.00    +0.000 A 
BRANCH  15  18
ATOM     18  O   UNL     1       7.847   5.380  13.060  0.00  0.00    +0.000 OA
ATOM     19  H   UNL     1       8.703   4.921  13.077  0.00  0.00    +0.000 HD
ENDBRANCH  15  18
ENDBRANCH   8  12
BRANCH   1  21
ATOM     20  C   UNL     1       1.690   7.296  20.678  0.00  0.00    +0.000 C 
ATOM     21  O   UNL     1       2.576   6.470  19.933  0.00  0.00    +0.000 OA
ENDBRANCH   1  21
BRANCH   3  22
ATOM     22  O   UNL     1       0.833   2.611  22.242  0.00  0.00    +0.000 OA
ATOM     23  H   UNL     1      -0.076   2.947  22.158  0.00  0.00    +0.000 HD
ENDBRANCH   3  22
TORSDOF 4
ENDMDL
MODEL 4
REMARK VINA RESULT:      -6.5      3.713      6.211
REMARK  Name = 
REMARK  5 active torsions:
REMARK  status: ('A' for Active; 'I' for Inactive)
REMARK    1  A    between atoms: C_1  and  O_2
REMARK    2  A    between atoms: O_2  and  C_3
REMARK    3  A    between atoms: C_5  and  O_6
REMARK    4  A    between atoms: N_11  and  C_12
REMARK    5  A    between atoms: C_15  and  O_16
REMARK                            x       y       z     vdW  Elec       q    Type
REMARK                         _______ _______ _______ _____ _____    ______ ____
ROOT
ATOM      1  C   UNL     1       2.483   5.094  20.169  0.00  0.00    +0.000 A 
ATOM      2  C   UNL     1       1.689   4.524  21.173  0.00  0.00    +0.000 A 
ATOM      3  C   UNL     1       1.630   3.142  21.310  0.00  0.00    +0.000 A 
ATOM      4  C   UNL     1       2.330   2.314  20.445  0.00  0.00    +0.000 A 
ATOM      5  C   UNL     1       3.111   2.862  19.424  0.00  0.00    +0.000 A 
ATOM      6  N   UNL     1       3.742   1.966  18.543  0.00  0.00    +0.000 NA
ATOM      7  C   UNL     1       4.434   2.464  17.577  0.00  0.00    +0.000 A 
ATOM      8  N   UNL     1       4.636   3.805  17.357  0.00  0.00    +0.000 N 
ATOM      9  C   UNL     1       4.106   4.770  18.222  0.00  0.00    +0.000 A 
ATOM     10  O   UNL     1       4.336   5.973  18.119  0.00  0.00    +0.000 OA
ATOM     11  C   UNL     1       3.206   4.254  19.296  0.00  0.00    +0.000 A 
ENDROOT
BRANCH   8  12
ATOM     12  C   UNL     1       5.438   4.205  16.251  0.00  0.00    +0.000 A 
ATOM     13  C   UNL     1       4.975   4.046  14.936  0.00  0.00    +0.000 A 
ATOM     14  C   UNL     1       5.770   4.433  13.853  0.00  0.00    +0.000 A 
ATOM     15  C   UNL     1       7.039   4.951  14.088  0.00  0.00    +0.000 A 
ATOM     16  C   UNL     1       7.513   5.116  15.384  0.00  0.00    +0.000 A 
ATOM     17  C   UNL     1       6.707   4.761  16.467  0.00  0.00    +0.000 A 
BRANCH  15  18
ATOM     18  O   UNL     1       7.865   5.300  13.061  0.00  0.00    +0.000 OA
ATOM     19  H   UNL     1       8.557   5.888  13.406  0.00  0.00    +0.000 HD
ENDBRANCH  15  18
ENDBRANCH   8  12
BRANCH   1  21
ATOM     20  C   UNL     1       1.622   7.256  20.698  0.00  0.00    +0.000 C 
ATOM     21  O   UNL     1       2.519   6.446  19.947  0.00  0.00    +0.000 OA
ENDBRANCH   1  21
BRANCH   3  22
ATOM     22  O   UNL     1       0.872   2.559  22.280  0.00  0.00    +0.000 OA
ATOM     23  H   UNL     1      -0.057   2.824  22.166  0.00  0.00    +0.000 HD
ENDBRANCH   3  22
TORSDOF 4
ENDMDL
MODEL 5
REMARK VINA RESULT:      -6.5      5.200      6.989
REMARK  Name = 
REMARK  5 active torsions:
REMARK  status: ('A' for Active; 'I' for Inactive)
REMARK    1  A    between atoms: C_1  and  O_2
REMARK    2  A    between atoms: O_2  and  C_3
REMARK    3  A    between atoms: C_5  and  O_6
REMARK    4  A    between atoms: N_11  and  C_12
REMARK    5  A    between atoms: C_15  and  O_16
REMARK                            x       y       z     vdW  Elec       q    Type
REMARK                         _______ _______ _______ _____ _____    ______ ____
ROOT
ATOM      1  C   UNL     1       6.935   5.534  16.991  0.00  0.00    +0.000 A 
ATOM      2  C   UNL     1       7.574   5.702  15.754  0.00  0.00    +0.000 A 
ATOM      3  C   UNL     1       6.995   5.187  14.600  0.00  0.00    +0.000 A 
ATOM      4  C   UNL     1       5.801   4.484  14.657  0.00  0.00    +0.000 A 
ATOM      5  C   UNL     1       5.160   4.288  15.883  0.00  0.00    +0.000 A 
ATOM      6  N   UNL     1       3.988   3.510  15.880  0.00  0.00    +0.000 NA
ATOM      7  C   UNL     1       3.410   3.294  17.011  0.00  0.00    +0.000 A 
ATOM      8  N   UNL     1       3.827   3.793  18.222  0.00  0.00    +0.000 N 
ATOM      9  C   UNL     1       4.942   4.633  18.314  0.00  0.00    +0.000 A 
ATOM     10  O   UNL     1       5.299   5.176  19.358  0.00  0.00    +0.000 OA
ATOM     11  C   UNL     1       5.713   4.829  17.050  0.00  0.00    +0.000 A 
ENDROOT
BRANCH   8  12
ATOM     12  C   UNL     1       3.076   3.476  19.389  0.00  0.00    +0.000 A 
ATOM     13  C   UNL     1       3.565   2.556  20.328  0.00  0.00    +0.000 A 
ATOM     14  C   UNL     1       2.819   2.243  21.468  0.00  0.00    +0.000 A 
ATOM     15  C   UNL     1       1.572   2.830  21.651  0.00  0.00    +0.000 A 
ATOM     16  C   UNL     1       1.074   3.744  20.732  0.00  0.00    +0.000 A 
ATOM     17  C   UNL     1       1.832   4.083  19.610  0.00  0.00    +0.000 A 
BRANCH  15  18
ATOM     18  O   UNL     1       0.793   2.520  22.726  0.00  0.00    +0.000 OA
ATOM     19  H   UNL     1       0.063   3.159  22.774  0.00  0.00    +0.000 HD
ENDBRANCH  15  18
ENDBRANCH   8  12
BRANCH   1  21
ATOM     20  C   UNL     1       7.941   7.309  18.228  0.00  0.00    +0.000 C 
ATOM     21  O   UNL     1       7.498   5.959  18.166  0.00  0.00    +0.000 OA
ENDBRANCH   1  21
BRANCH   3  22
ATOM     22  O   UNL     1       7.589   5.339  13.383  0.00  0.00    +0.000 OA
ATOM     23  H   UNL     1       7.627   6.285  13.159  0.00  0.00    +0.000 HD
ENDBRANCH   3  22
TORSDOF 4
ENDMDL
MODEL 6
REMARK VINA RESULT:      -6.5      5.264      6.993
REMARK  Name = 
REMARK  5 active torsions:
REMARK  status: ('A' for Active; 'I' for Inactive)
REMARK    1  A    between atoms: C_1  and  O_2
REMARK    2  A    between atoms: O_2  and  C_3
REMARK    3  A    between atoms: C_5  and  O_6
REMARK    4  A    between atoms: N_11  and  C_12
REMARK    5  A    between atoms: C_15  and  O_16
REMARK                            x       y       z     vdW  Elec       q    Type
REMARK                         _______ _______ _______ _____ _____    ______ ____
ROOT
ATOM      1  C   UNL     1       6.941   5.564  17.245  0.00  0.00    +0.000 A 
ATOM      2  C   UNL     1       7.634   5.760  16.042  0.00  0.00    +0.000 A 
ATOM      3  C   UNL     1       7.115   5.258  14.854  0.00  0.00    +0.000 A 
ATOM      4  C   UNL     1       5.928   4.540  14.846  0.00  0.00    +0.000 A 
ATOM      5  C   UNL     1       5.234   4.316  16.038  0.00  0.00    +0.000 A 
ATOM      6  N   UNL     1       4.072   3.526  15.968  0.00  0.00    +0.000 NA
ATOM      7  C   UNL     1       3.447   3.284  17.068  0.00  0.00    +0.000 A 
ATOM      8  N   UNL     1       3.802   3.768  18.305  0.00  0.00    +0.000 N 
ATOM      9  C   UNL     1       4.902   4.618  18.461  0.00  0.00    +0.000 A 
ATOM     10  O   UNL     1       5.204   5.148  19.529  0.00  0.00    +0.000 OA
ATOM     11  C   UNL     1       5.727   4.844  17.238  0.00  0.00    +0.000 A 
ENDROOT
BRANCH   8  12
ATOM     12  C   UNL     1       3.003   3.422  19.431  0.00  0.00    +0.000 A 
ATOM     13  C   UNL     1       1.696   3.914  19.560  0.00  0.00    +0.000 A 
ATOM     14  C   UNL     1       0.919   3.577  20.673  0.00  0.00    +0.000 A 
ATOM     15  C   UNL     1       1.463   2.774  21.668  0.00  0.00    +0.000 A 
ATOM     16  C   UNL     1       2.755   2.277  21.556  0.00  0.00    +0.000 A 
ATOM     17  C   UNL     1       3.521   2.585  20.430  0.00  0.00    +0.000 A 
BRANCH  15  18
ATOM     18  O   UNL     1       0.756   2.457  22.790  0.00  0.00    +0.000 OA
ATOM     19  H   UNL     1      -0.067   2.017  22.525  0.00  0.00    +0.000 HD
ENDBRANCH  15  18
ENDBRANCH   8  12
BRANCH   1  21
ATOM     20  C   UNL     1       8.069   7.253  18.499  0.00  0.00    +0.000 C 
ATOM     21  O   UNL     1       7.445   5.976  18.451  0.00  0.00    +0.000 OA
ENDBRANCH   1  21
BRANCH   3  22
ATOM     22  O   UNL     1       7.761   5.437  13.669  0.00  0.00    +0.000 OA
ATOM     23  H   UNL     1       8.711   5.267  13.791  0.00  0.00    +0.000 HD
ENDBRANCH   3  22
TORSDOF 4
ENDMDL
MODEL 7
REMARK VINA RESULT:      -6.5      0.973      1.077
REMARK  Name = 
REMARK  5 active torsions:
REMARK  status: ('A' for Active; 'I' for Inactive)
REMARK    1  A    between atoms: C_1  and  O_2
REMARK    2  A    between atoms: O_2  and  C_3
REMARK    3  A    between atoms: C_5  and  O_6
REMARK    4  A    between atoms: N_11  and  C_12
REMARK    5  A    between atoms: C_15  and  O_16
REMARK                            x       y       z     vdW  Elec       q    Type
REMARK                         _______ _______ _______ _____ _____    ______ ____
ROOT
ATOM      1  C   UNL     1       1.042   9.118  20.581  0.00  0.00    +0.000 A 
ATOM      2  C   UNL     1       0.790  10.484  20.385  0.00  0.00    +0.000 A 
ATOM      3  C   UNL     1       1.134  11.086  19.180  0.00  0.00    +0.000 A 
ATOM      4  C   UNL     1       1.749  10.357  18.173  0.00  0.00    +0.000 A 
ATOM      5  C   UNL     1       2.028   9.000  18.358  0.00  0.00    +0.000 A 
ATOM      6  N   UNL     1       2.712   8.337  17.323  0.00  0.00    +0.000 NA
ATOM      7  C   UNL     1       3.006   7.095  17.500  0.00  0.00    +0.000 A 
ATOM      8  N   UNL     1       2.671   6.352  18.607  0.00  0.00    +0.000 N 
ATOM      9  C   UNL     1       1.930   6.908  19.656  0.00  0.00    +0.000 A 
ATOM     10  O   UNL     1       1.530   6.261  20.622  0.00  0.00    +0.000 OA
ATOM     11  C   UNL     1       1.657   8.372  19.553  0.00  0.00    +0.000 A 
ENDROOT
BRANCH   8  12
ATOM     12  C   UNL     1       3.055   4.982  18.655  0.00  0.00    +0.000 A 
ATOM     13  C   UNL     1       4.182   4.579  19.385  0.00  0.00    +0.000 A 
ATOM     14  C   UNL     1       4.559   3.233  19.422  0.00  0.00    +0.000 A 
ATOM     15  C   UNL     1       3.824   2.298  18.702  0.00  0.00    +0.000 A 
ATOM     16  C   UNL     1       2.704   2.680  17.974  0.00  0.00    +0.000 A 
ATOM     17  C   UNL     1       2.307   4.019  17.964  0.00  0.00    +0.000 A 
BRANCH  15  18
ATOM     18  O   UNL     1       4.182   0.983  18.673  0.00  0.00    +0.000 OA
ATOM     19  H   UNL     1       3.646   0.502  19.325  0.00  0.00    +0.000 HD
ENDBRANCH  15  18
ENDBRANCH   8  12
BRANCH   1  21
ATOM     20  C   UNL     1      -0.185   9.085  22.627  0.00  0.00    +0.000 C 
ATOM     21  O   UNL     1       0.788   8.495  21.774  0.00  0.00    +0.000 OA
ENDBRANCH   1  21
BRANCH   3  22
ATOM     22  O   UNL     1       0.896  12.409  18.958  0.00  0.00    +0.000 OA
ATOM     23  H   UNL     1       0.460  12.517  18.095  0.00  0.00    +0.000 HD
ENDBRANCH   3  22
TORSDOF 4
ENDMDL
MODEL 8
REMARK VINA RESULT:      -6.4      1.613      6.694
REMARK  Name = 
REMARK  5 active torsions:
REMARK  status: ('A' for Active; 'I' for Inactive)
REMARK    1  A    between atoms: C_1  and  O_2
REMARK    2  A    between atoms: O_2  and  C_3
REMARK    3  A    between atoms: C_5  and  O_6
REMARK    4  A    between atoms: N_11  and  C_12
REMARK    5  A    between atoms: C_15  and  O_16
REMARK                            x       y       z     vdW  Elec       q    Type
REMARK                         _______ _______ _______ _____ _____    ______ ____
ROOT
ATOM      1  C   UNL     1       3.282   4.057  19.005  0.00  0.00    +0.000 A 
ATOM      2  C   UNL     1       4.095   3.322  18.131  0.00  0.00    +0.000 A 
ATOM      3  C   UNL     1       4.763   3.969  17.097  0.00  0.00    +0.000 A 
ATOM      4  C   UNL     1       4.617   5.334  16.903  0.00  0.00    +0.000 A 
ATOM      5  C   UNL     1       3.795   6.081  17.751  0.00  0.00    +0.000 A 
ATOM      6  N   UNL     1       3.639   7.448  17.459  0.00  0.00    +0.000 NA
ATOM      7  C   UNL     1       2.854   8.136  18.214  0.00  0.00    +0.000 A 
ATOM      8  N   UNL     1       2.181   7.649  19.309  0.00  0.00    +0.000 N 
ATOM      9  C   UNL     1       2.329   6.319  19.718  0.00  0.00    +0.000 A 
ATOM     10  O   UNL     1       1.822   5.863  20.741  0.00  0.00    +0.000 OA
ATOM     11  C   UNL     1       3.142   5.449  18.817  0.00  0.00    +0.000 A 
ENDROOT
BRANCH   8  12
ATOM     12  C   UNL     1       1.356   8.536  20.057  0.00  0.00    +0.000 A 
ATOM     13  C   UNL     1       0.608   9.533  19.413  0.00  0.00    +0.000 A 
ATOM     14  C   UNL     1      -0.195  10.406  20.153  0.00  0.00    +0.000 A 
ATOM     15  C   UNL     1      -0.224  10.298  21.539  0.00  0.00    +0.000 A 
ATOM     16  C   UNL     1       0.510   9.316  22.193  0.00  0.00    +0.000 A 
ATOM     17  C   UNL     1       1.286   8.422  21.453  0.00  0.00    +0.000 A 
BRANCH  15  18
ATOM     18  O   UNL     1      -0.957  11.157  22.302  0.00  0.00    +0.000 OA
ATOM     19  H   UNL     1      -1.892  11.071  22.053  0.00  0.00    +0.000 HD
ENDBRANCH  15  18
ENDBRANCH   8  12
BRANCH   1  21
ATOM     20  C   UNL     1       1.621   2.452  19.603  0.00  0.00    +0.000 C 
ATOM     21  O   UNL     1       2.547   3.458  19.994  0.00  0.00    +0.000 OA
ENDBRANCH   1  21
BRANCH   3  22
ATOM     22  O   UNL     1       5.564   3.283  16.235  0.00  0.00    +0.000 OA
ATOM     23  H   UNL     1       5.235   3.399  15.327  0.00  0.00    +0.000 HD
ENDBRANCH   3  22
TORSDOF 4
ENDMDL
MODEL 9
REMARK VINA RESULT:      -6.4      1.621      6.645
REMARK  Name = 
REMARK  5 active torsions:
REMARK  status: ('A' for Active; 'I' for Inactive)
REMARK    1  A    between atoms: C_1  and  O_2
REMARK    2  A    between atoms: O_2  and  C_3
REMARK    3  A    between atoms: C_5  and  O_6
REMARK    4  A    between atoms: N_11  and  C_12
REMARK    5  A    between atoms: C_15  and  O_16
REMARK                            x       y       z     vdW  Elec       q    Type
REMARK                         _______ _______ _______ _____ _____    ______ ____
ROOT
ATOM      1  C   UNL     1       3.280   4.055  19.013  0.00  0.00    +0.000 A 
ATOM      2  C   UNL     1       4.088   3.316  18.137  0.00  0.00    +0.000 A 
ATOM      3  C   UNL     1       4.753   3.957  17.099  0.00  0.00    +0.000 A 
ATOM      4  C   UNL     1       4.609   5.322  16.901  0.00  0.00    +0.000 A 
ATOM      5  C   UNL     1       3.791   6.073  17.750  0.00  0.00    +0.000 A 
ATOM      6  N   UNL     1       3.637   7.440  17.453  0.00  0.00    +0.000 NA
ATOM      7  C   UNL     1       2.857   8.132  18.210  0.00  0.00    +0.000 A 
ATOM      8  N   UNL     1       2.188   7.650  19.309  0.00  0.00    +0.000 N 
ATOM      9  C   UNL     1       2.335   6.321  19.722  0.00  0.00    +0.000 A 
ATOM     10  O   UNL     1       1.830   5.869  20.749  0.00  0.00    +0.000 OA
ATOM     11  C   UNL     1       3.142   5.446  18.820  0.00  0.00    +0.000 A 
ENDROOT
BRANCH   8  12
ATOM     12  C   UNL     1       1.367   8.541  20.057  0.00  0.00    +0.000 A 
ATOM     13  C   UNL     1       1.304   8.455  21.455  0.00  0.00    +0.000 A 
ATOM     14  C   UNL     1       0.490   9.328  22.183  0.00  0.00    +0.000 A 
ATOM     15  C   UNL     1      -0.281  10.267  21.507  0.00  0.00    +0.000 A 
ATOM     16  C   UNL     1      -0.229  10.367  20.122  0.00  0.00    +0.000 A 
ATOM     17  C   UNL     1       0.608   9.518  19.396  0.00  0.00    +0.000 A 
BRANCH  15  18
ATOM     18  O   UNL     1      -1.122  11.108  22.173  0.00  0.00    +0.000 OA
ATOM     19  H   UNL     1      -0.977  12.012  21.849  0.00  0.00    +0.000 HD
ENDBRANCH  15  18
ENDBRANCH   8  12
BRANCH   1  21
ATOM     20  C   UNL     1       1.578   2.495  19.617  0.00  0.00    +0.000 C 
ATOM     21  O   UNL     1       2.548   3.460  20.007  0.00  0.00    +0.000 OA
ENDBRANCH   1  21
BRANCH   3  22
ATOM     22  O   UNL     1       5.549   3.267  16.236  0.00  0.00    +0.000 OA
ATOM     23  H   UNL     1       4.996   2.707  15.664  0.00  0.00    +0.000 HD
ENDBRANCH   3  22
TORSDOF 4
ENDMDL
